MODEL 1
REMARK VINA RESULT:      -8.1      0.000      0.000
REMARK  Name = 
REMARK  6 active torsions:
REMARK  status: ('A' for Active; 'I' for Inactive)
REMARK    1  A    between atoms: C_1  and  O_2
REMARK    2  A    between atoms: O_2  and  C_3
REMARK    3  A    between atoms: C_7  and  C_8
REMARK    4  A    between atoms: C_8  and  C_9
REMARK    5  A    between atoms: C_20  and  C_21
REMARK    6  A    between atoms: C_21  and  C_22
REMARK                            x       y       z     vdW  Elec       q    Type
REMARK                         _______ _______ _______ _____ _____    ______ ____
ROOT
ATOM      1  C   UNK A   1       8.121   7.558  18.487  0.00  0.00    +0.000 A 
ATOM      2  C   UNK A   1       7.971   6.397  19.234  0.00  0.00    +0.000 A 
ATOM      3  C   UNK A   1       7.174   5.349  18.770  0.00  0.00    +0.000 A 
ATOM      4  C   UNK A   1       6.520   5.433  17.527  0.00  0.00    +0.000 A 
ATOM      5  C   UNK A   1       5.753   4.523  16.719  0.00  0.00    +0.000 A 
ATOM      6  C   UNK A   1       5.378   5.230  15.581  0.00  0.00    +0.000 A 
ATOM      7  N   UNK A   1       5.863   6.512  15.693  0.00  0.00    +0.000 N 
ATOM      8  C   UNK A   1       6.626   6.640  16.831  0.00  0.00    +0.000 A 
ATOM      9  C   UNK A   1       7.403   7.719  17.294  0.00  0.00    +0.000 A 
ATOM     10  H   UNK A   1       5.726   7.245  15.014  0.00  0.00    +0.000 HD
ENDROOT
BRANCH   1  12
ATOM     11  C   UNK A   1       8.607   9.856  18.266  0.00  0.00    +0.000 C 
ATOM     12  O   UNK A   1       8.924   8.602  18.875  0.00  0.00    +0.000 OA
ENDBRANCH   1  12
BRANCH   5  13
ATOM     13  C   UNK A   1       5.406   3.070  16.939  0.00  0.00    +0.000 C 
BRANCH  13  14
ATOM     14  C   UNK A   1       4.047   2.737  17.557  0.00  0.00    +0.000 C 
ATOM     15  N   UNK A   1       3.037   3.741  17.169  0.00  0.00    +0.000 N 
ATOM     16  C   PRO A   2       1.808   3.827  17.780  0.00  0.00    +0.000 C 
ATOM     17  O   PRO A   2       0.877   4.427  17.255  0.00  0.00    +0.000 OA
ATOM     18  CA  PRO A   2       1.690   3.006  19.062  0.00  0.00    +0.000 C 
ATOM     19  CB  PRO A   2       0.751   3.623  20.094  0.00  0.00    +0.000 C 
ATOM     20  CG  PRO A   2       1.359   3.172  21.422  0.00  0.00    +0.000 C 
ATOM     21  CD  PRO A   2       2.857   3.230  21.162  0.00  0.00    +0.000 C 
ATOM     22  N   PRO A   2       2.976   2.958  19.748  0.00  0.00    +0.000 N 
ATOM     23  C   UNK A   1       4.171   2.723  19.100  0.00  0.00    +0.000 C 
ATOM     24  O   UNK A   1       5.206   2.452  19.700  0.00  0.00    +0.000 OA
ATOM     25  H   UNK A   1       3.080   4.153  16.242  0.00  0.00    +0.000 HD
ENDBRANCH  13  14
ENDBRANCH   5  13
BRANCH   6  26
ATOM     26  C   UNK A   1       4.626   4.768  14.361  0.00  0.00    +0.000 C 
BRANCH  26  27
ATOM     27  C   UNK A   1       5.474   4.042  13.345  0.00  0.00    +0.000 A 
ATOM     28  C   UNK A   1       4.920   3.041  12.527  0.00  0.00    +0.000 A 
ATOM     29  C   UNK A   1       5.695   2.403  11.563  0.00  0.00    +0.000 A 
ATOM     30  C   UNK A   1       7.031   2.750  11.390  0.00  0.00    +0.000 A 
ATOM     31  C   UNK A   1       7.594   3.745  12.194  0.00  0.00    +0.000 A 
ATOM     32  C   UNK A   1       6.823   4.381  13.164  0.00  0.00    +0.000 A 
ENDBRANCH  26  27
ENDBRANCH   6  26
TORSDOF 5
ENDMDL
MODEL 2
REMARK VINA RESULT:      -7.8      3.819      6.302
REMARK  Name = 
REMARK  6 active torsions:
REMARK  status: ('A' for Active; 'I' for Inactive)
REMARK    1  A    between atoms: C_1  and  O_2
REMARK    2  A    between atoms: O_2  and  C_3
REMARK    3  A    between atoms: C_7  and  C_8
REMARK    4  A    between atoms: C_8  and  C_9
REMARK    5  A    between atoms: C_20  and  C_21
REMARK    6  A    between atoms: C_21  and  C_22
REMARK                            x       y       z     vdW  Elec       q    Type
REMARK                         _______ _______ _______ _____ _____    ______ ____
ROOT
ATOM      1  C   UNK A   1       7.074   5.485  15.116  0.00  0.00    +0.000 A 
ATOM      2  C   UNK A   1       7.014   6.565  15.986  0.00  0.00    +0.000 A 
ATOM      3  C   UNK A   1       5.947   6.705  16.876  0.00  0.00    +0.000 A 
ATOM      4  C   UNK A   1       4.918   5.746  16.927  0.00  0.00    +0.000 A 
ATOM      5  C   UNK A   1       3.779   5.524  17.778  0.00  0.00    +0.000 A 
ATOM      6  C   UNK A   1       3.144   4.385  17.294  0.00  0.00    +0.000 A 
ATOM      7  N   UNK A   1       3.837   3.945  16.189  0.00  0.00    +0.000 N 
ATOM      8  C   UNK A   1       4.963   4.710  15.991  0.00  0.00    +0.000 A 
ATOM      9  C   UNK A   1       6.016   4.566  15.067  0.00  0.00    +0.000 A 
ATOM     10  H   UNK A   1       3.588   3.143  15.630  0.00  0.00    +0.000 HD
ENDROOT
BRANCH   1  12
ATOM     11  C   UNK A   1       7.730   4.995  12.903  0.00  0.00    +0.000 C 
ATOM     12  O   UNK A   1       8.119   5.274  14.250  0.00  0.00    +0.000 OA
ENDBRANCH   1  12
BRANCH   5  13
ATOM     13  C   UNK A   1       3.304   6.276  18.998  0.00  0.00    +0.000 C 
BRANCH  13  14
ATOM     14  C   UNK A   1       2.198   7.317  18.819  0.00  0.00    +0.000 C 
ATOM     15  N   UNK A   1       2.728   8.539  18.182  0.00  0.00    +0.000 N 
ATOM     16  C   PRO A   2       2.018   9.715  18.135  0.00  0.00    +0.000 C 
ATOM     17  O   PRO A   2       2.313  10.606  17.346  0.00  0.00    +0.000 OA
ATOM     18  CA  PRO A   2       0.784   9.735  19.035  0.00  0.00    +0.000 C 
ATOM     19  CB  PRO A   2       0.454  11.120  19.584  0.00  0.00    +0.000 C 
ATOM     20  CG  PRO A   2      -0.188  10.808  20.935  0.00  0.00    +0.000 C 
ATOM     21  CD  PRO A   2       0.611   9.615  21.438  0.00  0.00    +0.000 C 
ATOM     22  N   PRO A   2       1.021   8.936  20.231  0.00  0.00    +0.000 N 
ATOM     23  C   UNK A   1       1.611   7.690  20.203  0.00  0.00    +0.000 C 
ATOM     24  O   UNK A   1       1.595   6.929  21.166  0.00  0.00    +0.000 OA
ATOM     25  H   UNK A   1       3.456   8.454  17.480  0.00  0.00    +0.000 HD
ENDBRANCH  13  14
ENDBRANCH   5  13
BRANCH   6  26
ATOM     26  C   UNK A   1       1.946   3.646  17.826  0.00  0.00    +0.000 C 
BRANCH  26  27
ATOM     27  C   UNK A   1       2.058   3.241  19.276  0.00  0.00    +0.000 A 
ATOM     28  C   UNK A   1       0.983   3.431  20.163  0.00  0.00    +0.000 A 
ATOM     29  C   UNK A   1       1.077   3.018  21.489  0.00  0.00    +0.000 A 
ATOM     30  C   UNK A   1       2.236   2.406  21.957  0.00  0.00    +0.000 A 
ATOM     31  C   UNK A   1       3.310   2.209  21.086  0.00  0.00    +0.000 A 
ATOM     32  C   UNK A   1       3.222   2.626  19.760  0.00  0.00    +0.000 A 
ENDBRANCH  26  27
ENDBRANCH   6  26
TORSDOF 5
ENDMDL
MODEL 3
REMARK VINA RESULT:      -7.8      7.488     11.012
REMARK  Name = 
REMARK  6 active torsions:
REMARK  status: ('A' for Active; 'I' for Inactive)
REMARK    1  A    between atoms: C_1  and  O_2
REMARK    2  A    between atoms: O_2  and  C_3
REMARK    3  A    between atoms: C_7  and  C_8
REMARK    4  A    between atoms: C_8  and  C_9
REMARK    5  A    between atoms: C_20  and  C_21
REMARK    6  A    between atoms: C_21  and  C_22
REMARK                            x       y       z     vdW  Elec       q    Type
REMARK                         _______ _______ _______ _____ _____    ______ ____
ROOT
ATOM      1  C   UNK A   1      -2.997  10.723  16.891  0.00  0.00    +0.000 A 
ATOM      2  C   UNK A   1      -1.904   9.906  16.638  0.00  0.00    +0.000 A 
ATOM      3  C   UNK A   1      -0.888   9.762  17.585  0.00  0.00    +0.000 A 
ATOM      4  C   UNK A   1      -0.956  10.422  18.825  0.00  0.00    +0.000 A 
ATOM      5  C   UNK A   1      -0.176  10.397  20.034  0.00  0.00    +0.000 A 
ATOM      6  C   UNK A   1      -0.777  11.297  20.908  0.00  0.00    +0.000 A 
ATOM      7  N   UNK A   1      -1.851  11.868  20.264  0.00  0.00    +0.000 N 
ATOM      8  C   UNK A   1      -2.028  11.296  19.025  0.00  0.00    +0.000 A 
ATOM      9  C   UNK A   1      -3.049  11.477  18.072  0.00  0.00    +0.000 A 
ATOM     10  H   UNK A   1      -2.460  12.567  20.661  0.00  0.00    +0.000 HD
ENDROOT
BRANCH   1  12
ATOM     11  C   UNK A   1      -3.800  10.357  14.703  0.00  0.00    +0.000 C 
ATOM     12  O   UNK A   1      -4.044  10.870  16.014  0.00  0.00    +0.000 OA
ENDBRANCH   1  12
BRANCH   5  13
ATOM     13  C   UNK A   1       1.032   9.570  20.404  0.00  0.00    +0.000 C 
BRANCH  13  14
ATOM     14  C   UNK A   1       1.198   8.200  19.746  0.00  0.00    +0.000 C 
ATOM     15  N   UNK A   1       1.659   7.200  20.729  0.00  0.00    +0.000 N 
ATOM     16  C   PRO A   2       2.129   5.962  20.359  0.00  0.00    +0.000 C 
ATOM     17  O   PRO A   2       2.202   5.042  21.166  0.00  0.00    +0.000 OA
ATOM     18  CA  PRO A   2       2.403   5.820  18.863  0.00  0.00    +0.000 C 
ATOM     19  CB  PRO A   2       3.550   4.867  18.543  0.00  0.00    +0.000 C 
ATOM     20  CG  PRO A   2       4.131   5.451  17.256  0.00  0.00    +0.000 C 
ATOM     21  CD  PRO A   2       4.008   6.953  17.464  0.00  0.00    +0.000 C 
ATOM     22  N   PRO A   2       2.846   7.094  18.310  0.00  0.00    +0.000 N 
ATOM     23  C   UNK A   1       2.242   8.298  18.606  0.00  0.00    +0.000 C 
ATOM     24  O   UNK A   1       2.462   9.323  17.967  0.00  0.00    +0.000 OA
ATOM     25  H   UNK A   1       1.329   7.260  21.686  0.00  0.00    +0.000 HD
ENDBRANCH  13  14
ENDBRANCH   5  13
BRANCH   6  26
ATOM     26  C   UNK A   1      -0.437  11.632  22.335  0.00  0.00    +0.000 C 
BRANCH  26  27
ATOM     27  C   UNK A   1      -1.489  12.442  23.053  0.00  0.00    +0.000 A 
ATOM     28  C   UNK A   1      -1.289  13.808  23.324  0.00  0.00    +0.000 A 
ATOM     29  C   UNK A   1      -2.279  14.560  23.948  0.00  0.00    +0.000 A 
ATOM     30  C   UNK A   1      -3.487  13.973  24.311  0.00  0.00    +0.000 A 
ATOM     31  C   UNK A   1      -3.701  12.618  24.046  0.00  0.00    +0.000 A 
ATOM     32  C   UNK A   1      -2.710  11.860  23.426  0.00  0.00    +0.000 A 
ENDBRANCH  26  27
ENDBRANCH   6  26
TORSDOF 5
ENDMDL
MODEL 4
REMARK VINA RESULT:      -7.7      3.801      6.963
REMARK  Name = 
REMARK  6 active torsions:
REMARK  status: ('A' for Active; 'I' for Inactive)
REMARK    1  A    between atoms: C_1  and  O_2
REMARK    2  A    between atoms: O_2  and  C_3
REMARK    3  A    between atoms: C_7  and  C_8
REMARK    4  A    between atoms: C_8  and  C_9
REMARK    5  A    between atoms: C_20  and  C_21
REMARK    6  A    between atoms: C_21  and  C_22
REMARK                            x       y       z     vdW  Elec       q    Type
REMARK                         _______ _______ _______ _____ _____    ______ ____
ROOT
ATOM      1  C   UNK A   1       0.898  10.615  19.447  0.00  0.00    +0.000 A 
ATOM      2  C   UNK A   1       1.325  10.197  18.194  0.00  0.00    +0.000 A 
ATOM      3  C   UNK A   1       1.826   8.907  18.004  0.00  0.00    +0.000 A 
ATOM      4  C   UNK A   1       1.892   7.994  19.072  0.00  0.00    +0.000 A 
ATOM      5  C   UNK A   1       2.223   6.599  19.197  0.00  0.00    +0.000 A 
ATOM      6  C   UNK A   1       2.094   6.284  20.546  0.00  0.00    +0.000 A 
ATOM      7  N   UNK A   1       1.733   7.427  21.220  0.00  0.00    +0.000 N 
ATOM      8  C   UNK A   1       1.527   8.463  20.337  0.00  0.00    +0.000 A 
ATOM      9  C   UNK A   1       1.045   9.767  20.555  0.00  0.00    +0.000 A 
ATOM     10  H   UNK A   1       1.584   7.490  22.216  0.00  0.00    +0.000 HD
ENDROOT
BRANCH   1  12
ATOM     11  C   UNK A   1      -0.049  12.082  21.034  0.00  0.00    +0.000 C 
ATOM     12  O   UNK A   1       0.359  11.856  19.683  0.00  0.00    +0.000 OA
ENDBRANCH   1  12
BRANCH   5  13
ATOM     13  C   UNK A   1       2.597   5.583  18.145  0.00  0.00    +0.000 C 
BRANCH  13  14
ATOM     14  C   UNK A   1       4.080   5.387  17.825  0.00  0.00    +0.000 C 
ATOM     15  N   UNK A   1       4.723   6.679  17.518  0.00  0.00    +0.000 N 
ATOM     16  C   PRO A   2       5.975   6.767  16.955  0.00  0.00    +0.000 C 
ATOM     17  O   PRO A   2       6.622   7.807  17.001  0.00  0.00    +0.000 OA
ATOM     18  CA  PRO A   2       6.510   5.442  16.416  0.00  0.00    +0.000 C 
ATOM     19  CB  PRO A   2       7.422   5.604  15.203  0.00  0.00    +0.000 C 
ATOM     20  CG  PRO A   2       7.180   4.315  14.419  0.00  0.00    +0.000 C 
ATOM     21  CD  PRO A   2       5.694   4.054  14.619  0.00  0.00    +0.000 C 
ATOM     22  N   PRO A   2       5.412   4.623  15.917  0.00  0.00    +0.000 N 
ATOM     23  C   UNK A   1       4.225   4.453  16.598  0.00  0.00    +0.000 C 
ATOM     24  O   UNK A   1       3.407   3.589  16.296  0.00  0.00    +0.000 OA
ATOM     25  H   UNK A   1       4.423   7.511  18.015  0.00  0.00    +0.000 HD
ENDBRANCH  13  14
ENDBRANCH   5  13
BRANCH   6  26
ATOM     26  C   UNK A   1       2.247   4.961  21.247  0.00  0.00    +0.000 C 
BRANCH  26  27
ATOM     27  C   UNK A   1       2.043   3.758  20.359  0.00  0.00    +0.000 A 
ATOM     28  C   UNK A   1       0.782   3.481  19.800  0.00  0.00    +0.000 A 
ATOM     29  C   UNK A   1       0.608   2.394  18.948  0.00  0.00    +0.000 A 
ATOM     30  C   UNK A   1       1.681   1.566  18.633  0.00  0.00    +0.000 A 
ATOM     31  C   UNK A   1       2.939   1.831  19.179  0.00  0.00    +0.000 A 
ATOM     32  C   UNK A   1       3.116   2.915  20.036  0.00  0.00    +0.000 A 
ENDBRANCH  26  27
ENDBRANCH   6  26
TORSDOF 5
ENDMDL
MODEL 5
REMARK VINA RESULT:      -7.5      7.612     11.086
REMARK  Name = 
REMARK  6 active torsions:
REMARK  status: ('A' for Active; 'I' for Inactive)
REMARK    1  A    between atoms: C_1  and  O_2
REMARK    2  A    between atoms: O_2  and  C_3
REMARK    3  A    between atoms: C_7  and  C_8
REMARK    4  A    between atoms: C_8  and  C_9
REMARK    5  A    between atoms: C_20  and  C_21
REMARK    6  A    between atoms: C_21  and  C_22
REMARK                            x       y       z     vdW  Elec       q    Type
REMARK                         _______ _______ _______ _____ _____    ______ ____
ROOT
ATOM      1  C   UNK A   1      -3.019  10.811  16.928  0.00  0.00    +0.000 A 
ATOM      2  C   UNK A   1      -1.941   9.971  16.684  0.00  0.00    +0.000 A 
ATOM      3  C   UNK A   1      -0.931   9.813  17.635  0.00  0.00    +0.000 A 
ATOM      4  C   UNK A   1      -0.990  10.484  18.870  0.00  0.00    +0.000 A 
ATOM      5  C   UNK A   1      -0.214  10.452  20.081  0.00  0.00    +0.000 A 
ATOM      6  C   UNK A   1      -0.800  11.370  20.947  0.00  0.00    +0.000 A 
ATOM      7  N   UNK A   1      -1.861  11.956  20.296  0.00  0.00    +0.000 N 
ATOM      8  C   UNK A   1      -2.045  11.380  19.060  0.00  0.00    +0.000 A 
ATOM      9  C   UNK A   1      -3.060  11.574  18.103  0.00  0.00    +0.000 A 
ATOM     10  H   UNK A   1      -2.457  12.670  20.686  0.00  0.00    +0.000 HD
ENDROOT
BRANCH   1  12
ATOM     11  C   UNK A   1      -5.200  11.644  16.588  0.00  0.00    +0.000 C 
ATOM     12  O   UNK A   1      -4.061  10.972  16.047  0.00  0.00    +0.000 OA
ENDBRANCH   1  12
BRANCH   5  13
ATOM     13  C   UNK A   1       0.977   9.604  20.461  0.00  0.00    +0.000 C 
BRANCH  13  14
ATOM     14  C   UNK A   1       1.147   8.249  19.773  0.00  0.00    +0.000 C 
ATOM     15  N   UNK A   1       1.596   7.226  20.737  0.00  0.00    +0.000 N 
ATOM     16  C   PRO A   2       2.067   5.995  20.344  0.00  0.00    +0.000 C 
ATOM     17  O   PRO A   2       2.131   5.057  21.130  0.00  0.00    +0.000 OA
ATOM     18  CA  PRO A   2       2.355   5.887  18.848  0.00  0.00    +0.000 C 
ATOM     19  CB  PRO A   2       3.504   4.939  18.518  0.00  0.00    +0.000 C 
ATOM     20  CG  PRO A   2       4.099   5.551  17.250  0.00  0.00    +0.000 C 
ATOM     21  CD  PRO A   2       3.977   7.048  17.490  0.00  0.00    +0.000 C 
ATOM     22  N   PRO A   2       2.807   7.173  18.329  0.00  0.00    +0.000 N 
ATOM     23  C   UNK A   1       2.202   8.371  18.646  0.00  0.00    +0.000 C 
ATOM     24  O   UNK A   1       2.430   9.409  18.033  0.00  0.00    +0.000 OA
ATOM     25  H   UNK A   1       1.257   7.265  21.693  0.00  0.00    +0.000 HD
ENDBRANCH  13  14
ENDBRANCH   5  13
BRANCH   6  26
ATOM     26  C   UNK A   1      -0.457  11.708  22.373  0.00  0.00    +0.000 C 
BRANCH  26  27
ATOM     27  C   UNK A   1      -1.507  12.521  23.089  0.00  0.00    +0.000 A 
ATOM     28  C   UNK A   1      -2.746  11.954  23.437  0.00  0.00    +0.000 A 
ATOM     29  C   UNK A   1      -3.695  12.695  24.135  0.00  0.00    +0.000 A 
ATOM     30  C   UNK A   1      -3.431  14.011  24.503  0.00  0.00    +0.000 A 
ATOM     31  C   UNK A   1      -2.203  14.587  24.166  0.00  0.00    +0.000 A 
ATOM     32  C   UNK A   1      -1.253  13.849  23.463  0.00  0.00    +0.000 A 
ENDBRANCH  26  27
ENDBRANCH   6  26
TORSDOF 5
ENDMDL
MODEL 6
REMARK VINA RESULT:      -7.5      2.247      3.062
REMARK  Name = 
REMARK  6 active torsions:
REMARK  status: ('A' for Active; 'I' for Inactive)
REMARK    1  A    between atoms: C_1  and  O_2
REMARK    2  A    between atoms: O_2  and  C_3
REMARK    3  A    between atoms: C_7  and  C_8
REMARK    4  A    between atoms: C_8  and  C_9
REMARK    5  A    between atoms: C_20  and  C_21
REMARK    6  A    between atoms: C_21  and  C_22
REMARK                            x       y       z     vdW  Elec       q    Type
REMARK                         _______ _______ _______ _____ _____    ______ ____
ROOT
ATOM      1  C   UNK A   1       2.367   8.012  18.232  0.00  0.00    +0.000 A 
ATOM      2  C   UNK A   1       1.762   6.767  18.337  0.00  0.00    +0.000 A 
ATOM      3  C   UNK A   1       2.398   5.623  17.851  0.00  0.00    +0.000 A 
ATOM      4  C   UNK A   1       3.675   5.699  17.264  0.00  0.00    +0.000 A 
ATOM      5  C   UNK A   1       4.634   4.737  16.791  0.00  0.00    +0.000 A 
ATOM      6  C   UNK A   1       5.718   5.466  16.314  0.00  0.00    +0.000 A 
ATOM      7  N   UNK A   1       5.431   6.804  16.456  0.00  0.00    +0.000 N 
ATOM      8  C   UNK A   1       4.228   6.972  17.103  0.00  0.00    +0.000 A 
ATOM      9  C   UNK A   1       3.591   8.141  17.560  0.00  0.00    +0.000 A 
ATOM     10  H   UNK A   1       6.038   7.560  16.178  0.00  0.00    +0.000 HD
ENDROOT
BRANCH   1  12
ATOM     11  C   UNK A   1       1.151   9.013  19.989  0.00  0.00    +0.000 C 
ATOM     12  O   UNK A   1       1.807   9.164  18.728  0.00  0.00    +0.000 OA
ENDBRANCH   1  12
BRANCH   5  13
ATOM     13  C   UNK A   1       4.599   3.228  16.807  0.00  0.00    +0.000 C 
BRANCH  13  14
ATOM     14  C   UNK A   1       3.782   2.535  17.899  0.00  0.00    +0.000 C 
ATOM     15  N   UNK A   1       2.336   2.668  17.633  0.00  0.00    +0.000 N 
ATOM     16  C   PRO A   2       1.380   2.364  18.574  0.00  0.00    +0.000 C 
ATOM     17  O   PRO A   2       0.213   2.168  18.255  0.00  0.00    +0.000 OA
ATOM     18  CA  PRO A   2       1.934   2.162  19.982  0.00  0.00    +0.000 C 
ATOM     19  CB  PRO A   2       0.962   2.578  21.083  0.00  0.00    +0.000 C 
ATOM     20  CG  PRO A   2       1.892   3.040  22.204  0.00  0.00    +0.000 C 
ATOM     21  CD  PRO A   2       3.029   3.724  21.459  0.00  0.00    +0.000 C 
ATOM     22  N   PRO A   2       3.089   3.026  20.197  0.00  0.00    +0.000 N 
ATOM     23  C   UNK A   1       4.099   3.182  19.270  0.00  0.00    +0.000 C 
ATOM     24  O   UNK A   1       5.170   3.715  19.543  0.00  0.00    +0.000 OA
ATOM     25  H   UNK A   1       2.007   2.652  16.673  0.00  0.00    +0.000 HD
ENDBRANCH  13  14
ENDBRANCH   5  13
BRANCH   6  26
ATOM     26  C   UNK A   1       7.037   4.990  15.766  0.00  0.00    +0.000 C 
BRANCH  26  27
ATOM     27  C   UNK A   1       7.021   4.679  14.289  0.00  0.00    +0.000 A 
ATOM     28  C   UNK A   1       6.179   3.678  13.772  0.00  0.00    +0.000 A 
ATOM     29  C   UNK A   1       6.137   3.423  12.405  0.00  0.00    +0.000 A 
ATOM     30  C   UNK A   1       6.927   4.157  11.526  0.00  0.00    +0.000 A 
ATOM     31  C   UNK A   1       7.767   5.156  12.025  0.00  0.00    +0.000 A 
ATOM     32  C   UNK A   1       7.815   5.411  13.394  0.00  0.00    +0.000 A 
ENDBRANCH  26  27
ENDBRANCH   6  26
TORSDOF 5
ENDMDL
MODEL 7
REMARK VINA RESULT:      -7.5      3.743      6.880
REMARK  Name = 
REMARK  6 active torsions:
REMARK  status: ('A' for Active; 'I' for Inactive)
REMARK    1  A    between atoms: C_1  and  O_2
REMARK    2  A    between atoms: O_2  and  C_3
REMARK    3  A    between atoms: C_7  and  C_8
REMARK    4  A    between atoms: C_8  and  C_9
REMARK    5  A    between atoms: C_20  and  C_21
REMARK    6  A    between atoms: C_21  and  C_22
REMARK                            x       y       z     vdW  Elec       q    Type
REMARK                         _______ _______ _______ _____ _____    ______ ____
ROOT
ATOM      1  C   UNK A   1       1.190  10.667  19.281  0.00  0.00    +0.000 A 
ATOM      2  C   UNK A   1       1.632  10.211  18.046  0.00  0.00    +0.000 A 
ATOM      3  C   UNK A   1       2.066   8.894  17.885  0.00  0.00    +0.000 A 
ATOM      4  C   UNK A   1       2.046   7.990  18.963  0.00  0.00    +0.000 A 
ATOM      5  C   UNK A   1       2.294   6.581  19.112  0.00  0.00    +0.000 A 
ATOM      6  C   UNK A   1       2.105   6.289  20.459  0.00  0.00    +0.000 A 
ATOM      7  N   UNK A   1       1.787   7.458  21.110  0.00  0.00    +0.000 N 
ATOM      8  C   UNK A   1       1.669   8.493  20.211  0.00  0.00    +0.000 A 
ATOM      9  C   UNK A   1       1.254   9.825  20.400  0.00  0.00    +0.000 A 
ATOM     10  H   UNK A   1       1.611   7.540  22.100  0.00  0.00    +0.000 HD
ENDROOT
BRANCH   1  12
ATOM     11  C   UNK A   1       1.378  12.953  18.728  0.00  0.00    +0.000 C 
ATOM     12  O   UNK A   1       0.715  11.939  19.487  0.00  0.00    +0.000 OA
ENDBRANCH   1  12
BRANCH   5  13
ATOM     13  C   UNK A   1       2.643   5.533  18.082  0.00  0.00    +0.000 C 
BRANCH  13  14
ATOM     14  C   UNK A   1       4.120   5.303  17.758  0.00  0.00    +0.000 C 
ATOM     15  N   UNK A   1       4.810   6.587  17.526  0.00  0.00    +0.000 N 
ATOM     16  C   PRO A   2       6.067   6.661  16.974  0.00  0.00    +0.000 C 
ATOM     17  O   PRO A   2       6.750   7.674  17.080  0.00  0.00    +0.000 OA
ATOM     18  CA  PRO A   2       6.559   5.350  16.365  0.00  0.00    +0.000 C 
ATOM     19  CB  PRO A   2       7.483   5.546  15.166  0.00  0.00    +0.000 C 
ATOM     20  CG  PRO A   2       7.202   4.311  14.312  0.00  0.00    +0.000 C 
ATOM     21  CD  PRO A   2       5.707   4.092  14.491  0.00  0.00    +0.000 C 
ATOM     22  N   PRO A   2       5.437   4.598  15.817  0.00  0.00    +0.000 N 
ATOM     23  C   UNK A   1       4.240   4.433  16.483  0.00  0.00    +0.000 C 
ATOM     24  O   UNK A   1       3.395   3.616  16.131  0.00  0.00    +0.000 OA
ATOM     25  H   UNK A   1       4.535   7.400  18.067  0.00  0.00    +0.000 HD
ENDBRANCH  13  14
ENDBRANCH   5  13
BRANCH   6  26
ATOM     26  C   UNK A   1       2.161   4.967  21.178  0.00  0.00    +0.000 C 
BRANCH  26  27
ATOM     27  C   UNK A   1       2.037   3.763  20.277  0.00  0.00    +0.000 A 
ATOM     28  C   UNK A   1       3.143   2.929  20.031  0.00  0.00    +0.000 A 
ATOM     29  C   UNK A   1       3.014   1.797  19.233  0.00  0.00    +0.000 A 
ATOM     30  C   UNK A   1       1.786   1.468  18.668  0.00  0.00    +0.000 A 
ATOM     31  C   UNK A   1       0.678   2.285  18.906  0.00  0.00    +0.000 A 
ATOM     32  C   UNK A   1       0.804   3.423  19.700  0.00  0.00    +0.000 A 
ENDBRANCH  26  27
ENDBRANCH   6  26
TORSDOF 5
ENDMDL
MODEL 8
REMARK VINA RESULT:      -7.4      3.863      6.495
REMARK  Name = 
REMARK  6 active torsions:
REMARK  status: ('A' for Active; 'I' for Inactive)
REMARK    1  A    between atoms: C_1  and  O_2
REMARK    2  A    between atoms: O_2  and  C_3
REMARK    3  A    between atoms: C_7  and  C_8
REMARK    4  A    between atoms: C_8  and  C_9
REMARK    5  A    between atoms: C_20  and  C_21
REMARK    6  A    between atoms: C_21  and  C_22
REMARK                            x       y       z     vdW  Elec       q    Type
REMARK                         _______ _______ _______ _____ _____    ______ ____
ROOT
ATOM      1  C   UNK A   1       6.623   4.804  14.687  0.00  0.00    +0.000 A 
ATOM      2  C   UNK A   1       6.782   5.944  15.463  0.00  0.00    +0.000 A 
ATOM      3  C   UNK A   1       5.838   6.281  16.435  0.00  0.00    +0.000 A 
ATOM      4  C   UNK A   1       4.715   5.465  16.666  0.00  0.00    +0.000 A 
ATOM      5  C   UNK A   1       3.654   5.449  17.637  0.00  0.00    +0.000 A 
ATOM      6  C   UNK A   1       2.843   4.365  17.315  0.00  0.00    +0.000 A 
ATOM      7  N   UNK A   1       3.359   3.763  16.191  0.00  0.00    +0.000 N 
ATOM      8  C   UNK A   1       4.541   4.365  15.822  0.00  0.00    +0.000 A 
ATOM      9  C   UNK A   1       5.466   4.023  14.818  0.00  0.00    +0.000 A 
ATOM     10  H   UNK A   1       2.962   2.959  15.729  0.00  0.00    +0.000 HD
ENDROOT
BRANCH   1  12
ATOM     11  C   UNK A   1       6.970   3.913  12.530  0.00  0.00    +0.000 C 
ATOM     12  O   UNK A   1       7.540   4.402  13.746  0.00  0.00    +0.000 OA
ENDBRANCH   1  12
BRANCH   5  13
ATOM     13  C   UNK A   1       3.401   6.342  18.828  0.00  0.00    +0.000 C 
BRANCH  13  14
ATOM     14  C   UNK A   1       2.265   7.362  18.738  0.00  0.00    +0.000 C 
ATOM     15  N   UNK A   1       2.739   8.619  18.127  0.00  0.00    +0.000 N 
ATOM     16  C   PRO A   2       2.002   9.779  18.156  0.00  0.00    +0.000 C 
ATOM     17  O   PRO A   2       2.242  10.706  17.390  0.00  0.00    +0.000 OA
ATOM     18  CA  PRO A   2       0.808   9.735  19.107  0.00  0.00    +0.000 C 
ATOM     19  CB  PRO A   2       0.472  11.090  19.723  0.00  0.00    +0.000 C 
ATOM     20  CG  PRO A   2      -0.104  10.712  21.088  0.00  0.00    +0.000 C 
ATOM     21  CD  PRO A   2       0.743   9.520  21.509  0.00  0.00    +0.000 C 
ATOM     22  N   PRO A   2       1.114   8.897  20.260  0.00  0.00    +0.000 N 
ATOM     23  C   UNK A   1       1.731   7.667  20.159  0.00  0.00    +0.000 C 
ATOM     24  O   UNK A   1       1.774   6.870  21.091  0.00  0.00    +0.000 OA
ATOM     25  H   UNK A   1       3.437   8.578  17.392  0.00  0.00    +0.000 HD
ENDBRANCH  13  14
ENDBRANCH   5  13
BRANCH   6  26
ATOM     26  C   UNK A   1       1.629   3.823  18.021  0.00  0.00    +0.000 C 
BRANCH  26  27
ATOM     27  C   UNK A   1       1.904   3.276  19.400  0.00  0.00    +0.000 A 
ATOM     28  C   UNK A   1       3.175   2.774  19.738  0.00  0.00    +0.000 A 
ATOM     29  C   UNK A   1       3.435   2.309  21.023  0.00  0.00    +0.000 A 
ATOM     30  C   UNK A   1       2.443   2.337  21.998  0.00  0.00    +0.000 A 
ATOM     31  C   UNK A   1       1.177   2.835  21.678  0.00  0.00    +0.000 A 
ATOM     32  C   UNK A   1       0.911   3.296  20.390  0.00  0.00    +0.000 A 
ENDBRANCH  26  27
ENDBRANCH   6  26
TORSDOF 5
ENDMDL
MODEL 9
REMARK VINA RESULT:      -7.3      1.960      5.758
REMARK  Name = 
REMARK  6 active torsions:
REMARK  status: ('A' for Active; 'I' for Inactive)
REMARK    1  A    between atoms: C_1  and  O_2
REMARK    2  A    between atoms: O_2  and  C_3
REMARK    3  A    between atoms: C_7  and  C_8
REMARK    4  A    between atoms: C_8  and  C_9
REMARK    5  A    between atoms: C_20  and  C_21
REMARK    6  A    between atoms: C_21  and  C_22
REMARK                            x       y       z     vdW  Elec       q    Type
REMARK                         _______ _______ _______ _____ _____    ______ ____
ROOT
ATOM      1  C   UNK A   1       6.216   4.121  13.643  0.00  0.00    +0.000 A 
ATOM      2  C   UNK A   1       4.942   4.236  14.183  0.00  0.00    +0.000 A 
ATOM      3  C   UNK A   1       4.753   4.767  15.460  0.00  0.00    +0.000 A 
ATOM      4  C   UNK A   1       5.846   5.219  16.223  0.00  0.00    +0.000 A 
ATOM      5  C   UNK A   1       5.993   5.910  17.476  0.00  0.00    +0.000 A 
ATOM      6  C   UNK A   1       7.360   6.065  17.681  0.00  0.00    +0.000 A 
ATOM      7  N   UNK A   1       8.021   5.477  16.627  0.00  0.00    +0.000 N 
ATOM      8  C   UNK A   1       7.122   5.023  15.689  0.00  0.00    +0.000 A 
ATOM      9  C   UNK A   1       7.336   4.465  14.414  0.00  0.00    +0.000 A 
ATOM     10  H   UNK A   1       9.023   5.431  16.525  0.00  0.00    +0.000 HD
ENDROOT
BRANCH   1  12
ATOM     11  C   UNK A   1       5.401   2.852  11.829  0.00  0.00    +0.000 C 
ATOM     12  O   UNK A   1       6.456   3.645  12.378  0.00  0.00    +0.000 OA
ENDBRANCH   1  12
BRANCH   5  13
ATOM     13  C   UNK A   1       4.950   6.446  18.429  0.00  0.00    +0.000 C 
BRANCH  13  14
ATOM     14  C   UNK A   1       4.122   5.442  19.232  0.00  0.00    +0.000 C 
ATOM     15  N   UNK A   1       4.821   4.145  19.327  0.00  0.00    +0.000 N 
ATOM     16  C   PRO A   2       4.199   3.001  19.769  0.00  0.00    +0.000 C 
ATOM     17  O   PRO A   2       4.845   2.030  20.145  0.00  0.00    +0.000 OA
ATOM     18  CA  PRO A   2       2.680   3.118  19.873  0.00  0.00    +0.000 C 
ATOM     19  CB  PRO A   2       1.949   1.805  19.606  0.00  0.00    +0.000 C 
ATOM     20  CG  PRO A   2       0.625   2.267  18.999  0.00  0.00    +0.000 C 
ATOM     21  CD  PRO A   2       1.026   3.466  18.151  0.00  0.00    +0.000 C 
ATOM     22  N   PRO A   2       2.172   4.013  18.840  0.00  0.00    +0.000 N 
ATOM     23  C   UNK A   1       2.756   5.224  18.535  0.00  0.00    +0.000 C 
ATOM     24  O   UNK A   1       2.201   6.071  17.841  0.00  0.00    +0.000 OA
ATOM     25  H   UNK A   1       5.832   4.133  19.399  0.00  0.00    +0.000 HD
ENDBRANCH  13  14
ENDBRANCH   5  13
BRANCH   6  26
ATOM     26  C   UNK A   1       8.097   6.772  18.786  0.00  0.00    +0.000 C 
BRANCH  26  27
ATOM     27  C   UNK A   1       8.285   8.253  18.561  0.00  0.00    +0.000 A 
ATOM     28  C   UNK A   1       9.132   9.008  19.393  0.00  0.00    +0.000 A 
ATOM     29  C   UNK A   1       9.334  10.364  19.156  0.00  0.00    +0.000 A 
ATOM     30  C   UNK A   1       8.703  10.995  18.089  0.00  0.00    +0.000 A 
ATOM     31  C   UNK A   1       7.861  10.258  17.253  0.00  0.00    +0.000 A 
ATOM     32  C   UNK A   1       7.652   8.901  17.490  0.00  0.00    +0.000 A 
ENDBRANCH  26  27
ENDBRANCH   6  26
TORSDOF 5
ENDMDL
