MODEL 1
REMARK VINA RESULT:      -9.4      0.000      0.000
REMARK  Name = 
REMARK  7 active torsions:
REMARK  status: ('A' for Active; 'I' for Inactive)
REMARK    1  A    between atoms: C_2  and  O_3
REMARK    2  A    between atoms: C_2  and  C_4
REMARK    3  A    between atoms: C_4  and  C_5
REMARK    4  A    between atoms: C_5  and  C_6
REMARK    5  A    between atoms: N_8  and  C_9
REMARK    6  A    between atoms: C_17  and  C_18
REMARK    7  A    between atoms: C_19  and  C_20
REMARK                            x       y       z     vdW  Elec       q    Type
REMARK                         _______ _______ _______ _____ _____    ______ ____
ROOT
ATOM      1  C   UNL     1       5.737   5.566  16.579  0.00  0.00    +0.000 C 
ATOM      2  C   UNL     1       5.579   6.988  17.101  0.00  0.00    +0.000 C 
ATOM      3  C   UNL     1       6.996   7.305  17.406  0.00  0.00    +0.000 C 
ATOM      4  N   UNL     1       7.812   6.312  17.296  0.00  0.00    +0.000 NA
ATOM      5  O   UNL     1       7.079   5.181  16.874  0.00  0.00    +0.000 OA
ENDROOT
BRANCH   1   6
ATOM      6  C   UNL     1       4.742   4.670  17.323  0.00  0.00    +0.000 C 
ATOM      7  O   UNL     1       4.243   3.715  16.716  0.00  0.00    +0.000 OA
ATOM      8  N   UNL     1       4.402   5.095  18.593  0.00  0.00    +0.000 N 
ATOM      9  H   UNL     1       4.838   5.953  18.929  0.00  0.00    +0.000 HD
BRANCH   8  10
ATOM     10  C   UNL     1       3.456   4.472  19.436  0.00  0.00    +0.000 A 
ATOM     11  C   UNL     1       2.217   5.051  19.741  0.00  0.00    +0.000 A 
ATOM     12  C   UNL     1       1.348   4.445  20.647  0.00  0.00    +0.000 A 
ATOM     13  C   UNL     1       1.710   3.247  21.241  0.00  0.00    +0.000 A 
ATOM     14  F   UNL     1       0.890   2.682  22.136  0.00  0.00    +0.000 F 
ATOM     15  C   UNL     1       2.913   2.629  20.921  0.00  0.00    +0.000 A 
ATOM     16  C   UNL     1       3.783   3.233  20.006  0.00  0.00    +0.000 A 
ENDBRANCH   8  10
ENDBRANCH   1   6
BRANCH   3  17
ATOM     17  C   UNL     1       7.438   8.651  17.818  0.00  0.00    +0.000 C 
ATOM     18  C   UNL     1       8.634   8.897  18.376  0.00  0.00    +0.000 C 
BRANCH  18  19
ATOM     19  C   UNL     1       9.063  10.233  18.825  0.00  0.00    +0.000 A 
ATOM     20  C   UNL     1       9.007  11.300  17.917  0.00  0.00    +0.000 A 
ATOM     21  C   UNL     1       9.426  12.579  18.290  0.00  0.00    +0.000 A 
ATOM     22  C   UNL     1       9.893  12.811  19.582  0.00  0.00    +0.000 A 
ATOM     23  C   UNL     1       9.924  11.768  20.504  0.00  0.00    +0.000 A 
ATOM     24  C   UNL     1       9.501  10.489  20.131  0.00  0.00    +0.000 A 
ENDBRANCH  18  19
ENDBRANCH   3  17
BRANCH   1  25
ATOM     25  C   UNL     1       5.466   5.492  15.075  0.00  0.00    +0.000 C 
BRANCH  25  27
ATOM     26  O   UNL     1       6.445   3.687  13.815  0.00  0.00    +0.000 OA
ATOM     27  C   UNL     1       6.571   4.791  14.323  0.00  0.00    +0.000 C 
BRANCH  27  28
ATOM     28  O   UNL     1       7.734   5.475  14.268  0.00  0.00    +0.000 OA
ATOM     29  H   UNL     1       7.763   6.176  13.574  0.00  0.00    +0.000 HD
ENDBRANCH  27  28
ENDBRANCH  25  27
ENDBRANCH   1  25
TORSDOF 7
ENDMDL
MODEL 2
REMARK VINA RESULT:      -9.3      0.509      1.197
REMARK  Name = 
REMARK  7 active torsions:
REMARK  status: ('A' for Active; 'I' for Inactive)
REMARK    1  A    between atoms: C_2  and  O_3
REMARK    2  A    between atoms: C_2  and  C_4
REMARK    3  A    between atoms: C_4  and  C_5
REMARK    4  A    between atoms: C_5  and  C_6
REMARK    5  A    between atoms: N_8  and  C_9
REMARK    6  A    between atoms: C_17  and  C_18
REMARK    7  A    between atoms: C_19  and  C_20
REMARK                            x       y       z     vdW  Elec       q    Type
REMARK                         _______ _______ _______ _____ _____    ______ ____
ROOT
ATOM      1  C   UNL     1       5.828   5.360  16.756  0.00  0.00    +0.000 C 
ATOM      2  C   UNL     1       5.943   6.721  17.430  0.00  0.00    +0.000 C 
ATOM      3  C   UNL     1       7.388   6.715  17.766  0.00  0.00    +0.000 C 
ATOM      4  N   UNL     1       7.994   5.597  17.548  0.00  0.00    +0.000 NA
ATOM      5  O   UNL     1       7.061   4.686  17.007  0.00  0.00    +0.000 OA
ENDROOT
BRANCH   1   6
ATOM      6  C   UNL     1       4.660   4.605  17.399  0.00  0.00    +0.000 C 
ATOM      7  O   UNL     1       3.845   4.042  16.659  0.00  0.00    +0.000 OA
ATOM      8  N   UNL     1       4.564   4.728  18.772  0.00  0.00    +0.000 N 
ATOM      9  H   UNL     1       5.270   5.296  19.239  0.00  0.00    +0.000 HD
BRANCH   8  10
ATOM     10  C   UNL     1       3.535   4.182  19.570  0.00  0.00    +0.000 A 
ATOM     11  C   UNL     1       2.340   4.864  19.835  0.00  0.00    +0.000 A 
ATOM     12  C   UNL     1       1.387   4.328  20.700  0.00  0.00    +0.000 A 
ATOM     13  C   UNL     1       1.620   3.097  21.291  0.00  0.00    +0.000 A 
ATOM     14  F   UNL     1       0.720   2.597  22.147  0.00  0.00    +0.000 F 
ATOM     15  C   UNL     1       2.777   2.379  21.009  0.00  0.00    +0.000 A 
ATOM     16  C   UNL     1       3.731   2.914  20.136  0.00  0.00    +0.000 A 
ENDBRANCH   8  10
ENDBRANCH   1   6
BRANCH   3  17
ATOM     17  C   UNL     1       8.080   7.895  18.322  0.00  0.00    +0.000 C 
ATOM     18  C   UNL     1       7.993   9.122  17.786  0.00  0.00    +0.000 C 
BRANCH  18  19
ATOM     19  C   UNL     1       8.713  10.294  18.315  0.00  0.00    +0.000 A 
ATOM     20  C   UNL     1       9.474  10.146  19.484  0.00  0.00    +0.000 A 
ATOM     21  C   UNL     1      10.154  11.234  20.036  0.00  0.00    +0.000 A 
ATOM     22  C   UNL     1      10.094  12.480  19.417  0.00  0.00    +0.000 A 
ATOM     23  C   UNL     1       9.369  12.634  18.238  0.00  0.00    +0.000 A 
ATOM     24  C   UNL     1       8.691  11.545  17.685  0.00  0.00    +0.000 A 
ENDBRANCH  18  19
ENDBRANCH   3  17
BRANCH   1  25
ATOM     25  C   UNL     1       5.579   5.502  15.253  0.00  0.00    +0.000 C 
BRANCH  25  27
ATOM     26  O   UNL     1       7.571   5.374  13.904  0.00  0.00    +0.000 OA
ATOM     27  C   UNL     1       6.627   4.800  14.426  0.00  0.00    +0.000 C 
BRANCH  27  28
ATOM     28  O   UNL     1       6.433   3.471  14.284  0.00  0.00    +0.000 OA
ATOM     29  H   UNL     1       5.487   3.192  14.298  0.00  0.00    +0.000 HD
ENDBRANCH  27  28
ENDBRANCH  25  27
ENDBRANCH   1  25
TORSDOF 7
ENDMDL
MODEL 3
REMARK VINA RESULT:      -9.1      0.539      1.216
REMARK  Name = 
REMARK  7 active torsions:
REMARK  status: ('A' for Active; 'I' for Inactive)
REMARK    1  A    between atoms: C_2  and  O_3
REMARK    2  A    between atoms: C_2  and  C_4
REMARK    3  A    between atoms: C_4  and  C_5
REMARK    4  A    between atoms: C_5  and  C_6
REMARK    5  A    between atoms: N_8  and  C_9
REMARK    6  A    between atoms: C_17  and  C_18
REMARK    7  A    between atoms: C_19  and  C_20
REMARK                            x       y       z     vdW  Elec       q    Type
REMARK                         _______ _______ _______ _____ _____    ______ ____
ROOT
ATOM      1  C   UNL     1       5.869   5.370  16.792  0.00  0.00    +0.000 C 
ATOM      2  C   UNL     1       6.012   6.712  17.496  0.00  0.00    +0.000 C 
ATOM      3  C   UNL     1       7.474   6.713  17.747  0.00  0.00    +0.000 C 
ATOM      4  N   UNL     1       8.076   5.608  17.462  0.00  0.00    +0.000 NA
ATOM      5  O   UNL     1       7.121   4.703  16.950  0.00  0.00    +0.000 OA
ENDROOT
BRANCH   1   6
ATOM      6  C   UNL     1       4.749   4.584  17.481  0.00  0.00    +0.000 C 
ATOM      7  O   UNL     1       3.963   3.940  16.776  0.00  0.00    +0.000 OA
ATOM      8  N   UNL     1       4.652   4.771  18.846  0.00  0.00    +0.000 N 
ATOM      9  H   UNL     1       5.327   5.401  19.279  0.00  0.00    +0.000 HD
BRANCH   8  10
ATOM     10  C   UNL     1       3.659   4.209  19.678  0.00  0.00    +0.000 A 
ATOM     11  C   UNL     1       3.762   2.917  20.211  0.00  0.00    +0.000 A 
ATOM     12  C   UNL     1       2.720   2.365  20.955  0.00  0.00    +0.000 A 
ATOM     13  C   UNL     1       1.575   3.112  21.182  0.00  0.00    +0.000 A 
ATOM     14  F   UNL     1       0.561   2.570  21.868  0.00  0.00    +0.000 F 
ATOM     15  C   UNL     1       1.467   4.413  20.703  0.00  0.00    +0.000 A 
ATOM     16  C   UNL     1       2.516   4.969  19.962  0.00  0.00    +0.000 A 
ENDBRANCH   8  10
ENDBRANCH   1   6
BRANCH   3  17
ATOM     17  C   UNL     1       8.186   7.884  18.295  0.00  0.00    +0.000 C 
ATOM     18  C   UNL     1       8.006   9.135  17.844  0.00  0.00    +0.000 C 
BRANCH  18  19
ATOM     19  C   UNL     1       8.744  10.301  18.362  0.00  0.00    +0.000 A 
ATOM     20  C   UNL     1       8.677  11.509  17.654  0.00  0.00    +0.000 A 
ATOM     21  C   UNL     1       9.380  12.634  18.093  0.00  0.00    +0.000 A 
ATOM     22  C   UNL     1      10.147  12.568  19.254  0.00  0.00    +0.000 A 
ATOM     23  C   UNL     1      10.197  11.384  19.984  0.00  0.00    +0.000 A 
ATOM     24  C   UNL     1       9.491  10.260  19.546  0.00  0.00    +0.000 A 
ENDBRANCH  18  19
ENDBRANCH   3  17
BRANCH   1  25
ATOM     25  C   UNL     1       5.530   5.552  15.311  0.00  0.00    +0.000 C 
BRANCH  25  27
ATOM     26  O   UNL     1       7.313   5.271  13.714  0.00  0.00    +0.000 OA
ATOM     27  C   UNL     1       6.446   4.761  14.408  0.00  0.00    +0.000 C 
BRANCH  27  28
ATOM     28  O   UNL     1       6.220   3.430  14.408  0.00  0.00    +0.000 OA
ATOM     29  H   UNL     1       5.405   3.153  13.926  0.00  0.00    +0.000 HD
ENDBRANCH  27  28
ENDBRANCH  25  27
ENDBRANCH   1  25
TORSDOF 7
ENDMDL
MODEL 4
REMARK VINA RESULT:      -8.8      1.360      1.875
REMARK  Name = 
REMARK  7 active torsions:
REMARK  status: ('A' for Active; 'I' for Inactive)
REMARK    1  A    between atoms: C_2  and  O_3
REMARK    2  A    between atoms: C_2  and  C_4
REMARK    3  A    between atoms: C_4  and  C_5
REMARK    4  A    between atoms: C_5  and  C_6
REMARK    5  A    between atoms: N_8  and  C_9
REMARK    6  A    between atoms: C_17  and  C_18
REMARK    7  A    between atoms: C_19  and  C_20
REMARK                            x       y       z     vdW  Elec       q    Type
REMARK                         _______ _______ _______ _____ _____    ______ ____
ROOT
ATOM      1  C   UNL     1       6.668   5.518  17.419  0.00  0.00    +0.000 C 
ATOM      2  C   UNL     1       6.741   6.967  16.956  0.00  0.00    +0.000 C 
ATOM      3  C   UNL     1       7.717   7.498  17.939  0.00  0.00    +0.000 C 
ATOM      4  N   UNL     1       8.038   6.681  18.884  0.00  0.00    +0.000 NA
ATOM      5  O   UNL     1       7.352   5.466  18.671  0.00  0.00    +0.000 OA
ENDROOT
BRANCH   1   6
ATOM      6  C   UNL     1       5.193   5.145  17.594  0.00  0.00    +0.000 C 
ATOM      7  O   UNL     1       4.342   5.816  17.000  0.00  0.00    +0.000 OA
ATOM      8  N   UNL     1       4.944   4.144  18.514  0.00  0.00    +0.000 N 
ATOM      9  H   UNL     1       5.749   3.737  18.989  0.00  0.00    +0.000 HD
BRANCH   8  10
ATOM     10  C   UNL     1       3.664   3.683  18.892  0.00  0.00    +0.000 A 
ATOM     11  C   UNL     1       2.999   2.655  18.211  0.00  0.00    +0.000 A 
ATOM     12  C   UNL     1       1.699   2.289  18.559  0.00  0.00    +0.000 A 
ATOM     13  C   UNL     1       1.065   2.942  19.603  0.00  0.00    +0.000 A 
ATOM     14  F   UNL     1      -0.195   2.614  19.917  0.00  0.00    +0.000 F 
ATOM     15  C   UNL     1       1.720   3.935  20.325  0.00  0.00    +0.000 A 
ATOM     16  C   UNL     1       3.027   4.297  19.979  0.00  0.00    +0.000 A 
ENDBRANCH   8  10
ENDBRANCH   1   6
BRANCH   3  17
ATOM     17  C   UNL     1       8.270   8.864  17.851  0.00  0.00    +0.000 C 
ATOM     18  C   UNL     1       8.907   9.469  18.866  0.00  0.00    +0.000 C 
BRANCH  18  19
ATOM     19  C   UNL     1       9.425  10.847  18.795  0.00  0.00    +0.000 A 
ATOM     20  C   UNL     1      10.446  11.229  19.676  0.00  0.00    +0.000 A 
ATOM     21  C   UNL     1      10.952  12.532  19.663  0.00  0.00    +0.000 A 
ATOM     22  C   UNL     1      10.452  13.464  18.758  0.00  0.00    +0.000 A 
ATOM     23  C   UNL     1       9.460  13.090  17.854  0.00  0.00    +0.000 A 
ATOM     24  C   UNL     1       8.957  11.786  17.866  0.00  0.00    +0.000 A 
ENDBRANCH  18  19
ENDBRANCH   3  17
BRANCH   1  25
ATOM     25  C   UNL     1       7.316   4.576  16.403  0.00  0.00    +0.000 C 
BRANCH  25  27
ATOM     26  O   UNL     1       7.796   5.538  14.247  0.00  0.00    +0.000 OA
ATOM     27  C   UNL     1       7.005   4.961  14.978  0.00  0.00    +0.000 C 
BRANCH  27  28
ATOM     28  O   UNL     1       5.760   4.635  14.568  0.00  0.00    +0.000 OA
ATOM     29  H   UNL     1       5.122   5.387  14.560  0.00  0.00    +0.000 HD
ENDBRANCH  27  28
ENDBRANCH  25  27
ENDBRANCH   1  25
TORSDOF 7
ENDMDL
MODEL 5
REMARK VINA RESULT:      -8.8      1.079      1.402
REMARK  Name = 
REMARK  7 active torsions:
REMARK  status: ('A' for Active; 'I' for Inactive)
REMARK    1  A    between atoms: C_2  and  O_3
REMARK    2  A    between atoms: C_2  and  C_4
REMARK    3  A    between atoms: C_4  and  C_5
REMARK    4  A    between atoms: C_5  and  C_6
REMARK    5  A    between atoms: N_8  and  C_9
REMARK    6  A    between atoms: C_17  and  C_18
REMARK    7  A    between atoms: C_19  and  C_20
REMARK                            x       y       z     vdW  Elec       q    Type
REMARK                         _______ _______ _______ _____ _____    ______ ____
ROOT
ATOM      1  C   UNL     1       5.635   6.148  16.890  0.00  0.00    +0.000 C 
ATOM      2  C   UNL     1       5.885   7.635  17.105  0.00  0.00    +0.000 C 
ATOM      3  C   UNL     1       7.318   7.599  17.487  0.00  0.00    +0.000 C 
ATOM      4  N   UNL     1       7.807   6.417  17.657  0.00  0.00    +0.000 NA
ATOM      5  O   UNL     1       6.790   5.475  17.391  0.00  0.00    +0.000 OA
ENDROOT
BRANCH   1   6
ATOM      6  C   UNL     1       4.390   5.751  17.687  0.00  0.00    +0.000 C 
ATOM      7  O   UNL     1       3.561   6.627  17.959  0.00  0.00    +0.000 OA
ATOM      8  N   UNL     1       4.371   4.444  18.137  0.00  0.00    +0.000 N 
ATOM      9  H   UNL     1       5.171   3.859  17.900  0.00  0.00    +0.000 HD
BRANCH   8  10
ATOM     10  C   UNL     1       3.364   3.875  18.947  0.00  0.00    +0.000 A 
ATOM     11  C   UNL     1       2.115   3.489  18.442  0.00  0.00    +0.000 A 
ATOM     12  C   UNL     1       1.117   3.013  19.290  0.00  0.00    +0.000 A 
ATOM     13  C   UNL     1       1.370   2.907  20.648  0.00  0.00    +0.000 A 
ATOM     14  F   UNL     1       0.401   2.481  21.468  0.00  0.00    +0.000 F 
ATOM     15  C   UNL     1       2.616   3.239  21.168  0.00  0.00    +0.000 A 
ATOM     16  C   UNL     1       3.621   3.711  20.316  0.00  0.00    +0.000 A 
ENDBRANCH   8  10
ENDBRANCH   1   6
BRANCH   3  17
ATOM     17  C   UNL     1       8.122   8.823  17.672  0.00  0.00    +0.000 C 
ATOM     18  C   UNL     1       8.677   9.171  18.843  0.00  0.00    +0.000 C 
BRANCH  18  19
ATOM     19  C   UNL     1       9.447  10.412  19.042  0.00  0.00    +0.000 A 
ATOM     20  C   UNL     1       9.661  10.870  20.349  0.00  0.00    +0.000 A 
ATOM     21  C   UNL     1      10.364  12.055  20.585  0.00  0.00    +0.000 A 
ATOM     22  C   UNL     1      10.874  12.787  19.517  0.00  0.00    +0.000 A 
ATOM     23  C   UNL     1      10.698  12.326  18.214  0.00  0.00    +0.000 A 
ATOM     24  C   UNL     1       9.997  11.140  17.979  0.00  0.00    +0.000 A 
ENDBRANCH  18  19
ENDBRANCH   3  17
BRANCH   1  25
ATOM     25  C   UNL     1       5.417   5.830  15.409  0.00  0.00    +0.000 C 
BRANCH  25  27
ATOM     26  O   UNL     1       6.188   3.686  14.623  0.00  0.00    +0.000 OA
ATOM     27  C   UNL     1       6.437   4.856  14.872  0.00  0.00    +0.000 C 
BRANCH  27  28
ATOM     28  O   UNL     1       7.673   5.375  14.701  0.00  0.00    +0.000 OA
ATOM     29  H   UNL     1       8.230   5.379  15.515  0.00  0.00    +0.000 HD
ENDBRANCH  27  28
ENDBRANCH  25  27
ENDBRANCH   1  25
TORSDOF 7
ENDMDL
MODEL 6
REMARK VINA RESULT:      -8.8      1.159      1.385
REMARK  Name = 
REMARK  7 active torsions:
REMARK  status: ('A' for Active; 'I' for Inactive)
REMARK    1  A    between atoms: C_2  and  O_3
REMARK    2  A    between atoms: C_2  and  C_4
REMARK    3  A    between atoms: C_4  and  C_5
REMARK    4  A    between atoms: C_5  and  C_6
REMARK    5  A    between atoms: N_8  and  C_9
REMARK    6  A    between atoms: C_17  and  C_18
REMARK    7  A    between atoms: C_19  and  C_20
REMARK                            x       y       z     vdW  Elec       q    Type
REMARK                         _______ _______ _______ _____ _____    ______ ____
ROOT
ATOM      1  C   UNL     1       6.653   5.519  17.519  0.00  0.00    +0.000 C 
ATOM      2  C   UNL     1       6.652   6.955  17.013  0.00  0.00    +0.000 C 
ATOM      3  C   UNL     1       7.717   7.528  17.872  0.00  0.00    +0.000 C 
ATOM      4  N   UNL     1       8.151   6.742  18.799  0.00  0.00    +0.000 NA
ATOM      5  O   UNL     1       7.467   5.512  18.691  0.00  0.00    +0.000 OA
ENDROOT
BRANCH   1   6
ATOM      6  C   UNL     1       5.212   5.129  17.859  0.00  0.00    +0.000 C 
ATOM      7  O   UNL     1       4.302   5.553  17.138  0.00  0.00    +0.000 OA
ATOM      8  N   UNL     1       5.056   4.422  19.036  0.00  0.00    +0.000 N 
ATOM      9  H   UNL     1       5.899   4.214  19.570  0.00  0.00    +0.000 HD
BRANCH   8  10
ATOM     10  C   UNL     1       3.821   4.017  19.587  0.00  0.00    +0.000 A 
ATOM     11  C   UNL     1       2.963   4.903  20.254  0.00  0.00    +0.000 A 
ATOM     12  C   UNL     1       1.794   4.447  20.861  0.00  0.00    +0.000 A 
ATOM     13  C   UNL     1       1.470   3.102  20.789  0.00  0.00    +0.000 A 
ATOM     14  F   UNL     1       0.364   2.658  21.400  0.00  0.00    +0.000 F 
ATOM     15  C   UNL     1       2.280   2.210  20.094  0.00  0.00    +0.000 A 
ATOM     16  C   UNL     1       3.450   2.670  19.479  0.00  0.00    +0.000 A 
ENDBRANCH   8  10
ENDBRANCH   1   6
BRANCH   3  17
ATOM     17  C   UNL     1       8.234   8.899  17.690  0.00  0.00    +0.000 C 
ATOM     18  C   UNL     1       8.891   9.573  18.646  0.00  0.00    +0.000 C 
BRANCH  18  19
ATOM     19  C   UNL     1       9.372  10.956  18.483  0.00  0.00    +0.000 A 
ATOM     20  C   UNL     1       8.544  11.886  17.839  0.00  0.00    +0.000 A 
ATOM     21  C   UNL     1       8.968  13.202  17.639  0.00  0.00    +0.000 A 
ATOM     22  C   UNL     1      10.220  13.608  18.093  0.00  0.00    +0.000 A 
ATOM     23  C   UNL     1      11.040  12.703  18.764  0.00  0.00    +0.000 A 
ATOM     24  C   UNL     1      10.614  11.388  18.966  0.00  0.00    +0.000 A 
ENDBRANCH  18  19
ENDBRANCH   3  17
BRANCH   1  25
ATOM     25  C   UNL     1       7.207   4.558  16.464  0.00  0.00    +0.000 C 
BRANCH  25  27
ATOM     26  O   UNL     1       7.772   5.572  14.352  0.00  0.00    +0.000 OA
ATOM     27  C   UNL     1       6.934   5.028  15.056  0.00  0.00    +0.000 C 
BRANCH  27  28
ATOM     28  O   UNL     1       5.670   4.818  14.629  0.00  0.00    +0.000 OA
ATOM     29  H   UNL     1       5.547   3.989  14.108  0.00  0.00    +0.000 HD
ENDBRANCH  27  28
ENDBRANCH  25  27
ENDBRANCH   1  25
TORSDOF 7
ENDMDL
MODEL 7
REMARK VINA RESULT:      -8.8      0.992      1.134
REMARK  Name = 
REMARK  7 active torsions:
REMARK  status: ('A' for Active; 'I' for Inactive)
REMARK    1  A    between atoms: C_2  and  O_3
REMARK    2  A    between atoms: C_2  and  C_4
REMARK    3  A    between atoms: C_4  and  C_5
REMARK    4  A    between atoms: C_5  and  C_6
REMARK    5  A    between atoms: N_8  and  C_9
REMARK    6  A    between atoms: C_17  and  C_18
REMARK    7  A    between atoms: C_19  and  C_20
REMARK                            x       y       z     vdW  Elec       q    Type
REMARK                         _______ _______ _______ _____ _____    ______ ____
ROOT
ATOM      1  C   UNL     1       5.705   6.049  17.075  0.00  0.00    +0.000 C 
ATOM      2  C   UNL     1       5.926   7.550  17.209  0.00  0.00    +0.000 C 
ATOM      3  C   UNL     1       7.351   7.561  17.620  0.00  0.00    +0.000 C 
ATOM      4  N   UNL     1       7.856   6.400  17.868  0.00  0.00    +0.000 NA
ATOM      5  O   UNL     1       6.860   5.426  17.637  0.00  0.00    +0.000 OA
ENDROOT
BRANCH   1   6
ATOM      6  C   UNL     1       4.450   5.676  17.870  0.00  0.00    +0.000 C 
ATOM      7  O   UNL     1       3.567   6.530  18.010  0.00  0.00    +0.000 OA
ATOM      8  N   UNL     1       4.481   4.430  18.467  0.00  0.00    +0.000 N 
ATOM      9  H   UNL     1       5.319   3.867  18.327  0.00  0.00    +0.000 HD
BRANCH   8  10
ATOM     10  C   UNL     1       3.473   3.901  19.303  0.00  0.00    +0.000 A 
ATOM     11  C   UNL     1       2.128   4.284  19.201  0.00  0.00    +0.000 A 
ATOM     12  C   UNL     1       1.178   3.806  20.102  0.00  0.00    +0.000 A 
ATOM     13  C   UNL     1       1.568   2.929  21.101  0.00  0.00    +0.000 A 
ATOM     14  F   UNL     1       0.662   2.495  21.987  0.00  0.00    +0.000 F 
ATOM     15  C   UNL     1       2.886   2.498  21.196  0.00  0.00    +0.000 A 
ATOM     16  C   UNL     1       3.839   2.973  20.287  0.00  0.00    +0.000 A 
ENDBRANCH   8  10
ENDBRANCH   1   6
BRANCH   3  17
ATOM     17  C   UNL     1       8.131   8.807  17.750  0.00  0.00    +0.000 C 
ATOM     18  C   UNL     1       8.768   9.166  18.876  0.00  0.00    +0.000 C 
BRANCH  18  19
ATOM     19  C   UNL     1       9.514  10.428  19.021  0.00  0.00    +0.000 A 
ATOM     20  C   UNL     1       9.988  11.068  17.867  0.00  0.00    +0.000 A 
ATOM     21  C   UNL     1      10.721  12.254  17.958  0.00  0.00    +0.000 A 
ATOM     22  C   UNL     1      10.977  12.822  19.203  0.00  0.00    +0.000 A 
ATOM     23  C   UNL     1      10.484  12.215  20.356  0.00  0.00    +0.000 A 
ATOM     24  C   UNL     1       9.749  11.030  20.264  0.00  0.00    +0.000 A 
ENDBRANCH  18  19
ENDBRANCH   3  17
BRANCH   1  25
ATOM     25  C   UNL     1       5.523   5.642  15.611  0.00  0.00    +0.000 C 
BRANCH  25  27
ATOM     26  O   UNL     1       7.595   5.157  14.480  0.00  0.00    +0.000 OA
ATOM     27  C   UNL     1       6.635   4.750  15.117  0.00  0.00    +0.000 C 
BRANCH  27  28
ATOM     28  O   UNL     1       6.480   3.442  15.418  0.00  0.00    +0.000 OA
ATOM     29  H   UNL     1       6.564   3.231  16.378  0.00  0.00    +0.000 HD
ENDBRANCH  27  28
ENDBRANCH  25  27
ENDBRANCH   1  25
TORSDOF 7
ENDMDL
MODEL 8
REMARK VINA RESULT:      -8.7      1.464      1.656
REMARK  Name = 
REMARK  7 active torsions:
REMARK  status: ('A' for Active; 'I' for Inactive)
REMARK    1  A    between atoms: C_2  and  O_3
REMARK    2  A    between atoms: C_2  and  C_4
REMARK    3  A    between atoms: C_4  and  C_5
REMARK    4  A    between atoms: C_5  and  C_6
REMARK    5  A    between atoms: N_8  and  C_9
REMARK    6  A    between atoms: C_17  and  C_18
REMARK    7  A    between atoms: C_19  and  C_20
REMARK                            x       y       z     vdW  Elec       q    Type
REMARK                         _______ _______ _______ _____ _____    ______ ____
ROOT
ATOM      1  C   UNL     1       6.674   5.563  17.523  0.00  0.00    +0.000 C 
ATOM      2  C   UNL     1       6.775   6.992  17.007  0.00  0.00    +0.000 C 
ATOM      3  C   UNL     1       7.785   7.532  17.950  0.00  0.00    +0.000 C 
ATOM      4  N   UNL     1       8.104   6.740  18.918  0.00  0.00    +0.000 NA
ATOM      5  O   UNL     1       7.382   5.538  18.762  0.00  0.00    +0.000 OA
ENDROOT
BRANCH   1   6
ATOM      6  C   UNL     1       5.194   5.236  17.740  0.00  0.00    +0.000 C 
ATOM      7  O   UNL     1       4.350   6.074  17.401  0.00  0.00    +0.000 OA
ATOM      8  N   UNL     1       4.945   4.057  18.418  0.00  0.00    +0.000 N 
ATOM      9  H   UNL     1       5.753   3.507  18.707  0.00  0.00    +0.000 HD
BRANCH   8  10
ATOM     10  C   UNL     1       3.668   3.587  18.793  0.00  0.00    +0.000 A 
ATOM     11  C   UNL     1       2.933   2.688  18.008  0.00  0.00    +0.000 A 
ATOM     12  C   UNL     1       1.638   2.315  18.369  0.00  0.00    +0.000 A 
ATOM     13  C   UNL     1       1.080   2.831  19.527  0.00  0.00    +0.000 A 
ATOM     14  F   UNL     1      -0.175   2.499  19.857  0.00  0.00    +0.000 F 
ATOM     15  C   UNL     1       1.805   3.688  20.347  0.00  0.00    +0.000 A 
ATOM     16  C   UNL     1       3.107   4.057  19.988  0.00  0.00    +0.000 A 
ENDBRANCH   8  10
ENDBRANCH   1   6
BRANCH   3  17
ATOM     17  C   UNL     1       8.371   8.879  17.803  0.00  0.00    +0.000 C 
ATOM     18  C   UNL     1       8.914   9.563  18.821  0.00  0.00    +0.000 C 
BRANCH  18  19
ATOM     19  C   UNL     1       9.464  10.923  18.686  0.00  0.00    +0.000 A 
ATOM     20  C   UNL     1       8.784  11.848  17.881  0.00  0.00    +0.000 A 
ATOM     21  C   UNL     1       9.280  13.142  17.704  0.00  0.00    +0.000 A 
ATOM     22  C   UNL     1      10.456  13.532  18.341  0.00  0.00    +0.000 A 
ATOM     23  C   UNL     1      11.124  12.634  19.169  0.00  0.00    +0.000 A 
ATOM     24  C   UNL     1      10.626  11.341  19.349  0.00  0.00    +0.000 A 
ENDBRANCH  18  19
ENDBRANCH   3  17
BRANCH   1  25
ATOM     25  C   UNL     1       7.277   4.569  16.529  0.00  0.00    +0.000 C 
BRANCH  25  27
ATOM     26  O   UNL     1       5.813   4.598  14.615  0.00  0.00    +0.000 OA
ATOM     27  C   UNL     1       6.898   4.879  15.101  0.00  0.00    +0.000 C 
BRANCH  27  28
ATOM     28  O   UNL     1       7.869   5.482  14.382  0.00  0.00    +0.000 OA
ATOM     29  H   UNL     1       7.560   5.888  13.538  0.00  0.00    +0.000 HD
ENDBRANCH  27  28
ENDBRANCH  25  27
ENDBRANCH   1  25
TORSDOF 7
ENDMDL
MODEL 9
REMARK VINA RESULT:      -8.7      1.827      2.349
REMARK  Name = 
REMARK  7 active torsions:
REMARK  status: ('A' for Active; 'I' for Inactive)
REMARK    1  A    between atoms: C_2  and  O_3
REMARK    2  A    between atoms: C_2  and  C_4
REMARK    3  A    between atoms: C_4  and  C_5
REMARK    4  A    between atoms: C_5  and  C_6
REMARK    5  A    between atoms: N_8  and  C_9
REMARK    6  A    between atoms: C_17  and  C_18
REMARK    7  A    between atoms: C_19  and  C_20
REMARK                            x       y       z     vdW  Elec       q    Type
REMARK                         _______ _______ _______ _____ _____    ______ ____
ROOT
ATOM      1  C   UNL     1       6.899   5.624  17.949  0.00  0.00    +0.000 C 
ATOM      2  C   UNL     1       6.754   7.017  17.350  0.00  0.00    +0.000 C 
ATOM      3  C   UNL     1       7.889   7.699  18.017  0.00  0.00    +0.000 C 
ATOM      4  N   UNL     1       8.483   7.006  18.929  0.00  0.00    +0.000 NA
ATOM      5  O   UNL     1       7.858   5.742  19.000  0.00  0.00    +0.000 OA
ENDROOT
BRANCH   1   6
ATOM      6  C   UNL     1       5.538   5.197  18.506  0.00  0.00    +0.000 C 
ATOM      7  O   UNL     1       5.209   5.600  19.628  0.00  0.00    +0.000 OA
ATOM      8  N   UNL     1       4.845   4.286  17.732  0.00  0.00    +0.000 N 
ATOM      9  H   UNL     1       5.284   3.983  16.864  0.00  0.00    +0.000 HD
BRANCH   8  10
ATOM     10  C   UNL     1       3.607   3.699  18.075  0.00  0.00    +0.000 A 
ATOM     11  C   UNL     1       3.508   2.425  18.651  0.00  0.00    +0.000 A 
ATOM     12  C   UNL     1       2.264   1.845  18.893  0.00  0.00    +0.000 A 
ATOM     13  C   UNL     1       1.112   2.545  18.574  0.00  0.00    +0.000 A 
ATOM     14  F   UNL     1      -0.083   1.974  18.777  0.00  0.00    +0.000 F 
ATOM     15  C   UNL     1       1.182   3.829  18.045  0.00  0.00    +0.000 A 
ATOM     16  C   UNL     1       2.431   4.414  17.808  0.00  0.00    +0.000 A 
ENDBRANCH   8  10
ENDBRANCH   1   6
BRANCH   3  17
ATOM     17  C   UNL     1       8.302   9.074  17.674  0.00  0.00    +0.000 C 
ATOM     18  C   UNL     1       9.031   9.852  18.489  0.00  0.00    +0.000 C 
BRANCH  18  19
ATOM     19  C   UNL     1       9.412  11.238  18.167  0.00  0.00    +0.000 A 
ATOM     20  C   UNL     1       8.437  12.242  18.257  0.00  0.00    +0.000 A 
ATOM     21  C   UNL     1       8.745  13.567  17.937  0.00  0.00    +0.000 A 
ATOM     22  C   UNL     1      10.035  13.907  17.538  0.00  0.00    +0.000 A 
ATOM     23  C   UNL     1      11.021  12.925  17.476  0.00  0.00    +0.000 A 
ATOM     24  C   UNL     1      10.714  11.601  17.798  0.00  0.00    +0.000 A 
ENDBRANCH  18  19
ENDBRANCH   3  17
BRANCH   1  25
ATOM     25  C   UNL     1       7.362   4.612  16.899  0.00  0.00    +0.000 C 
BRANCH  25  27
ATOM     26  O   UNL     1       7.816   5.641  14.768  0.00  0.00    +0.000 OA
ATOM     27  C   UNL     1       7.031   5.048  15.492  0.00  0.00    +0.000 C 
BRANCH  27  28
ATOM     28  O   UNL     1       5.776   4.749  15.092  0.00  0.00    +0.000 OA
ATOM     29  H   UNL     1       5.067   5.073  15.697  0.00  0.00    +0.000 HD
ENDBRANCH  27  28
ENDBRANCH  25  27
ENDBRANCH   1  25
TORSDOF 7
ENDMDL
