MODEL 1
REMARK VINA RESULT:      -7.2      0.000      0.000
REMARK  Name = 
REMARK  17 active torsions:
REMARK  status: ('A' for Active; 'I' for Inactive)
REMARK    1  A    between atoms: C_1  and  N_2
REMARK    2  A    between atoms: N_2  and  C_3
REMARK    3  A    between atoms: C_3  and  C_4
REMARK    4  A    between atoms: C_3  and  C_5
REMARK    5  A    between atoms: C_8  and  N_9
REMARK    6  A    between atoms: C_10  and  O_11
REMARK    7  A    between atoms: O_11  and  C_12
REMARK    8  A    between atoms: C_13  and  N_14
REMARK    9  A    between atoms: C_16  and  N_17
REMARK   10  A    between atoms: C_18  and  O_19
REMARK   11  A    between atoms: O_19  and  C_20
REMARK   12  A    between atoms: C_23  and  C_24
REMARK   13  A    between atoms: C_23  and  O_25
REMARK   14  A    between atoms: C_26  and  N_27
REMARK   15  A    between atoms: N_27  and  C_28
REMARK   16  A    between atoms: C_29  and  O_30
REMARK   17  A    between atoms: C_31  and  O_32
REMARK                            x       y       z     vdW  Elec       q    Type
REMARK                         _______ _______ _______ _____ _____    ______ ____
ROOT
ATOM      1  C   UNL     1       3.436   3.185  17.954  0.00  0.00    +0.000 C 
ATOM      2  C   UNL     1       2.902   1.937  18.726  0.00  0.00    +0.000 C 
ATOM      3  C   UNL     1       2.613   2.254  20.201  0.00  0.00    +0.000 C 
ATOM      4  C   UNL     1       1.719   3.503  20.435  0.00  0.00    +0.000 C 
ATOM      5  C   UNL     1       2.215   4.738  19.610  0.00  0.00    +0.000 C 
ATOM      6  C   UNL     1       2.369   4.320  18.106  0.00  0.00    +0.000 C 
ENDROOT
BRANCH   2   7
ATOM      7  N   UNL     1       3.727   0.726  18.613  0.00  0.00    +0.000 NA
ATOM      8  H   UNL     1       4.714   0.940  18.518  0.00  0.00    +0.000 HD
ATOM      9  H   UNL     1       3.428   0.130  17.845  0.00  0.00    +0.000 HD
ENDBRANCH   2   7
BRANCH   4  10
ATOM     10  N   UNL     1       0.306   3.160  20.179  0.00  0.00    +0.000 NA
ATOM     11  H   UNL     1       0.275   2.507  19.386  0.00  0.00    +0.000 HD
ATOM     12  H   UNL     1      -0.164   3.986  19.802  0.00  0.00    +0.000 HD
ENDBRANCH   4  10
BRANCH   6  13
ATOM     13  O   UNL     1       1.099   3.885  17.569  0.00  0.00    +0.000 OA
ATOM     14  H   UNL     1       0.587   4.669  17.303  0.00  0.00    +0.000 HD
ENDBRANCH   6  13
BRANCH   1  15
ATOM     15  O   UNL     1       4.689   3.730  18.389  0.00  0.00    +0.000 OA
BRANCH  15  20
ATOM     16  C   UNL     1       7.287   4.927  16.105  0.00  0.00    +0.000 C 
ATOM     17  C   UNL     1       7.770   6.191  16.823  0.00  0.00    +0.000 C 
ATOM     18  C   UNL     1       6.653   6.915  17.562  0.00  0.00    +0.000 C 
ATOM     19  C   UNL     1       5.854   5.965  18.461  0.00  0.00    +0.000 C 
ATOM     20  C   UNL     1       5.353   4.748  17.621  0.00  0.00    +0.000 C 
ATOM     21  O   UNL     1       6.441   4.109  16.933  0.00  0.00    +0.000 OA
BRANCH  19  22
ATOM     22  N   UNL     1       6.679   5.579  19.624  0.00  0.00    +0.000 NA
ATOM     23  H   UNL     1       6.784   4.562  19.616  0.00  0.00    +0.000 HD
ATOM     24  H   UNL     1       6.148   5.759  20.475  0.00  0.00    +0.000 HD
ENDBRANCH  19  22
BRANCH  16  25
ATOM     25  C   UNL     1       6.758   5.121  14.633  0.00  0.00    +0.000 C 
ATOM     26  C   UNL     1       6.038   3.843  14.158  0.00  0.00    +0.000 C 
BRANCH  25  28
ATOM     27  C   UNL     1       7.546   5.018  12.307  0.00  0.00    +0.000 C 
ATOM     28  N   UNL     1       7.798   5.520  13.659  0.00  0.00    +0.000 NA
ATOM     29  H   UNL     1       7.788   6.530  13.582  0.00  0.00    +0.000 HD
ENDBRANCH  25  28
ENDBRANCH  16  25
ENDBRANCH  15  20
ENDBRANCH   1  15
BRANCH   5  30
ATOM     30  O   UNL     1       1.377   5.931  19.708  0.00  0.00    +0.000 OA
BRANCH  30  31
ATOM     31  C   UNL     1       2.068   7.148  20.046  0.00  0.00    +0.000 C 
ATOM     32  O   UNL     1       2.478   7.916  18.915  0.00  0.00    +0.000 OA
ATOM     33  C   UNL     1       1.507   8.781  18.332  0.00  0.00    +0.000 C 
ATOM     34  C   UNL     1       0.837   9.752  19.335  0.00  0.00    +0.000 C 
ATOM     35  C   UNL     1      -0.195  10.642  18.617  0.00  0.00    +0.000 C 
ATOM     36  C   UNL     1       0.195   8.892  20.460  0.00  0.00    +0.000 C 
ATOM     37  C   UNL     1       1.285   7.987  21.105  0.00  0.00    +0.000 C 
BRANCH  36  38
ATOM     38  N   UNL     1      -0.669   9.622  21.432  0.00  0.00    +0.000 NA
ATOM     39  C   UNL     1      -0.447   9.361  22.848  0.00  0.00    +0.000 C 
ATOM     40  H   UNL     1      -1.642   9.387  21.227  0.00  0.00    +0.000 HD
ENDBRANCH  36  38
BRANCH  34  41
ATOM     41  O   UNL     1       1.864  10.605  19.891  0.00  0.00    +0.000 OA
ATOM     42  H   UNL     1       2.650  10.544  19.317  0.00  0.00    +0.000 HD
ENDBRANCH  34  41
BRANCH  37  43
ATOM     43  O   UNL     1       2.234   8.787  21.836  0.00  0.00    +0.000 OA
ATOM     44  H   UNL     1       2.928   8.162  22.146  0.00  0.00    +0.000 HD
ENDBRANCH  37  43
ENDBRANCH  30  31
ENDBRANCH   5  30
TORSDOF 13
ENDMDL
MODEL 2
REMARK VINA RESULT:      -6.7      1.089      1.318
REMARK  Name = 
REMARK  17 active torsions:
REMARK  status: ('A' for Active; 'I' for Inactive)
REMARK    1  A    between atoms: C_1  and  N_2
REMARK    2  A    between atoms: N_2  and  C_3
REMARK    3  A    between atoms: C_3  and  C_4
REMARK    4  A    between atoms: C_3  and  C_5
REMARK    5  A    between atoms: C_8  and  N_9
REMARK    6  A    between atoms: C_10  and  O_11
REMARK    7  A    between atoms: O_11  and  C_12
REMARK    8  A    between atoms: C_13  and  N_14
REMARK    9  A    between atoms: C_16  and  N_17
REMARK   10  A    between atoms: C_18  and  O_19
REMARK   11  A    between atoms: O_19  and  C_20
REMARK   12  A    between atoms: C_23  and  C_24
REMARK   13  A    between atoms: C_23  and  O_25
REMARK   14  A    between atoms: C_26  and  N_27
REMARK   15  A    between atoms: N_27  and  C_28
REMARK   16  A    between atoms: C_29  and  O_30
REMARK   17  A    between atoms: C_31  and  O_32
REMARK                            x       y       z     vdW  Elec       q    Type
REMARK                         _______ _______ _______ _____ _____    ______ ____
ROOT
ATOM      1  C   UNL     1       3.206   2.978  17.758  0.00  0.00    +0.000 C 
ATOM      2  C   UNL     1       3.074   1.851  18.830  0.00  0.00    +0.000 C 
ATOM      3  C   UNL     1       3.225   2.396  20.259  0.00  0.00    +0.000 C 
ATOM      4  C   UNL     1       2.320   3.616  20.588  0.00  0.00    +0.000 C 
ATOM      5  C   UNL     1       2.403   4.719  19.479  0.00  0.00    +0.000 C 
ATOM      6  C   UNL     1       2.126   4.063  18.082  0.00  0.00    +0.000 C 
ENDROOT
BRANCH   2   7
ATOM      7  N   UNL     1       3.946   0.685  18.630  0.00  0.00    +0.000 NA
ATOM      8  H   UNL     1       4.471   0.741  17.765  0.00  0.00    +0.000 HD
ATOM      9  H   UNL     1       3.428  -0.189  18.664  0.00  0.00    +0.000 HD
ENDBRANCH   2   7
BRANCH   4  10
ATOM     10  N   UNL     1       0.942   3.159  20.853  0.00  0.00    +0.000 NA
ATOM     11  H   UNL     1       0.353   3.445  20.061  0.00  0.00    +0.000 HD
ATOM     12  H   UNL     1       0.560   3.711  21.623  0.00  0.00    +0.000 HD
ENDBRANCH   4  10
BRANCH   6  13
ATOM     13  O   UNL     1       0.806   3.475  18.052  0.00  0.00    +0.000 OA
ATOM     14  H   UNL     1       0.192   4.106  17.637  0.00  0.00    +0.000 HD
ENDBRANCH   6  13
BRANCH   1  15
ATOM     15  O   UNL     1       4.468   3.656  17.682  0.00  0.00    +0.000 OA
BRANCH  15  20
ATOM     16  C   UNL     1       6.804   4.578  15.019  0.00  0.00    +0.000 C 
ATOM     17  C   UNL     1       6.689   6.107  15.024  0.00  0.00    +0.000 C 
ATOM     18  C   UNL     1       5.286   6.593  15.360  0.00  0.00    +0.000 C 
ATOM     19  C   UNL     1       4.742   5.932  16.631  0.00  0.00    +0.000 C 
ATOM     20  C   UNL     1       4.843   4.379  16.497  0.00  0.00    +0.000 C 
ATOM     21  O   UNL     1       6.181   3.973  16.166  0.00  0.00    +0.000 OA
BRANCH  19  22
ATOM     22  N   UNL     1       5.454   6.470  17.808  0.00  0.00    +0.000 NA
ATOM     23  H   UNL     1       5.777   5.681  18.372  0.00  0.00    +0.000 HD
ATOM     24  H   UNL     1       4.779   6.937  18.412  0.00  0.00    +0.000 HD
ENDBRANCH  19  22
BRANCH  16  25
ATOM     25  C   UNL     1       6.482   3.860  13.654  0.00  0.00    +0.000 C 
ATOM     26  C   UNL     1       7.297   4.504  12.514  0.00  0.00    +0.000 C 
BRANCH  25  28
ATOM     27  C   UNL     1       4.784   3.282  11.973  0.00  0.00    +0.000 C 
ATOM     28  N   UNL     1       5.044   3.829  13.306  0.00  0.00    +0.000 NA
ATOM     29  H   UNL     1       4.576   3.206  13.953  0.00  0.00    +0.000 HD
ENDBRANCH  25  28
ENDBRANCH  16  25
ENDBRANCH  15  20
ENDBRANCH   1  15
BRANCH   5  30
ATOM     30  O   UNL     1       1.515   5.865  19.672  0.00  0.00    +0.000 OA
BRANCH  30  31
ATOM     31  C   UNL     1       2.169   7.110  19.977  0.00  0.00    +0.000 C 
ATOM     32  O   UNL     1       2.553   7.862  18.826  0.00  0.00    +0.000 OA
ATOM     33  C   UNL     1       1.555   8.680  18.224  0.00  0.00    +0.000 C 
ATOM     34  C   UNL     1       0.856   9.656  19.203  0.00  0.00    +0.000 C 
ATOM     35  C   UNL     1      -0.205  10.495  18.465  0.00  0.00    +0.000 C 
ATOM     36  C   UNL     1       0.242   8.805  20.351  0.00  0.00    +0.000 C 
ATOM     37  C   UNL     1       1.361   7.951  21.016  0.00  0.00    +0.000 C 
BRANCH  36  38
ATOM     38  N   UNL     1      -0.643   9.533  21.305  0.00  0.00    +0.000 NA
ATOM     39  C   UNL     1      -0.461   9.256  22.725  0.00  0.00    +0.000 C 
ATOM     40  H   UNL     1      -1.611   9.306  21.072  0.00  0.00    +0.000 HD
ENDBRANCH  36  38
BRANCH  34  41
ATOM     41  O   UNL     1       1.857  10.555  19.735  0.00  0.00    +0.000 OA
ATOM     42  H   UNL     1       2.535  10.018  20.185  0.00  0.00    +0.000 HD
ENDBRANCH  34  41
BRANCH  37  43
ATOM     43  O   UNL     1       2.286   8.799  21.725  0.00  0.00    +0.000 OA
ATOM     44  H   UNL     1       2.382   8.400  22.620  0.00  0.00    +0.000 HD
ENDBRANCH  37  43
ENDBRANCH  30  31
ENDBRANCH   5  30
TORSDOF 13
ENDMDL
MODEL 3
REMARK VINA RESULT:      -6.5      1.487      2.458
REMARK  Name = 
REMARK  17 active torsions:
REMARK  status: ('A' for Active; 'I' for Inactive)
REMARK    1  A    between atoms: C_1  and  N_2
REMARK    2  A    between atoms: N_2  and  C_3
REMARK    3  A    between atoms: C_3  and  C_4
REMARK    4  A    between atoms: C_3  and  C_5
REMARK    5  A    between atoms: C_8  and  N_9
REMARK    6  A    between atoms: C_10  and  O_11
REMARK    7  A    between atoms: O_11  and  C_12
REMARK    8  A    between atoms: C_13  and  N_14
REMARK    9  A    between atoms: C_16  and  N_17
REMARK   10  A    between atoms: C_18  and  O_19
REMARK   11  A    between atoms: O_19  and  C_20
REMARK   12  A    between atoms: C_23  and  C_24
REMARK   13  A    between atoms: C_23  and  O_25
REMARK   14  A    between atoms: C_26  and  N_27
REMARK   15  A    between atoms: N_27  and  C_28
REMARK   16  A    between atoms: C_29  and  O_30
REMARK   17  A    between atoms: C_31  and  O_32
REMARK                            x       y       z     vdW  Elec       q    Type
REMARK                         _______ _______ _______ _____ _____    ______ ____
ROOT
ATOM      1  C   UNL     1       3.666   3.831  18.466  0.00  0.00    +0.000 C 
ATOM      2  C   UNL     1       3.202   2.490  19.118  0.00  0.00    +0.000 C 
ATOM      3  C   UNL     1       2.864   2.661  20.607  0.00  0.00    +0.000 C 
ATOM      4  C   UNL     1       1.884   3.826  20.920  0.00  0.00    +0.000 C 
ATOM      5  C   UNL     1       2.312   5.156  20.213  0.00  0.00    +0.000 C 
ATOM      6  C   UNL     1       2.522   4.877  18.684  0.00  0.00    +0.000 C 
ENDROOT
BRANCH   2   7
ATOM      7  N   UNL     1       4.109   1.349  18.925  0.00  0.00    +0.000 NA
ATOM      8  H   UNL     1       4.598   1.099  19.777  0.00  0.00    +0.000 HD
ATOM      9  H   UNL     1       4.778   1.515  18.178  0.00  0.00    +0.000 HD
ENDBRANCH   2   7
BRANCH   4  10
ATOM     10  N   UNL     1       0.502   3.414  20.601  0.00  0.00    +0.000 NA
ATOM     11  H   UNL     1      -0.139   4.094  21.028  0.00  0.00    +0.000 HD
ATOM     12  H   UNL     1       0.292   2.558  21.118  0.00  0.00    +0.000 HD
ENDBRANCH   4  10
BRANCH   6  13
ATOM     13  O   UNL     1       1.296   4.407  18.082  0.00  0.00    +0.000 OA
ATOM     14  H   UNL     1       0.598   4.398  18.761  0.00  0.00    +0.000 HD
ENDBRANCH   6  13
BRANCH   1  15
ATOM     15  O   UNL     1       4.871   4.418  18.976  0.00  0.00    +0.000 OA
BRANCH  15  20
ATOM     16  C   UNL     1       6.512   6.911  16.858  0.00  0.00    +0.000 C 
ATOM     17  C   UNL     1       6.774   6.106  15.580  0.00  0.00    +0.000 C 
ATOM     18  C   UNL     1       7.088   4.642  15.858  0.00  0.00    +0.000 C 
ATOM     19  C   UNL     1       6.049   4.002  16.785  0.00  0.00    +0.000 C 
ATOM     20  C   UNL     1       5.906   4.861  18.082  0.00  0.00    +0.000 C 
ATOM     21  O   UNL     1       5.625   6.234  17.767  0.00  0.00    +0.000 OA
BRANCH  19  22
ATOM     22  N   UNL     1       4.780   3.824  16.053  0.00  0.00    +0.000 NA
ATOM     23  H   UNL     1       4.177   4.622  16.264  0.00  0.00    +0.000 HD
ATOM     24  H   UNL     1       4.279   3.032  16.454  0.00  0.00    +0.000 HD
ENDBRANCH  19  22
BRANCH  16  25
ATOM     25  C   UNL     1       7.775   7.555  17.546  0.00  0.00    +0.000 C 
ATOM     26  C   UNL     1       8.105   6.804  18.852  0.00  0.00    +0.000 C 
BRANCH  25  28
ATOM     27  C   UNL     1       8.775   9.552  18.573  0.00  0.00    +0.000 C 
ATOM     28  N   UNL     1       7.655   9.008  17.803  0.00  0.00    +0.000 NA
ATOM     29  H   UNL     1       7.676   9.489  16.911  0.00  0.00    +0.000 HD
ENDBRANCH  25  28
ENDBRANCH  16  25
ENDBRANCH  15  20
ENDBRANCH   1  15
BRANCH   5  30
ATOM     30  O   UNL     1       1.394   6.279  20.389  0.00  0.00    +0.000 OA
BRANCH  30  31
ATOM     31  C   UNL     1       2.012   7.574  20.492  0.00  0.00    +0.000 C 
ATOM     32  O   UNL     1       2.238   8.211  19.234  0.00  0.00    +0.000 OA
ATOM     33  C   UNL     1       1.143   8.921  18.661  0.00  0.00    +0.000 C 
ATOM     34  C   UNL     1       0.502   9.969  19.604  0.00  0.00    +0.000 C 
ATOM     35  C   UNL     1      -0.669  10.682  18.902  0.00  0.00    +0.000 C 
ATOM     36  C   UNL     1       0.053   9.225  20.894  0.00  0.00    +0.000 C 
ATOM     37  C   UNL     1       1.276   8.491  21.519  0.00  0.00    +0.000 C 
BRANCH  36  38
ATOM     38  N   UNL     1      -0.764  10.017  21.858  0.00  0.00    +0.000 NA
ATOM     39  C   UNL     1      -0.688   9.638  23.263  0.00  0.00    +0.000 C 
ATOM     40  H   UNL     1      -1.742   9.945  21.574  0.00  0.00    +0.000 HD
ENDBRANCH  36  38
BRANCH  34  41
ATOM     41  O   UNL     1       1.507  10.958  19.928  0.00  0.00    +0.000 OA
ATOM     42  H   UNL     1       1.434  11.162  20.879  0.00  0.00    +0.000 HD
ENDBRANCH  34  41
BRANCH  37  43
ATOM     43  O   UNL     1       2.226   9.446  22.032  0.00  0.00    +0.000 OA
ATOM     44  H   UNL     1       1.851  10.333  21.828  0.00  0.00    +0.000 HD
ENDBRANCH  37  43
ENDBRANCH  30  31
ENDBRANCH   5  30
TORSDOF 13
ENDMDL
MODEL 4
REMARK VINA RESULT:      -6.2      8.190     11.910
REMARK  Name = 
REMARK  17 active torsions:
REMARK  status: ('A' for Active; 'I' for Inactive)
REMARK    1  A    between atoms: C_1  and  N_2
REMARK    2  A    between atoms: N_2  and  C_3
REMARK    3  A    between atoms: C_3  and  C_4
REMARK    4  A    between atoms: C_3  and  C_5
REMARK    5  A    between atoms: C_8  and  N_9
REMARK    6  A    between atoms: C_10  and  O_11
REMARK    7  A    between atoms: O_11  and  C_12
REMARK    8  A    between atoms: C_13  and  N_14
REMARK    9  A    between atoms: C_16  and  N_17
REMARK   10  A    between atoms: C_18  and  O_19
REMARK   11  A    between atoms: O_19  and  C_20
REMARK   12  A    between atoms: C_23  and  C_24
REMARK   13  A    between atoms: C_23  and  O_25
REMARK   14  A    between atoms: C_26  and  N_27
REMARK   15  A    between atoms: N_27  and  C_28
REMARK   16  A    between atoms: C_29  and  O_30
REMARK   17  A    between atoms: C_31  and  O_32
REMARK                            x       y       z     vdW  Elec       q    Type
REMARK                         _______ _______ _______ _____ _____    ______ ____
ROOT
ATOM      1  C   UNL     1       0.204  14.480  21.291  0.00  0.00    +0.000 C 
ATOM      2  C   UNL     1       1.728  14.332  20.984  0.00  0.00    +0.000 C 
ATOM      3  C   UNL     1       2.075  12.929  20.461  0.00  0.00    +0.000 C 
ATOM      4  C   UNL     1       1.196  12.441  19.276  0.00  0.00    +0.000 C 
ATOM      5  C   UNL     1      -0.330  12.650  19.557  0.00  0.00    +0.000 C 
ATOM      6  C   UNL     1      -0.574  14.142  19.976  0.00  0.00    +0.000 C 
ENDROOT
BRANCH   2   7
ATOM      7  N   UNL     1       2.631  14.710  22.079  0.00  0.00    +0.000 NA
ATOM      8  H   UNL     1       3.506  14.198  22.050  0.00  0.00    +0.000 HD
ATOM      9  H   UNL     1       2.195  14.599  22.990  0.00  0.00    +0.000 HD
ENDBRANCH   2   7
BRANCH   4  10
ATOM     10  N   UNL     1       1.650  13.076  18.023  0.00  0.00    +0.000 NA
ATOM     11  H   UNL     1       1.446  12.434  17.248  0.00  0.00    +0.000 HD
ATOM     12  H   UNL     1       2.672  13.102  18.025  0.00  0.00    +0.000 HD
ENDBRANCH   4  10
BRANCH   6  13
ATOM     13  O   UNL     1      -0.172  15.037  18.915  0.00  0.00    +0.000 OA
ATOM     14  H   UNL     1      -0.339  14.603  18.060  0.00  0.00    +0.000 HD
ENDBRANCH   6  13
BRANCH   1  15
ATOM     15  O   UNL     1      -0.334  13.641  22.322  0.00  0.00    +0.000 OA
BRANCH  15  20
ATOM     16  C   UNL     1      -2.964  14.486  24.723  0.00  0.00    +0.000 C 
ATOM     17  C   UNL     1      -3.876  13.258  24.626  0.00  0.00    +0.000 C 
ATOM     18  C   UNL     1      -3.931  12.672  23.222  0.00  0.00    +0.000 C 
ATOM     19  C   UNL     1      -2.530  12.444  22.644  0.00  0.00    +0.000 C 
ATOM     20  C   UNL     1      -1.707  13.768  22.730  0.00  0.00    +0.000 C 
ATOM     21  O   UNL     1      -1.697  14.288  24.069  0.00  0.00    +0.000 OA
BRANCH  19  22
ATOM     22  N   UNL     1      -1.892  11.307  23.337  0.00  0.00    +0.000 NA
ATOM     23  H   UNL     1      -1.968  10.484  22.736  0.00  0.00    +0.000 HD
ATOM     24  H   UNL     1      -2.456  11.062  24.151  0.00  0.00    +0.000 HD
ENDBRANCH  19  22
BRANCH  16  25
ATOM     25  C   UNL     1      -3.637  15.879  24.421  0.00  0.00    +0.000 C 
ATOM     26  C   UNL     1      -2.912  16.995  25.201  0.00  0.00    +0.000 C 
BRANCH  25  28
ATOM     27  C   UNL     1      -5.874  16.386  23.539  0.00  0.00    +0.000 C 
ATOM     28  N   UNL     1      -5.091  15.924  24.687  0.00  0.00    +0.000 NA
ATOM     29  H   UNL     1      -5.408  14.980  24.872  0.00  0.00    +0.000 HD
ENDBRANCH  25  28
ENDBRANCH  16  25
ENDBRANCH  15  20
ENDBRANCH   1  15
BRANCH   5  30
ATOM     30  O   UNL     1      -1.222  12.294  18.455  0.00  0.00    +0.000 OA
BRANCH  30  31
ATOM     31  C   UNL     1      -2.238  11.325  18.768  0.00  0.00    +0.000 C 
ATOM     32  O   UNL     1      -3.293  11.833  19.585  0.00  0.00    +0.000 OA
ATOM     33  C   UNL     1      -4.344  12.534  18.926  0.00  0.00    +0.000 C 
ATOM     34  C   UNL     1      -4.997  11.750  17.760  0.00  0.00    +0.000 C 
ATOM     35  C   UNL     1      -6.117  12.584  17.109  0.00  0.00    +0.000 C 
ATOM     36  C   UNL     1      -3.869  11.386  16.753  0.00  0.00    +0.000 C 
ATOM     37  C   UNL     1      -2.754  10.589  17.491  0.00  0.00    +0.000 C 
BRANCH  36  38
ATOM     38  N   UNL     1      -4.312  10.793  15.458  0.00  0.00    +0.000 NA
ATOM     39  C   UNL     1      -3.277  10.266  14.579  0.00  0.00    +0.000 C 
ATOM     40  H   UNL     1      -4.817  11.513  14.939  0.00  0.00    +0.000 HD
ENDBRANCH  36  38
BRANCH  34  41
ATOM     41  O   UNL     1      -5.584  10.544  18.301  0.00  0.00    +0.000 OA
ATOM     42  H   UNL     1      -6.343  10.300  17.740  0.00  0.00    +0.000 HD
ENDBRANCH  34  41
BRANCH  37  43
ATOM     43  O   UNL     1      -3.241   9.292  17.886  0.00  0.00    +0.000 OA
ATOM     44  H   UNL     1      -2.654   8.639  17.442  0.00  0.00    +0.000 HD
ENDBRANCH  37  43
ENDBRANCH  30  31
ENDBRANCH   5  30
TORSDOF 13
ENDMDL
MODEL 5
REMARK VINA RESULT:      -6.1      6.218     10.834
REMARK  Name = 
REMARK  17 active torsions:
REMARK  status: ('A' for Active; 'I' for Inactive)
REMARK    1  A    between atoms: C_1  and  N_2
REMARK    2  A    between atoms: N_2  and  C_3
REMARK    3  A    between atoms: C_3  and  C_4
REMARK    4  A    between atoms: C_3  and  C_5
REMARK    5  A    between atoms: C_8  and  N_9
REMARK    6  A    between atoms: C_10  and  O_11
REMARK    7  A    between atoms: O_11  and  C_12
REMARK    8  A    between atoms: C_13  and  N_14
REMARK    9  A    between atoms: C_16  and  N_17
REMARK   10  A    between atoms: C_18  and  O_19
REMARK   11  A    between atoms: O_19  and  C_20
REMARK   12  A    between atoms: C_23  and  C_24
REMARK   13  A    between atoms: C_23  and  O_25
REMARK   14  A    between atoms: C_26  and  N_27
REMARK   15  A    between atoms: N_27  and  C_28
REMARK   16  A    between atoms: C_29  and  O_30
REMARK   17  A    between atoms: C_31  and  O_32
REMARK                            x       y       z     vdW  Elec       q    Type
REMARK                         _______ _______ _______ _____ _____    ______ ____
ROOT
ATOM      1  C   UNL     1      -0.397  14.078  20.837  0.00  0.00    +0.000 C 
ATOM      2  C   UNL     1      -0.526  15.429  20.066  0.00  0.00    +0.000 C 
ATOM      3  C   UNL     1      -1.779  16.214  20.486  0.00  0.00    +0.000 C 
ATOM      4  C   UNL     1      -1.942  16.405  22.019  0.00  0.00    +0.000 C 
ATOM      5  C   UNL     1      -1.749  15.061  22.799  0.00  0.00    +0.000 C 
ATOM      6  C   UNL     1      -0.389  14.410  22.366  0.00  0.00    +0.000 C 
ENDROOT
BRANCH   2   7
ATOM      7  N   UNL     1      -0.449  15.330  18.602  0.00  0.00    +0.000 NA
ATOM      8  H   UNL     1      -1.347  15.483  18.158  0.00  0.00    +0.000 HD
ATOM      9  H   UNL     1      -0.061  14.440  18.299  0.00  0.00    +0.000 HD
ENDBRANCH   2   7
BRANCH   4  10
ATOM     10  N   UNL     1      -1.048  17.484  22.486  0.00  0.00    +0.000 NA
ATOM     11  H   UNL     1      -0.256  17.051  22.976  0.00  0.00    +0.000 HD
ATOM     12  H   UNL     1      -1.520  17.994  23.235  0.00  0.00    +0.000 HD
ENDBRANCH   4  10
BRANCH   6  13
ATOM     13  O   UNL     1       0.715  15.289  22.678  0.00  0.00    +0.000 OA
ATOM     14  H   UNL     1       1.377  14.791  23.189  0.00  0.00    +0.000 HD
ENDBRANCH   6  13
BRANCH   1  15
ATOM     15  O   UNL     1      -1.435  13.110  20.626  0.00  0.00    +0.000 OA
BRANCH  15  20
ATOM     16  C   UNL     1       0.884  10.429  19.711  0.00  0.00    +0.000 C 
ATOM     17  C   UNL     1       0.337  10.002  18.345  0.00  0.00    +0.000 C 
ATOM     18  C   UNL     1      -1.179  10.110  18.255  0.00  0.00    +0.000 C 
ATOM     19  C   UNL     1      -1.681  11.483  18.715  0.00  0.00    +0.000 C 
ATOM     20  C   UNL     1      -1.122  11.793  20.141  0.00  0.00    +0.000 C 
ATOM     21  O   UNL     1       0.308  11.664  20.177  0.00  0.00    +0.000 OA
BRANCH  19  22
ATOM     22  N   UNL     1      -1.323  12.501  17.707  0.00  0.00    +0.000 NA
ATOM     23  H   UNL     1      -0.845  12.030  16.936  0.00  0.00    +0.000 HD
ATOM     24  H   UNL     1      -0.605  13.109  18.099  0.00  0.00    +0.000 HD
ENDBRANCH  19  22
BRANCH  16  25
ATOM     25  C   UNL     1       0.973   9.303  20.809  0.00  0.00    +0.000 C 
ATOM     26  C   UNL     1       1.622   8.037  20.215  0.00  0.00    +0.000 C 
BRANCH  25  28
ATOM     27  C   UNL     1      -0.378   9.336  22.863  0.00  0.00    +0.000 C 
ATOM     28  N   UNL     1      -0.320   8.969  21.446  0.00  0.00    +0.000 NA
ATOM     29  H   UNL     1      -1.045   9.513  20.994  0.00  0.00    +0.000 HD
ENDBRANCH  25  28
ENDBRANCH  16  25
ENDBRANCH  15  20
ENDBRANCH   1  15
BRANCH   5  30
ATOM     30  O   UNL     1      -1.802  15.172  24.255  0.00  0.00    +0.000 OA
BRANCH  30  31
ATOM     31  C   UNL     1      -3.015  14.698  24.868  0.00  0.00    +0.000 C 
ATOM     32  O   UNL     1      -3.938  15.733  25.207  0.00  0.00    +0.000 OA
ATOM     33  C   UNL     1      -4.796  16.202  24.170  0.00  0.00    +0.000 C 
ATOM     34  C   UNL     1      -5.594  15.085  23.453  0.00  0.00    +0.000 C 
ATOM     35  C   UNL     1      -6.489  15.685  22.351  0.00  0.00    +0.000 C 
ATOM     36  C   UNL     1      -4.565  14.065  22.888  0.00  0.00    +0.000 C 
ATOM     37  C   UNL     1      -3.668  13.540  24.047  0.00  0.00    +0.000 C 
BRANCH  36  38
ATOM     38  N   UNL     1      -5.115  13.007  21.993  0.00  0.00    +0.000 NA
ATOM     39  C   UNL     1      -4.731  13.059  20.588  0.00  0.00    +0.000 C 
ATOM     40  H   UNL     1      -6.134  13.059  22.033  0.00  0.00    +0.000 HD
ENDBRANCH  36  38
BRANCH  34  41
ATOM     41  O   UNL     1      -6.445  14.441  24.429  0.00  0.00    +0.000 OA
ATOM     42  H   UNL     1      -6.409  13.479  24.273  0.00  0.00    +0.000 HD
ENDBRANCH  34  41
BRANCH  37  43
ATOM     43  O   UNL     1      -4.441  12.728  24.952  0.00  0.00    +0.000 OA
ATOM     44  H   UNL     1      -4.107  11.809  24.837  0.00  0.00    +0.000 HD
ENDBRANCH  37  43
ENDBRANCH  30  31
ENDBRANCH   5  30
TORSDOF 13
ENDMDL
MODEL 6
REMARK VINA RESULT:      -6.0      8.205     12.211
REMARK  Name = 
REMARK  17 active torsions:
REMARK  status: ('A' for Active; 'I' for Inactive)
REMARK    1  A    between atoms: C_1  and  N_2
REMARK    2  A    between atoms: N_2  and  C_3
REMARK    3  A    between atoms: C_3  and  C_4
REMARK    4  A    between atoms: C_3  and  C_5
REMARK    5  A    between atoms: C_8  and  N_9
REMARK    6  A    between atoms: C_10  and  O_11
REMARK    7  A    between atoms: O_11  and  C_12
REMARK    8  A    between atoms: C_13  and  N_14
REMARK    9  A    between atoms: C_16  and  N_17
REMARK   10  A    between atoms: C_18  and  O_19
REMARK   11  A    between atoms: O_19  and  C_20
REMARK   12  A    between atoms: C_23  and  C_24
REMARK   13  A    between atoms: C_23  and  O_25
REMARK   14  A    between atoms: C_26  and  N_27
REMARK   15  A    between atoms: N_27  and  C_28
REMARK   16  A    between atoms: C_29  and  O_30
REMARK   17  A    between atoms: C_31  and  O_32
REMARK                            x       y       z     vdW  Elec       q    Type
REMARK                         _______ _______ _______ _____ _____    ______ ____
ROOT
ATOM      1  C   UNL     1       4.012  15.873  20.368  0.00  0.00    +0.000 C 
ATOM      2  C   UNL     1       4.074  15.318  21.826  0.00  0.00    +0.000 C 
ATOM      3  C   UNL     1       5.152  14.235  21.983  0.00  0.00    +0.000 C 
ATOM      4  C   UNL     1       6.558  14.637  21.458  0.00  0.00    +0.000 C 
ATOM      5  C   UNL     1       6.490  15.255  20.021  0.00  0.00    +0.000 C 
ATOM      6  C   UNL     1       5.436  16.417  20.014  0.00  0.00    +0.000 C 
ENDROOT
BRANCH   2   7
ATOM      7  N   UNL     1       2.794  14.852  22.378  0.00  0.00    +0.000 NA
ATOM      8  H   UNL     1       2.485  15.415  23.162  0.00  0.00    +0.000 HD
ATOM      9  H   UNL     1       2.828  13.873  22.648  0.00  0.00    +0.000 HD
ENDBRANCH   2   7
BRANCH   4  10
ATOM     10  N   UNL     1       7.225  15.516  22.440  0.00  0.00    +0.000 NA
ATOM     11  H   UNL     1       7.091  16.489  22.139  0.00  0.00    +0.000 HD
ATOM     12  H   UNL     1       8.236  15.394  22.349  0.00  0.00    +0.000 HD
ENDBRANCH   4  10
BRANCH   6  13
ATOM     13  O   UNL     1       5.820  17.453  20.945  0.00  0.00    +0.000 OA
ATOM     14  H   UNL     1       5.448  17.240  21.820  0.00  0.00    +0.000 HD
ENDBRANCH   6  13
BRANCH   1  15
ATOM     15  O   UNL     1       3.651  14.946  19.335  0.00  0.00    +0.000 OA
BRANCH  15  20
ATOM     16  C   UNL     1       0.101  15.833  19.432  0.00  0.00    +0.000 C 
ATOM     17  C   UNL     1      -0.562  14.451  19.406  0.00  0.00    +0.000 C 
ATOM     18  C   UNL     1       0.211  13.440  18.571  0.00  0.00    +0.000 C 
ATOM     19  C   UNL     1       1.695  13.401  18.952  0.00  0.00    +0.000 C 
ATOM     20  C   UNL     1       2.290  14.844  18.884  0.00  0.00    +0.000 C 
ATOM     21  O   UNL     1       1.518  15.761  19.675  0.00  0.00    +0.000 OA
BRANCH  19  22
ATOM     22  N   UNL     1       1.846  12.763  20.275  0.00  0.00    +0.000 NA
ATOM     23  H   UNL     1       1.070  12.110  20.403  0.00  0.00    +0.000 HD
ATOM     24  H   UNL     1       1.690  13.466  20.996  0.00  0.00    +0.000 HD
ENDBRANCH  19  22
BRANCH  16  25
ATOM     25  C   UNL     1      -0.308  16.824  18.278  0.00  0.00    +0.000 C 
ATOM     26  C   UNL     1       0.798  17.878  18.071  0.00  0.00    +0.000 C 
BRANCH  25  28
ATOM     27  C   UNL     1      -1.841  17.923  19.853  0.00  0.00    +0.000 C 
ATOM     28  N   UNL     1      -1.619  17.482  18.475  0.00  0.00    +0.000 NA
ATOM     29  H   UNL     1      -1.637  18.324  17.913  0.00  0.00    +0.000 HD
ENDBRANCH  25  28
ENDBRANCH  16  25
ENDBRANCH  15  20
ENDBRANCH   1  15
BRANCH   5  30
ATOM     30  O   UNL     1       7.762  15.738  19.489  0.00  0.00    +0.000 OA
BRANCH  30  31
ATOM     31  C   UNL     1       8.141  15.202  18.208  0.00  0.00    +0.000 C 
ATOM     32  O   UNL     1       9.269  15.848  17.618  0.00  0.00    +0.000 OA
ATOM     33  C   UNL     1      10.559  15.413  18.039  0.00  0.00    +0.000 C 
ATOM     34  C   UNL     1      10.784  13.885  17.919  0.00  0.00    +0.000 C 
ATOM     35  C   UNL     1      12.200  13.509  18.396  0.00  0.00    +0.000 C 
ATOM     36  C   UNL     1       9.674  13.183  18.751  0.00  0.00    +0.000 C 
ATOM     37  C   UNL     1       8.277  13.646  18.245  0.00  0.00    +0.000 C 
BRANCH  36  38
ATOM     38  N   UNL     1       9.821  11.709  18.928  0.00  0.00    +0.000 NA
ATOM     39  C   UNL     1       9.428  11.151  20.215  0.00  0.00    +0.000 C 
ATOM     40  H   UNL     1      10.802  11.470  18.777  0.00  0.00    +0.000 HD
ENDBRANCH  36  38
BRANCH  34  41
ATOM     41  O   UNL     1      10.663  13.520  16.525  0.00  0.00    +0.000 OA
ATOM     42  H   UNL     1       9.714  13.483  16.304  0.00  0.00    +0.000 HD
ENDBRANCH  34  41
BRANCH  37  43
ATOM     43  O   UNL     1       8.030  13.141  16.919  0.00  0.00    +0.000 OA
ATOM     44  H   UNL     1       7.377  12.413  17.027  0.00  0.00    +0.000 HD
ENDBRANCH  37  43
ENDBRANCH  30  31
ENDBRANCH   5  30
TORSDOF 13
ENDMDL
MODEL 7
REMARK VINA RESULT:      -6.0      9.118     11.449
REMARK  Name = 
REMARK  17 active torsions:
REMARK  status: ('A' for Active; 'I' for Inactive)
REMARK    1  A    between atoms: C_1  and  N_2
REMARK    2  A    between atoms: N_2  and  C_3
REMARK    3  A    between atoms: C_3  and  C_4
REMARK    4  A    between atoms: C_3  and  C_5
REMARK    5  A    between atoms: C_8  and  N_9
REMARK    6  A    between atoms: C_10  and  O_11
REMARK    7  A    between atoms: O_11  and  C_12
REMARK    8  A    between atoms: C_13  and  N_14
REMARK    9  A    between atoms: C_16  and  N_17
REMARK   10  A    between atoms: C_18  and  O_19
REMARK   11  A    between atoms: O_19  and  C_20
REMARK   12  A    between atoms: C_23  and  C_24
REMARK   13  A    between atoms: C_23  and  O_25
REMARK   14  A    between atoms: C_26  and  N_27
REMARK   15  A    between atoms: N_27  and  C_28
REMARK   16  A    between atoms: C_29  and  O_30
REMARK   17  A    between atoms: C_31  and  O_32
REMARK                            x       y       z     vdW  Elec       q    Type
REMARK                         _______ _______ _______ _____ _____    ______ ____
ROOT
ATOM      1  C   UNL     1       9.659  13.465  17.747  0.00  0.00    +0.000 C 
ATOM      2  C   UNL     1      11.091  13.027  17.308  0.00  0.00    +0.000 C 
ATOM      3  C   UNL     1      12.155  13.414  18.347  0.00  0.00    +0.000 C 
ATOM      4  C   UNL     1      11.835  12.969  19.801  0.00  0.00    +0.000 C 
ATOM      5  C   UNL     1      10.376  13.351  20.220  0.00  0.00    +0.000 C 
ATOM      6  C   UNL     1       9.375  12.809  19.140  0.00  0.00    +0.000 C 
ENDROOT
BRANCH   2   7
ATOM      7  N   UNL     1      11.500  13.465  15.966  0.00  0.00    +0.000 NA
ATOM      8  H   UNL     1      11.895  14.399  15.970  0.00  0.00    +0.000 HD
ATOM      9  H   UNL     1      10.735  13.417  15.299  0.00  0.00    +0.000 HD
ENDBRANCH   2   7
BRANCH   4  10
ATOM     10  N   UNL     1      12.131  11.531  19.959  0.00  0.00    +0.000 NA
ATOM     11  H   UNL     1      12.056  11.087  19.036  0.00  0.00    +0.000 HD
ATOM     12  H   UNL     1      11.362  11.098  20.475  0.00  0.00    +0.000 HD
ENDBRANCH   4  10
BRANCH   6  13
ATOM     13  O   UNL     1       9.467  11.371  19.041  0.00  0.00    +0.000 OA
ATOM     14  H   UNL     1       9.819  11.022  19.879  0.00  0.00    +0.000 HD
ENDBRANCH   6  13
BRANCH   1  15
ATOM     15  O   UNL     1       9.427  14.873  17.895  0.00  0.00    +0.000 OA
BRANCH  15  20
ATOM     16  C   UNL     1       6.009  16.048  18.475  0.00  0.00    +0.000 C 
ATOM     17  C   UNL     1       6.254  17.299  19.325  0.00  0.00    +0.000 C 
ATOM     18  C   UNL     1       7.452  17.158  20.254  0.00  0.00    +0.000 C 
ATOM     19  C   UNL     1       8.698  16.670  19.507  0.00  0.00    +0.000 C 
ATOM     20  C   UNL     1       8.361  15.358  18.728  0.00  0.00    +0.000 C 
ATOM     21  O   UNL     1       7.217  15.540  17.878  0.00  0.00    +0.000 OA
BRANCH  19  22
ATOM     22  N   UNL     1       9.210  17.753  18.644  0.00  0.00    +0.000 NA
ATOM     23  H   UNL     1       9.818  18.349  19.210  0.00  0.00    +0.000 HD
ATOM     24  H   UNL     1       8.434  18.367  18.398  0.00  0.00    +0.000 HD
ENDBRANCH  19  22
BRANCH  16  25
ATOM     25  C   UNL     1       5.087  14.941  19.112  0.00  0.00    +0.000 C 
ATOM     26  C   UNL     1       3.991  14.526  18.110  0.00  0.00    +0.000 C 
BRANCH  25  28
ATOM     27  C   UNL     1       3.022  15.248  20.409  0.00  0.00    +0.000 C 
ATOM     28  N   UNL     1       4.484  15.322  20.409  0.00  0.00    +0.000 NA
ATOM     29  H   UNL     1       4.792  14.657  21.108  0.00  0.00    +0.000 HD
ENDBRANCH  25  28
ENDBRANCH  16  25
ENDBRANCH  15  20
ENDBRANCH   1  15
BRANCH   5  30
ATOM     30  O   UNL     1       9.967  12.891  21.546  0.00  0.00    +0.000 OA
BRANCH  30  31
ATOM     31  C   UNL     1       8.550  12.894  21.794  0.00  0.00    +0.000 C 
ATOM     32  O   UNL     1       8.066  11.706  22.420  0.00  0.00    +0.000 OA
ATOM     33  C   UNL     1       8.184  11.626  23.837  0.00  0.00    +0.000 C 
ATOM     34  C   UNL     1       7.573  12.831  24.595  0.00  0.00    +0.000 C 
ATOM     35  C   UNL     1       7.749  12.657  26.116  0.00  0.00    +0.000 C 
ATOM     36  C   UNL     1       8.267  14.117  24.063  0.00  0.00    +0.000 C 
ATOM     37  C   UNL     1       8.089  14.199  22.519  0.00  0.00    +0.000 C 
BRANCH  36  38
ATOM     38  N   UNL     1       7.962  15.378  24.798  0.00  0.00    +0.000 NA
ATOM     39  C   UNL     1       8.592  16.600  24.314  0.00  0.00    +0.000 C 
ATOM     40  H   UNL     1       8.246  15.253  25.770  0.00  0.00    +0.000 HD
ENDBRANCH  36  38
BRANCH  34  41
ATOM     41  O   UNL     1       6.158  12.876  24.304  0.00  0.00    +0.000 OA
ATOM     42  H   UNL     1       5.942  13.774  23.991  0.00  0.00    +0.000 HD
ENDBRANCH  34  41
BRANCH  37  43
ATOM     43  O   UNL     1       6.708  14.436  22.184  0.00  0.00    +0.000 OA
ATOM     44  H   UNL     1       6.216  14.396  23.036  0.00  0.00    +0.000 HD
ENDBRANCH  37  43
ENDBRANCH  30  31
ENDBRANCH   5  30
TORSDOF 13
ENDMDL
MODEL 8
REMARK VINA RESULT:      -6.0      6.471      9.703
REMARK  Name = 
REMARK  17 active torsions:
REMARK  status: ('A' for Active; 'I' for Inactive)
REMARK    1  A    between atoms: C_1  and  N_2
REMARK    2  A    between atoms: N_2  and  C_3
REMARK    3  A    between atoms: C_3  and  C_4
REMARK    4  A    between atoms: C_3  and  C_5
REMARK    5  A    between atoms: C_8  and  N_9
REMARK    6  A    between atoms: C_10  and  O_11
REMARK    7  A    between atoms: O_11  and  C_12
REMARK    8  A    between atoms: C_13  and  N_14
REMARK    9  A    between atoms: C_16  and  N_17
REMARK   10  A    between atoms: C_18  and  O_19
REMARK   11  A    between atoms: O_19  and  C_20
REMARK   12  A    between atoms: C_23  and  C_24
REMARK   13  A    between atoms: C_23  and  O_25
REMARK   14  A    between atoms: C_26  and  N_27
REMARK   15  A    between atoms: N_27  and  C_28
REMARK   16  A    between atoms: C_29  and  O_30
REMARK   17  A    between atoms: C_31  and  O_32
REMARK                            x       y       z     vdW  Elec       q    Type
REMARK                         _______ _______ _______ _____ _____    ______ ____
ROOT
ATOM      1  C   UNL     1       5.623  15.188  21.278  0.00  0.00    +0.000 C 
ATOM      2  C   UNL     1       5.131  16.583  21.777  0.00  0.00    +0.000 C 
ATOM      3  C   UNL     1       3.719  16.911  21.268  0.00  0.00    +0.000 C 
ATOM      4  C   UNL     1       2.662  15.801  21.524  0.00  0.00    +0.000 C 
ATOM      5  C   UNL     1       3.180  14.390  21.084  0.00  0.00    +0.000 C 
ATOM      6  C   UNL     1       4.574  14.126  21.751  0.00  0.00    +0.000 C 
ENDROOT
BRANCH   2   7
ATOM      7  N   UNL     1       6.044  17.704  21.514  0.00  0.00    +0.000 NA
ATOM      8  H   UNL     1       7.018  17.438  21.612  0.00  0.00    +0.000 HD
ATOM      9  H   UNL     1       5.845  18.507  22.106  0.00  0.00    +0.000 HD
ENDBRANCH   2   7
BRANCH   4  10
ATOM     10  N   UNL     1       2.221  15.847  22.933  0.00  0.00    +0.000 NA
ATOM     11  H   UNL     1       3.036  15.657  23.528  0.00  0.00    +0.000 HD
ATOM     12  H   UNL     1       1.623  15.037  23.111  0.00  0.00    +0.000 HD
ENDBRANCH   4  10
BRANCH   6  13
ATOM     13  O   UNL     1       4.459  14.148  23.191  0.00  0.00    +0.000 OA
ATOM     14  H   UNL     1       3.518  14.227  23.428  0.00  0.00    +0.000 HD
ENDBRANCH   6  13
BRANCH   1  15
ATOM     15  O   UNL     1       5.774  15.022  19.861  0.00  0.00    +0.000 OA
BRANCH  15  20
ATOM     16  C   UNL     1       9.360  14.320  20.067  0.00  0.00    +0.000 C 
ATOM     17  C   UNL     1       9.930  15.331  19.065  0.00  0.00    +0.000 C 
ATOM     18  C   UNL     1       9.007  15.572  17.878  0.00  0.00    +0.000 C 
ATOM     19  C   UNL     1       7.575  15.889  18.324  0.00  0.00    +0.000 C 
ATOM     20  C   UNL     1       7.067  14.768  19.287  0.00  0.00    +0.000 C 
ATOM     21  O   UNL     1       7.978  14.570  20.380  0.00  0.00    +0.000 OA
BRANCH  19  22
ATOM     22  N   UNL     1       7.534  17.240  18.919  0.00  0.00    +0.000 NA
ATOM     23  H   UNL     1       8.053  17.873  18.306  0.00  0.00    +0.000 HD
ATOM     24  H   UNL     1       8.083  17.235  19.778  0.00  0.00    +0.000 HD
ENDBRANCH  19  22
BRANCH  16  25
ATOM     25  C   UNL     1       9.699  12.805  19.796  0.00  0.00    +0.000 C 
ATOM     26  C   UNL     1       9.740  12.028  21.127  0.00  0.00    +0.000 C 
BRANCH  25  28
ATOM     27  C   UNL     1      12.032  12.034  19.845  0.00  0.00    +0.000 C 
ATOM     28  N   UNL     1      10.946  12.586  19.032  0.00  0.00    +0.000 NA
ATOM     29  H   UNL     1      10.761  11.893  18.317  0.00  0.00    +0.000 HD
ENDBRANCH  25  28
ENDBRANCH  16  25
ENDBRANCH  15  20
ENDBRANCH   1  15
BRANCH   5  30
ATOM     30  O   UNL     1       2.276  13.277  21.370  0.00  0.00    +0.000 OA
BRANCH  30  31
ATOM     31  C   UNL     1       1.150  13.150  20.484  0.00  0.00    +0.000 C 
ATOM     32  O   UNL     1       1.493  13.185  19.099  0.00  0.00    +0.000 OA
ATOM     33  C   UNL     1       1.933  11.966  18.509  0.00  0.00    +0.000 C 
ATOM     34  C   UNL     1       0.965  10.774  18.716  0.00  0.00    +0.000 C 
ATOM     35  C   UNL     1       1.523   9.503  18.047  0.00  0.00    +0.000 C 
ATOM     36  C   UNL     1       0.765  10.597  20.248  0.00  0.00    +0.000 C 
ATOM     37  C   UNL     1       0.248  11.931  20.860  0.00  0.00    +0.000 C 
BRANCH  36  38
ATOM     38  N   UNL     1       0.017   9.379  20.675  0.00  0.00    +0.000 NA
ATOM     39  C   UNL     1      -0.072   9.121  22.106  0.00  0.00    +0.000 C 
ATOM     40  H   UNL     1       0.465   8.568  20.246  0.00  0.00    +0.000 HD
ENDBRANCH  36  38
BRANCH  34  41
ATOM     41  O   UNL     1      -0.295  11.103  18.088  0.00  0.00    +0.000 OA
ATOM     42  H   UNL     1      -0.233  10.865  17.144  0.00  0.00    +0.000 HD
ENDBRANCH  34  41
BRANCH  37  43
ATOM     43  O   UNL     1      -1.091  12.206  20.407  0.00  0.00    +0.000 OA
ATOM     44  H   UNL     1      -1.075  12.079  19.431  0.00  0.00    +0.000 HD
ENDBRANCH  37  43
ENDBRANCH  30  31
ENDBRANCH   5  30
TORSDOF 13
ENDMDL
MODEL 9
REMARK VINA RESULT:      -6.0      3.659     10.387
REMARK  Name = 
REMARK  17 active torsions:
REMARK  status: ('A' for Active; 'I' for Inactive)
REMARK    1  A    between atoms: C_1  and  N_2
REMARK    2  A    between atoms: N_2  and  C_3
REMARK    3  A    between atoms: C_3  and  C_4
REMARK    4  A    between atoms: C_3  and  C_5
REMARK    5  A    between atoms: C_8  and  N_9
REMARK    6  A    between atoms: C_10  and  O_11
REMARK    7  A    between atoms: O_11  and  C_12
REMARK    8  A    between atoms: C_13  and  N_14
REMARK    9  A    between atoms: C_16  and  N_17
REMARK   10  A    between atoms: C_18  and  O_19
REMARK   11  A    between atoms: O_19  and  C_20
REMARK   12  A    between atoms: C_23  and  C_24
REMARK   13  A    between atoms: C_23  and  O_25
REMARK   14  A    between atoms: C_26  and  N_27
REMARK   15  A    between atoms: N_27  and  C_28
REMARK   16  A    between atoms: C_29  and  O_30
REMARK   17  A    between atoms: C_31  and  O_32
REMARK                            x       y       z     vdW  Elec       q    Type
REMARK                         _______ _______ _______ _____ _____    ______ ____
ROOT
ATOM      1  C   UNL     1      -0.865  11.578  19.556  0.00  0.00    +0.000 C 
ATOM      2  C   UNL     1       0.159  12.664  19.096  0.00  0.00    +0.000 C 
ATOM      3  C   UNL     1       1.611  12.225  19.339  0.00  0.00    +0.000 C 
ATOM      4  C   UNL     1       1.968  10.820  18.780  0.00  0.00    +0.000 C 
ATOM      5  C   UNL     1       0.907   9.743  19.187  0.00  0.00    +0.000 C 
ATOM      6  C   UNL     1      -0.521  10.257  18.791  0.00  0.00    +0.000 C 
ENDROOT
BRANCH   2   7
ATOM      7  N   UNL     1      -0.068  14.012  19.634  0.00  0.00    +0.000 NA
ATOM      8  H   UNL     1      -0.966  14.391  19.356  0.00  0.00    +0.000 HD
ATOM      9  H   UNL     1       0.675  14.656  19.376  0.00  0.00    +0.000 HD
ENDBRANCH   2   7
BRANCH   4  10
ATOM     10  N   UNL     1       2.184  10.904  17.321  0.00  0.00    +0.000 NA
ATOM     11  H   UNL     1       2.270  11.896  17.068  0.00  0.00    +0.000 HD
ATOM     12  H   UNL     1       1.319  10.629  16.849  0.00  0.00    +0.000 HD
ENDBRANCH   4  10
BRANCH   6  13
ATOM     13  O   UNL     1      -0.604  10.472  17.364  0.00  0.00    +0.000 OA
ATOM     14  H   UNL     1      -1.444  10.922  17.164  0.00  0.00    +0.000 HD
ENDBRANCH   6  13
BRANCH   1  15
ATOM     15  O   UNL     1      -0.885  11.257  20.954  0.00  0.00    +0.000 OA
BRANCH  15  20
ATOM     16  C   UNL     1      -3.690  13.492  21.683  0.00  0.00    +0.000 C 
ATOM     17  C   UNL     1      -3.178  14.234  22.922  0.00  0.00    +0.000 C 
ATOM     18  C   UNL     1      -2.314  13.360  23.821  0.00  0.00    +0.000 C 
ATOM     19  C   UNL     1      -1.210  12.647  23.032  0.00  0.00    +0.000 C 
ATOM     20  C   UNL     1      -1.842  11.869  21.834  0.00  0.00    +0.000 C 
ATOM     21  O   UNL     1      -2.657  12.734  21.027  0.00  0.00    +0.000 OA
BRANCH  19  22
ATOM     22  N   UNL     1      -0.186  13.630  22.623  0.00  0.00    +0.000 NA
ATOM     23  H   UNL     1       0.122  14.134  23.458  0.00  0.00    +0.000 HD
ATOM     24  H   UNL     1      -0.634  14.351  22.059  0.00  0.00    +0.000 HD
ENDBRANCH  19  22
BRANCH  16  25
ATOM     25  C   UNL     1      -5.054  12.720  21.848  0.00  0.00    +0.000 C 
ATOM     26  C   UNL     1      -6.135  13.363  20.955  0.00  0.00    +0.000 C 
BRANCH  25  28
ATOM     27  C   UNL     1      -6.990  12.678  23.361  0.00  0.00    +0.000 C 
ATOM     28  N   UNL     1      -5.532  12.617  23.244  0.00  0.00    +0.000 NA
ATOM     29  H   UNL     1      -5.267  11.708  23.602  0.00  0.00    +0.000 HD
ENDBRANCH  25  28
ENDBRANCH  16  25
ENDBRANCH  15  20
ENDBRANCH   1  15
BRANCH   5  30
ATOM     30  O   UNL     1       1.125   8.410  18.627  0.00  0.00    +0.000 OA
BRANCH  30  31
ATOM     31  C   UNL     1       2.271   7.705  19.137  0.00  0.00    +0.000 C 
ATOM     32  O   UNL     1       2.149   7.306  20.502  0.00  0.00    +0.000 OA
ATOM     33  C   UNL     1       1.447   6.093  20.762  0.00  0.00    +0.000 C 
ATOM     34  C   UNL     1       1.972   4.872  19.967  0.00  0.00    +0.000 C 
ATOM     35  C   UNL     1       1.154   3.612  20.311  0.00  0.00    +0.000 C 
ATOM     36  C   UNL     1       1.896   5.231  18.456  0.00  0.00    +0.000 C 
ATOM     37  C   UNL     1       2.702   6.537  18.194  0.00  0.00    +0.000 C 
BRANCH  36  38
ATOM     38  N   UNL     1       2.175   4.119  17.503  0.00  0.00    +0.000 NA
ATOM     39  C   UNL     1       3.549   3.642  17.422  0.00  0.00    +0.000 C 
ATOM     40  H   UNL     1       1.903   4.429  16.568  0.00  0.00    +0.000 HD
ENDBRANCH  36  38
BRANCH  34  41
ATOM     41  O   UNL     1       3.346   4.641  20.352  0.00  0.00    +0.000 OA
ATOM     42  H   UNL     1       3.436   3.702  20.600  0.00  0.00    +0.000 HD
ENDBRANCH  34  41
BRANCH  37  43
ATOM     43  O   UNL     1       4.111   6.303  18.382  0.00  0.00    +0.000 OA
ATOM     44  H   UNL     1       4.448   5.985  17.513  0.00  0.00    +0.000 HD
ENDBRANCH  37  43
ENDBRANCH  30  31
ENDBRANCH   5  30
TORSDOF 13
ENDMDL
