MODEL 1
REMARK VINA RESULT:      -6.2      0.000      0.000
REMARK  Name = 
REMARK  9 active torsions:
REMARK  status: ('A' for Active; 'I' for Inactive)
REMARK    1  A    between atoms: C_1  and  O_2
REMARK    2  A    between atoms: O_2  and  C_3
REMARK    3  A    between atoms: C_3  and  C_4
REMARK    4  A    between atoms: C_4  and  N_5
REMARK    5  A    between atoms: C_9  and  S_10
REMARK    6  A    between atoms: S_10  and  C_11
REMARK    7  A    between atoms: C_11  and  C_12
REMARK    8  A    between atoms: N_14  and  C_15
REMARK    9  A    between atoms: C_15  and  C_16
REMARK                            x       y       z     vdW  Elec       q    Type
REMARK                         _______ _______ _______ _____ _____    ______ ____
ROOT
ATOM      1  S   UNL     1       3.942   5.305  17.390  0.00  0.00    +0.000 S 
ENDROOT
BRANCH   1   6
ATOM      2  N   UNL     1       6.560   4.924  16.673  0.00  0.00    +0.000 N 
ATOM      3  C   UNL     1       7.727   4.620  17.315  0.00  0.00    +0.000 A 
ATOM      4  N   UNL     1       7.516   4.535  18.609  0.00  0.00    +0.000 NA
ATOM      5  N   UNL     1       6.178   4.775  18.827  0.00  0.00    +0.000 NA
ATOM      6  C   UNL     1       5.615   4.976  17.657  0.00  0.00    +0.000 A 
BRANCH   2   7
ATOM      7  C   UNL     1       6.423   5.143  15.250  0.00  0.00    +0.000 C 
BRANCH   7   8
ATOM      8  C   UNL     1       6.204   3.863  14.443  0.00  0.00    +0.000 C 
BRANCH   8  10
ATOM      9  C   UNL     1       5.883   3.226  12.202  0.00  0.00    +0.000 C 
ATOM     10  O   UNL     1       6.621   4.059  13.092  0.00  0.00    +0.000 OA
ENDBRANCH   8  10
ENDBRANCH   7   8
ENDBRANCH   2   7
ENDBRANCH   1   6
BRANCH   1  11
ATOM     11  C   UNL     1       3.365   3.655  16.896  0.00  0.00    +0.000 C 
BRANCH  11  12
ATOM     12  C   UNL     1       3.314   2.725  18.097  0.00  0.00    +0.000 C 
ATOM     13  O   UNL     1       3.447   1.507  18.007  0.00  0.00    +0.000 OA
ATOM     14  N   UNL     1       3.076   3.351  19.303  0.00  0.00    +0.000 N 
ATOM     15  H   UNL     1       2.899   4.353  19.319  0.00  0.00    +0.000 HD
BRANCH  14  16
ATOM     16  C   UNL     1       3.042   2.606  20.560  0.00  0.00    +0.000 C 
BRANCH  16  17
ATOM     17  C   UNL     1       1.936   2.999  21.551  0.00  0.00    +0.000 C 
ATOM     18  F   UNL     1       2.316   3.995  22.383  0.00  0.00    +0.000 F 
ATOM     19  F   UNL     1       0.840   3.432  20.883  0.00  0.00    +0.000 F 
ATOM     20  F   UNL     1       1.553   1.948  22.310  0.00  0.00    +0.000 F 
ENDBRANCH  16  17
ENDBRANCH  14  16
ENDBRANCH  11  12
ENDBRANCH   1  11
TORSDOF 8
ENDMDL
MODEL 2
REMARK VINA RESULT:      -6.0      1.517      1.744
REMARK  Name = 
REMARK  9 active torsions:
REMARK  status: ('A' for Active; 'I' for Inactive)
REMARK    1  A    between atoms: C_1  and  O_2
REMARK    2  A    between atoms: O_2  and  C_3
REMARK    3  A    between atoms: C_3  and  C_4
REMARK    4  A    between atoms: C_4  and  N_5
REMARK    5  A    between atoms: C_9  and  S_10
REMARK    6  A    between atoms: S_10  and  C_11
REMARK    7  A    between atoms: C_11  and  C_12
REMARK    8  A    between atoms: N_14  and  C_15
REMARK    9  A    between atoms: C_15  and  C_16
REMARK                            x       y       z     vdW  Elec       q    Type
REMARK                         _______ _______ _______ _____ _____    ______ ____
ROOT
ATOM      1  S   UNL     1       4.522   6.841  16.968  0.00  0.00    +0.000 S 
ENDROOT
BRANCH   1   6
ATOM      2  N   UNL     1       6.703   5.196  16.752  0.00  0.00    +0.000 N 
ATOM      3  C   UNL     1       7.541   4.547  17.614  0.00  0.00    +0.000 A 
ATOM      4  N   UNL     1       7.220   4.838  18.853  0.00  0.00    +0.000 NA
ATOM      5  N   UNL     1       6.137   5.687  18.812  0.00  0.00    +0.000 NA
ATOM      6  C   UNL     1       5.822   5.866  17.550  0.00  0.00    +0.000 A 
BRANCH   2   7
ATOM      7  C   UNL     1       6.790   5.149  15.309  0.00  0.00    +0.000 C 
BRANCH   7   8
ATOM      8  C   UNL     1       6.307   3.832  14.700  0.00  0.00    +0.000 C 
BRANCH   8  10
ATOM      9  C   UNL     1       5.924   3.328  12.435  0.00  0.00    +0.000 C 
ATOM     10  O   UNL     1       5.490   4.091  13.558  0.00  0.00    +0.000 OA
ENDBRANCH   8  10
ENDBRANCH   7   8
ENDBRANCH   2   7
ENDBRANCH   1   6
BRANCH   1  11
ATOM     11  C   UNL     1       3.398   6.760  18.393  0.00  0.00    +0.000 C 
BRANCH  11  12
ATOM     12  C   UNL     1       2.848   5.352  18.561  0.00  0.00    +0.000 C 
ATOM     13  O   UNL     1       2.242   4.760  17.671  0.00  0.00    +0.000 OA
ATOM     14  N   UNL     1       3.057   4.795  19.805  0.00  0.00    +0.000 N 
ATOM     15  H   UNL     1       3.500   5.351  20.533  0.00  0.00    +0.000 HD
BRANCH  14  16
ATOM     16  C   UNL     1       2.631   3.431  20.116  0.00  0.00    +0.000 C 
BRANCH  16  17
ATOM     17  C   UNL     1       1.154   3.253  20.496  0.00  0.00    +0.000 C 
ATOM     18  F   UNL     1       0.996   2.623  21.682  0.00  0.00    +0.000 F 
ATOM     19  F   UNL     1       0.547   4.460  20.600  0.00  0.00    +0.000 F 
ATOM     20  F   UNL     1       0.481   2.547  19.559  0.00  0.00    +0.000 F 
ENDBRANCH  16  17
ENDBRANCH  14  16
ENDBRANCH  11  12
ENDBRANCH   1  11
TORSDOF 8
ENDMDL
MODEL 3
REMARK VINA RESULT:      -6.0      0.875      1.202
REMARK  Name = 
REMARK  9 active torsions:
REMARK  status: ('A' for Active; 'I' for Inactive)
REMARK    1  A    between atoms: C_1  and  O_2
REMARK    2  A    between atoms: O_2  and  C_3
REMARK    3  A    between atoms: C_3  and  C_4
REMARK    4  A    between atoms: C_4  and  N_5
REMARK    5  A    between atoms: C_9  and  S_10
REMARK    6  A    between atoms: S_10  and  C_11
REMARK    7  A    between atoms: C_11  and  C_12
REMARK    8  A    between atoms: N_14  and  C_15
REMARK    9  A    between atoms: C_15  and  C_16
REMARK                            x       y       z     vdW  Elec       q    Type
REMARK                         _______ _______ _______ _____ _____    ______ ____
ROOT
ATOM      1  S   UNL     1       4.026   5.731  17.989  0.00  0.00    +0.000 S 
ENDROOT
BRANCH   1   6
ATOM      2  N   UNL     1       6.338   4.981  16.722  0.00  0.00    +0.000 N 
ATOM      3  C   UNL     1       7.577   4.549  17.100  0.00  0.00    +0.000 A 
ATOM      4  N   UNL     1       7.666   4.541  18.411  0.00  0.00    +0.000 NA
ATOM      5  N   UNL     1       6.455   4.963  18.911  0.00  0.00    +0.000 NA
ATOM      6  C   UNL     1       5.663   5.193  17.889  0.00  0.00    +0.000 A 
BRANCH   2   7
ATOM      7  C   UNL     1       5.898   5.164  15.356  0.00  0.00    +0.000 C 
BRANCH   7   8
ATOM      8  C   UNL     1       6.833   4.547  14.315  0.00  0.00    +0.000 C 
BRANCH   8  10
ATOM      9  C   UNL     1       6.695   3.782  12.096  0.00  0.00    +0.000 C 
ATOM     10  O   UNL     1       6.082   3.771  13.382  0.00  0.00    +0.000 OA
ENDBRANCH   8  10
ENDBRANCH   7   8
ENDBRANCH   2   7
ENDBRANCH   1   6
BRANCH   1  11
ATOM     11  C   UNL     1       3.171   4.286  17.296  0.00  0.00    +0.000 C 
BRANCH  11  12
ATOM     12  C   UNL     1       2.971   3.221  18.362  0.00  0.00    +0.000 C 
ATOM     13  O   UNL     1       3.806   2.352  18.604  0.00  0.00    +0.000 OA
ATOM     14  N   UNL     1       1.762   3.284  19.023  0.00  0.00    +0.000 N 
ATOM     15  H   UNL     1       1.073   3.977  18.738  0.00  0.00    +0.000 HD
BRANCH  14  16
ATOM     16  C   UNL     1       1.432   2.361  20.107  0.00  0.00    +0.000 C 
BRANCH  16  17
ATOM     17  C   UNL     1       1.729   2.855  21.531  0.00  0.00    +0.000 C 
ATOM     18  F   UNL     1       0.855   2.369  22.441  0.00  0.00    +0.000 F 
ATOM     19  F   UNL     1       2.967   2.460  21.916  0.00  0.00    +0.000 F 
ATOM     20  F   UNL     1       1.698   4.204  21.606  0.00  0.00    +0.000 F 
ENDBRANCH  16  17
ENDBRANCH  14  16
ENDBRANCH  11  12
ENDBRANCH   1  11
TORSDOF 8
ENDMDL
MODEL 4
REMARK VINA RESULT:      -6.0      1.433      1.664
REMARK  Name = 
REMARK  9 active torsions:
REMARK  status: ('A' for Active; 'I' for Inactive)
REMARK    1  A    between atoms: C_1  and  O_2
REMARK    2  A    between atoms: O_2  and  C_3
REMARK    3  A    between atoms: C_3  and  C_4
REMARK    4  A    between atoms: C_4  and  N_5
REMARK    5  A    between atoms: C_9  and  S_10
REMARK    6  A    between atoms: S_10  and  C_11
REMARK    7  A    between atoms: C_11  and  C_12
REMARK    8  A    between atoms: N_14  and  C_15
REMARK    9  A    between atoms: C_15  and  C_16
REMARK                            x       y       z     vdW  Elec       q    Type
REMARK                         _______ _______ _______ _____ _____    ______ ____
ROOT
ATOM      1  S   UNL     1       4.339   5.495  17.908  0.00  0.00    +0.000 S 
ENDROOT
BRANCH   1   6
ATOM      2  N   UNL     1       6.966   6.225  18.179  0.00  0.00    +0.000 N 
ATOM      3  C   UNL     1       7.971   5.989  19.074  0.00  0.00    +0.000 A 
ATOM      4  N   UNL     1       7.521   5.257  20.067  0.00  0.00    +0.000 NA
ATOM      5  N   UNL     1       6.193   4.990  19.818  0.00  0.00    +0.000 NA
ATOM      6  C   UNL     1       5.886   5.551  18.670  0.00  0.00    +0.000 A 
BRANCH   2   7
ATOM      7  C   UNL     1       7.084   7.035  16.986  0.00  0.00    +0.000 C 
BRANCH   7   8
ATOM      8  C   UNL     1       6.507   6.381  15.731  0.00  0.00    +0.000 C 
BRANCH   8  10
ATOM      9  C   UNL     1       6.707   4.344  14.572  0.00  0.00    +0.000 C 
ATOM     10  O   UNL     1       7.410   5.391  15.236  0.00  0.00    +0.000 OA
ENDBRANCH   8  10
ENDBRANCH   7   8
ENDBRANCH   2   7
ENDBRANCH   1   6
BRANCH   1  11
ATOM     11  C   UNL     1       4.312   3.761  17.365  0.00  0.00    +0.000 C 
BRANCH  11  12
ATOM     12  C   UNL     1       3.449   2.923  18.295  0.00  0.00    +0.000 C 
ATOM     13  O   UNL     1       2.753   1.990  17.902  0.00  0.00    +0.000 OA
ATOM     14  N   UNL     1       3.483   3.310  19.619  0.00  0.00    +0.000 N 
ATOM     15  H   UNL     1       4.017   4.134  19.885  0.00  0.00    +0.000 HD
BRANCH  14  16
ATOM     16  C   UNL     1       2.746   2.581  20.649  0.00  0.00    +0.000 C 
BRANCH  16  17
ATOM     17  C   UNL     1       1.334   3.095  20.963  0.00  0.00    +0.000 C 
ATOM     18  F   UNL     1       1.291   4.439  21.106  0.00  0.00    +0.000 F 
ATOM     19  F   UNL     1       0.482   2.772  19.959  0.00  0.00    +0.000 F 
ATOM     20  F   UNL     1       0.844   2.542  22.096  0.00  0.00    +0.000 F 
ENDBRANCH  16  17
ENDBRANCH  14  16
ENDBRANCH  11  12
ENDBRANCH   1  11
TORSDOF 8
ENDMDL
MODEL 5
REMARK VINA RESULT:      -6.0      1.019      1.521
REMARK  Name = 
REMARK  9 active torsions:
REMARK  status: ('A' for Active; 'I' for Inactive)
REMARK    1  A    between atoms: C_1  and  O_2
REMARK    2  A    between atoms: O_2  and  C_3
REMARK    3  A    between atoms: C_3  and  C_4
REMARK    4  A    between atoms: C_4  and  N_5
REMARK    5  A    between atoms: C_9  and  S_10
REMARK    6  A    between atoms: S_10  and  C_11
REMARK    7  A    between atoms: C_11  and  C_12
REMARK    8  A    between atoms: N_14  and  C_15
REMARK    9  A    between atoms: C_15  and  C_16
REMARK                            x       y       z     vdW  Elec       q    Type
REMARK                         _______ _______ _______ _____ _____    ______ ____
ROOT
ATOM      1  S   UNL     1       4.240   5.248  17.390  0.00  0.00    +0.000 S 
ENDROOT
BRANCH   1   6
ATOM      2  N   UNL     1       6.943   4.901  17.683  0.00  0.00    +0.000 N 
ATOM      3  C   UNL     1       7.844   4.974  18.707  0.00  0.00    +0.000 A 
ATOM      4  N   UNL     1       7.236   5.349  19.810  0.00  0.00    +0.000 NA
ATOM      5  N   UNL     1       5.902   5.513  19.513  0.00  0.00    +0.000 NA
ATOM      6  C   UNL     1       5.739   5.212  18.245  0.00  0.00    +0.000 A 
BRANCH   2   7
ATOM      7  C   UNL     1       7.262   4.568  16.312  0.00  0.00    +0.000 C 
BRANCH   7   8
ATOM      8  C   UNL     1       6.989   5.696  15.318  0.00  0.00    +0.000 C 
BRANCH   8  10
ATOM      9  C   UNL     1       6.272   3.918  13.957  0.00  0.00    +0.000 C 
ATOM     10  O   UNL     1       6.939   5.177  13.989  0.00  0.00    +0.000 OA
ENDBRANCH   8  10
ENDBRANCH   7   8
ENDBRANCH   2   7
ENDBRANCH   1   6
BRANCH   1  11
ATOM     11  C   UNL     1       4.032   3.478  17.033  0.00  0.00    +0.000 C 
BRANCH  11  12
ATOM     12  C   UNL     1       3.535   2.740  18.265  0.00  0.00    +0.000 C 
ATOM     13  O   UNL     1       3.422   1.517  18.312  0.00  0.00    +0.000 OA
ATOM     14  N   UNL     1       3.189   3.552  19.325  0.00  0.00    +0.000 N 
ATOM     15  H   UNL     1       3.230   4.563  19.214  0.00  0.00    +0.000 HD
BRANCH  14  16
ATOM     16  C   UNL     1       2.735   2.997  20.599  0.00  0.00    +0.000 C 
BRANCH  16  17
ATOM     17  C   UNL     1       1.231   3.104  20.887  0.00  0.00    +0.000 C 
ATOM     18  F   UNL     1       0.479   2.465  19.963  0.00  0.00    +0.000 F 
ATOM     19  F   UNL     1       0.943   2.548  22.090  0.00  0.00    +0.000 F 
ATOM     20  F   UNL     1       0.823   4.392  20.934  0.00  0.00    +0.000 F 
ENDBRANCH  16  17
ENDBRANCH  14  16
ENDBRANCH  11  12
ENDBRANCH   1  11
TORSDOF 8
ENDMDL
MODEL 6
REMARK VINA RESULT:      -6.0      1.964      2.233
REMARK  Name = 
REMARK  9 active torsions:
REMARK  status: ('A' for Active; 'I' for Inactive)
REMARK    1  A    between atoms: C_1  and  O_2
REMARK    2  A    between atoms: O_2  and  C_3
REMARK    3  A    between atoms: C_3  and  C_4
REMARK    4  A    between atoms: C_4  and  N_5
REMARK    5  A    between atoms: C_9  and  S_10
REMARK    6  A    between atoms: S_10  and  C_11
REMARK    7  A    between atoms: C_11  and  C_12
REMARK    8  A    between atoms: N_14  and  C_15
REMARK    9  A    between atoms: C_15  and  C_16
REMARK                            x       y       z     vdW  Elec       q    Type
REMARK                         _______ _______ _______ _____ _____    ______ ____
ROOT
ATOM      1  S   UNL     1       3.653   5.384  17.519  0.00  0.00    +0.000 S 
ENDROOT
BRANCH   1   6
ATOM      2  N   UNL     1       6.281   5.005  16.842  0.00  0.00    +0.000 N 
ATOM      3  C   UNL     1       7.438   4.700  17.501  0.00  0.00    +0.000 A 
ATOM      4  N   UNL     1       7.207   4.613  18.791  0.00  0.00    +0.000 NA
ATOM      5  N   UNL     1       5.866   4.852  18.989  0.00  0.00    +0.000 NA
ATOM      6  C   UNL     1       5.321   5.055  17.810  0.00  0.00    +0.000 A 
BRANCH   2   7
ATOM      7  C   UNL     1       6.165   5.226  15.416  0.00  0.00    +0.000 C 
BRANCH   7   8
ATOM      8  C   UNL     1       6.331   3.960  14.576  0.00  0.00    +0.000 C 
BRANCH   8  10
ATOM      9  C   UNL     1       5.962   3.404  12.321  0.00  0.00    +0.000 C 
ATOM     10  O   UNL     1       5.390   3.958  13.503  0.00  0.00    +0.000 OA
ENDBRANCH   8  10
ENDBRANCH   7   8
ENDBRANCH   2   7
ENDBRANCH   1   6
BRANCH   1  11
ATOM     11  C   UNL     1       3.368   6.702  18.736  0.00  0.00    +0.000 C 
BRANCH  11  12
ATOM     12  C   UNL     1       2.559   6.179  19.911  0.00  0.00    +0.000 C 
ATOM     13  O   UNL     1       1.654   6.821  20.439  0.00  0.00    +0.000 OA
ATOM     14  N   UNL     1       2.936   4.931  20.364  0.00  0.00    +0.000 N 
ATOM     15  H   UNL     1       3.739   4.469  19.942  0.00  0.00    +0.000 HD
BRANCH  14  16
ATOM     16  C   UNL     1       2.230   4.266  21.456  0.00  0.00    +0.000 C 
BRANCH  16  17
ATOM     17  C   UNL     1       1.364   3.059  21.067  0.00  0.00    +0.000 C 
ATOM     18  F   UNL     1       2.069   2.098  20.430  0.00  0.00    +0.000 F 
ATOM     19  F   UNL     1       0.825   2.492  22.174  0.00  0.00    +0.000 F 
ATOM     20  F   UNL     1       0.338   3.421  20.264  0.00  0.00    +0.000 F 
ENDBRANCH  16  17
ENDBRANCH  14  16
ENDBRANCH  11  12
ENDBRANCH   1  11
TORSDOF 8
ENDMDL
MODEL 7
REMARK VINA RESULT:      -6.0      0.946      1.106
REMARK  Name = 
REMARK  9 active torsions:
REMARK  status: ('A' for Active; 'I' for Inactive)
REMARK    1  A    between atoms: C_1  and  O_2
REMARK    2  A    between atoms: O_2  and  C_3
REMARK    3  A    between atoms: C_3  and  C_4
REMARK    4  A    between atoms: C_4  and  N_5
REMARK    5  A    between atoms: C_9  and  S_10
REMARK    6  A    between atoms: S_10  and  C_11
REMARK    7  A    between atoms: C_11  and  C_12
REMARK    8  A    between atoms: N_14  and  C_15
REMARK    9  A    between atoms: C_15  and  C_16
REMARK                            x       y       z     vdW  Elec       q    Type
REMARK                         _______ _______ _______ _____ _____    ______ ____
ROOT
ATOM      1  S   UNL     1       3.846   5.350  17.636  0.00  0.00    +0.000 S 
ENDROOT
BRANCH   1   6
ATOM      2  N   UNL     1       6.399   4.971  16.716  0.00  0.00    +0.000 N 
ATOM      3  C   UNL     1       7.605   4.627  17.258  0.00  0.00    +0.000 A 
ATOM      4  N   UNL     1       7.487   4.491  18.559  0.00  0.00    +0.000 NA
ATOM      5  N   UNL     1       6.172   4.736  18.883  0.00  0.00    +0.000 NA
ATOM      6  C   UNL     1       5.529   4.991  17.766  0.00  0.00    +0.000 A 
BRANCH   2   7
ATOM      7  C   UNL     1       6.163   5.251  15.316  0.00  0.00    +0.000 C 
BRANCH   7   8
ATOM      8  C   UNL     1       5.830   4.013  14.483  0.00  0.00    +0.000 C 
BRANCH   8  10
ATOM      9  C   UNL     1       7.567   5.056  13.288  0.00  0.00    +0.000 C 
ATOM     10  O   UNL     1       6.591   4.017  13.275  0.00  0.00    +0.000 OA
ENDBRANCH   8  10
ENDBRANCH   7   8
ENDBRANCH   2   7
ENDBRANCH   1   6
BRANCH   1  11
ATOM     11  C   UNL     1       3.227   3.760  17.009  0.00  0.00    +0.000 C 
BRANCH  11  12
ATOM     12  C   UNL     1       2.409   3.048  18.074  0.00  0.00    +0.000 C 
ATOM     13  O   UNL     1       2.242   1.831  18.087  0.00  0.00    +0.000 OA
ATOM     14  N   UNL     1       1.840   3.878  19.017  0.00  0.00    +0.000 N 
ATOM     15  H   UNL     1       1.946   4.886  18.924  0.00  0.00    +0.000 HD
BRANCH  14  16
ATOM     16  C   UNL     1       1.061   3.349  20.135  0.00  0.00    +0.000 C 
BRANCH  16  17
ATOM     17  C   UNL     1       1.833   3.089  21.436  0.00  0.00    +0.000 C 
ATOM     18  F   UNL     1       2.287   4.228  22.006  0.00  0.00    +0.000 F 
ATOM     19  F   UNL     1       1.032   2.479  22.344  0.00  0.00    +0.000 F 
ATOM     20  F   UNL     1       2.895   2.278  21.231  0.00  0.00    +0.000 F 
ENDBRANCH  16  17
ENDBRANCH  14  16
ENDBRANCH  11  12
ENDBRANCH   1  11
TORSDOF 8
ENDMDL
MODEL 8
REMARK VINA RESULT:      -6.0      4.029      6.702
REMARK  Name = 
REMARK  9 active torsions:
REMARK  status: ('A' for Active; 'I' for Inactive)
REMARK    1  A    between atoms: C_1  and  O_2
REMARK    2  A    between atoms: O_2  and  C_3
REMARK    3  A    between atoms: C_3  and  C_4
REMARK    4  A    between atoms: C_4  and  N_5
REMARK    5  A    between atoms: C_9  and  S_10
REMARK    6  A    between atoms: S_10  and  C_11
REMARK    7  A    between atoms: C_11  and  C_12
REMARK    8  A    between atoms: N_14  and  C_15
REMARK    9  A    between atoms: C_15  and  C_16
REMARK                            x       y       z     vdW  Elec       q    Type
REMARK                         _______ _______ _______ _____ _____    ______ ____
ROOT
ATOM      1  S   UNL     1       4.822   4.039  19.234  0.00  0.00    +0.000 S 
ENDROOT
BRANCH   1   6
ATOM      2  N   UNL     1       2.589   4.955  20.533  0.00  0.00    +0.000 N 
ATOM      3  C   UNL     1       1.802   6.071  20.479  0.00  0.00    +0.000 A 
ATOM      4  N   UNL     1       2.289   6.919  19.603  0.00  0.00    +0.000 NA
ATOM      5  N   UNL     1       3.415   6.347  19.053  0.00  0.00    +0.000 NA
ATOM      6  C   UNL     1       3.562   5.161  19.598  0.00  0.00    +0.000 A 
BRANCH   2   7
ATOM      7  C   UNL     1       2.386   3.832  21.421  0.00  0.00    +0.000 C 
BRANCH   7   8
ATOM      8  C   UNL     1       1.220   2.927  21.021  0.00  0.00    +0.000 C 
BRANCH   8  10
ATOM      9  C   UNL     1       0.918   2.447  18.739  0.00  0.00    +0.000 C 
ATOM     10  O   UNL     1       1.605   2.085  19.934  0.00  0.00    +0.000 OA
ENDBRANCH   8  10
ENDBRANCH   7   8
ENDBRANCH   2   7
ENDBRANCH   1   6
BRANCH   1  11
ATOM     11  C   UNL     1       6.220   5.181  19.031  0.00  0.00    +0.000 C 
BRANCH  11  12
ATOM     12  C   UNL     1       6.910   4.949  17.697  0.00  0.00    +0.000 C 
ATOM     13  O   UNL     1       8.010   4.411  17.597  0.00  0.00    +0.000 OA
ATOM     14  N   UNL     1       6.217   5.416  16.599  0.00  0.00    +0.000 N 
ATOM     15  H   UNL     1       5.343   5.920  16.737  0.00  0.00    +0.000 HD
BRANCH  14  16
ATOM     16  C   UNL     1       6.721   5.231  15.239  0.00  0.00    +0.000 C 
BRANCH  16  17
ATOM     17  C   UNL     1       6.099   4.079  14.437  0.00  0.00    +0.000 C 
ATOM     18  F   UNL     1       6.840   3.739  13.358  0.00  0.00    +0.000 F 
ATOM     19  F   UNL     1       5.991   2.972  15.212  0.00  0.00    +0.000 F 
ATOM     20  F   UNL     1       4.855   4.387  14.005  0.00  0.00    +0.000 F 
ENDBRANCH  16  17
ENDBRANCH  14  16
ENDBRANCH  11  12
ENDBRANCH   1  11
TORSDOF 8
ENDMDL
MODEL 9
REMARK VINA RESULT:      -5.9      4.103      6.474
REMARK  Name = 
REMARK  9 active torsions:
REMARK  status: ('A' for Active; 'I' for Inactive)
REMARK    1  A    between atoms: C_1  and  O_2
REMARK    2  A    between atoms: O_2  and  C_3
REMARK    3  A    between atoms: C_3  and  C_4
REMARK    4  A    between atoms: C_4  and  N_5
REMARK    5  A    between atoms: C_9  and  S_10
REMARK    6  A    between atoms: S_10  and  C_11
REMARK    7  A    between atoms: C_11  and  C_12
REMARK    8  A    between atoms: N_14  and  C_15
REMARK    9  A    between atoms: C_15  and  C_16
REMARK                            x       y       z     vdW  Elec       q    Type
REMARK                         _______ _______ _______ _____ _____    ______ ____
ROOT
ATOM      1  S   UNL     1       4.491   2.401  19.488  0.00  0.00    +0.000 S 
ENDROOT
BRANCH   1   6
ATOM      2  N   UNL     1       1.805   2.826  19.830  0.00  0.00    +0.000 N 
ATOM      3  C   UNL     1       0.952   2.961  20.888  0.00  0.00    +0.000 A 
ATOM      4  N   UNL     1       1.609   2.798  22.014  0.00  0.00    +0.000 NA
ATOM      5  N   UNL     1       2.928   2.566  21.695  0.00  0.00    +0.000 NA
ATOM      6  C   UNL     1       3.033   2.616  20.386  0.00  0.00    +0.000 A 
BRANCH   2   7
ATOM      7  C   UNL     1       1.423   2.894  18.436  0.00  0.00    +0.000 C 
BRANCH   7   8
ATOM      8  C   UNL     1       1.423   4.310  17.861  0.00  0.00    +0.000 C 
BRANCH   8  10
ATOM      9  C   UNL     1       2.502   6.386  18.106  0.00  0.00    +0.000 C 
ATOM     10  O   UNL     1       2.053   5.210  18.774  0.00  0.00    +0.000 OA
ENDBRANCH   8  10
ENDBRANCH   7   8
ENDBRANCH   2   7
ENDBRANCH   1   6
BRANCH   1  11
ATOM     11  C   UNL     1       5.077   4.120  19.411  0.00  0.00    +0.000 C 
BRANCH  11  12
ATOM     12  C   UNL     1       6.105   4.284  18.304  0.00  0.00    +0.000 C 
ATOM     13  O   UNL     1       7.249   4.684  18.508  0.00  0.00    +0.000 OA
ATOM     14  N   UNL     1       5.648   3.977  17.039  0.00  0.00    +0.000 N 
ATOM     15  H   UNL     1       4.672   3.720  16.910  0.00  0.00    +0.000 HD
BRANCH  14  16
ATOM     16  C   UNL     1       6.524   4.039  15.871  0.00  0.00    +0.000 C 
BRANCH  16  17
ATOM     17  C   UNL     1       6.005   4.852  14.677  0.00  0.00    +0.000 C 
ATOM     18  F   UNL     1       6.989   5.197  13.817  0.00  0.00    +0.000 F 
ATOM     19  F   UNL     1       5.098   4.128  13.975  0.00  0.00    +0.000 F 
ATOM     20  F   UNL     1       5.387   5.986  15.078  0.00  0.00    +0.000 F 
ENDBRANCH  16  17
ENDBRANCH  14  16
ENDBRANCH  11  12
ENDBRANCH   1  11
TORSDOF 8
ENDMDL
