MODEL 1
REMARK VINA RESULT:      -7.8      0.000      0.000
REMARK  Name = 
REMARK  3 active torsions:
REMARK  status: ('A' for Active; 'I' for Inactive)
REMARK    1  A    between atoms: N_3  and  C_4
REMARK    2  A    between atoms: C_15  and  C_16
REMARK    3  A    between atoms: C_29  and  O_30
REMARK                            x       y       z     vdW  Elec       q    Type
REMARK                         _______ _______ _______ _____ _____    ______ ____
ROOT
ATOM      1  C   UNL     1      -4.934  12.664  19.914  0.00  0.00    +0.000 A 
ATOM      2  C   UNL     1      -5.899  11.891  19.298  0.00  0.00    +0.000 A 
ATOM      3  N   UNL     1      -5.353  11.099  18.320  0.00  0.00    +0.000 NA
ATOM      4  C   UNL     1      -4.065  11.368  18.344  0.00  0.00    +0.000 A 
ATOM      5  C   UNL     1      -3.012  10.859  17.568  0.00  0.00    +0.000 A 
ATOM      6  C   UNL     1      -1.771  11.281  17.816  0.00  0.00    +0.000 A 
ATOM      7  C   UNL     1      -1.528  12.238  18.951  0.00  0.00    +0.000 A 
ATOM      8  N   UNL     1      -0.216  12.527  19.243  0.00  0.00    +0.000 N 
ATOM      9  C   UNL     1       0.721  13.096  18.285  0.00  0.00    +0.000 C 
ATOM     10  C   UNL     1       2.070  12.757  18.895  0.00  0.00    +0.000 C 
ATOM     11  C   UNL     1       1.823  12.964  20.386  0.00  0.00    +0.000 C 
ATOM     12  C   UNL     1       0.335  12.593  20.601  0.00  0.00    +0.000 C 
ATOM     13  N   UNL     1      -2.498  12.744  19.675  0.00  0.00    +0.000 NA
ATOM     14  N   UNL     1      -3.746  12.297  19.314  0.00  0.00    +0.000 N 
ENDROOT
BRANCH   1  17
ATOM     15  O   UNL     1      -4.282  12.228  22.582  0.00  0.00    +0.000 OA
ATOM     16  C   UNL     1      -4.753  13.310  22.278  0.00  0.00    +0.000 C 
ATOM     17  N   UNL     1      -5.061  13.611  20.928  0.00  0.00    +0.000 N 
ATOM     18  N   UNL     1      -4.916  14.365  23.145  0.00  0.00    +0.000 N 
ATOM     19  C   UNL     1      -4.250  14.288  24.441  0.00  0.00    +0.000 C 
ATOM     20  C   UNL     1      -3.383  15.529  24.639  0.00  0.00    +0.000 C 
ATOM     21  C   UNL     1      -4.184  16.818  24.448  0.00  0.00    +0.000 C 
ATOM     22  C   UNL     1      -5.010  16.812  23.155  0.00  0.00    +0.000 C 
ATOM     23  C   UNL     1      -5.794  15.517  22.976  0.00  0.00    +0.000 C 
ATOM     24  H   UNL     1      -5.239  14.555  20.621  0.00  0.00    +0.000 HD
BRANCH  21  25
ATOM     25  O   UNL     1      -5.030  17.055  25.569  0.00  0.00    +0.000 OA
ATOM     26  H   UNL     1      -5.834  16.516  25.505  0.00  0.00    +0.000 HD
ENDBRANCH  21  25
ENDBRANCH   1  17
BRANCH  12  27
ATOM     27  C   UNL     1       0.185  11.275  21.331  0.00  0.00    +0.000 A 
ATOM     28  C   UNL     1       0.815  10.097  20.894  0.00  0.00    +0.000 A 
ATOM     29  C   UNL     1       0.706   8.923  21.635  0.00  0.00    +0.000 A 
ATOM     30  F   UNL     1       1.333   7.819  21.211  0.00  0.00    +0.000 F 
ATOM     31  C   UNL     1      -0.032   8.882  22.813  0.00  0.00    +0.000 A 
ATOM     32  C   UNL     1      -0.682  10.035  23.249  0.00  0.00    +0.000 A 
ATOM     33  C   UNL     1      -0.572  11.213  22.509  0.00  0.00    +0.000 A 
ATOM     34  F   UNL     1      -1.202  12.309  22.959  0.00  0.00    +0.000 F 
ENDBRANCH  12  27
TORSDOF 3
ENDMDL
MODEL 2
REMARK VINA RESULT:      -6.9      1.463      1.897
REMARK  Name = 
REMARK  3 active torsions:
REMARK  status: ('A' for Active; 'I' for Inactive)
REMARK    1  A    between atoms: N_3  and  C_4
REMARK    2  A    between atoms: C_15  and  C_16
REMARK    3  A    between atoms: C_29  and  O_30
REMARK                            x       y       z     vdW  Elec       q    Type
REMARK                         _______ _______ _______ _____ _____    ______ ____
ROOT
ATOM      1  C   UNL     1      -5.171  12.273  19.533  0.00  0.00    +0.000 A 
ATOM      2  C   UNL     1      -6.068  11.425  18.913  0.00  0.00    +0.000 A 
ATOM      3  N   UNL     1      -5.439  10.615  18.002  0.00  0.00    +0.000 NA
ATOM      4  C   UNL     1      -4.168  10.948  18.072  0.00  0.00    +0.000 A 
ATOM      5  C   UNL     1      -3.057  10.455  17.370  0.00  0.00    +0.000 A 
ATOM      6  C   UNL     1      -1.850  10.949  17.653  0.00  0.00    +0.000 A 
ATOM      7  C   UNL     1      -1.707  11.970  18.749  0.00  0.00    +0.000 A 
ATOM      8  N   UNL     1      -0.425  12.336  19.085  0.00  0.00    +0.000 N 
ATOM      9  C   UNL     1       0.530  12.904  18.143  0.00  0.00    +0.000 C 
ATOM     10  C   UNL     1       1.861  12.661  18.831  0.00  0.00    +0.000 C 
ATOM     11  C   UNL     1       1.534  12.927  20.297  0.00  0.00    +0.000 C 
ATOM     12  C   UNL     1       0.057  12.494  20.462  0.00  0.00    +0.000 C 
ATOM     13  N   UNL     1      -2.732  12.461  19.401  0.00  0.00    +0.000 NA
ATOM     14  N   UNL     1      -3.940  11.937  19.007  0.00  0.00    +0.000 N 
ENDROOT
BRANCH   1  17
ATOM     15  O   UNL     1      -6.024  14.862  18.978  0.00  0.00    +0.000 OA
ATOM     16  C   UNL     1      -5.783  14.575  20.138  0.00  0.00    +0.000 C 
ATOM     17  N   UNL     1      -5.391  13.260  20.492  0.00  0.00    +0.000 N 
ATOM     18  N   UNL     1      -5.976  15.416  21.209  0.00  0.00    +0.000 N 
ATOM     19  C   UNL     1      -6.758  16.628  20.988  0.00  0.00    +0.000 C 
ATOM     20  C   UNL     1      -7.906  16.679  21.993  0.00  0.00    +0.000 C 
ATOM     21  C   UNL     1      -7.408  16.535  23.432  0.00  0.00    +0.000 C 
ATOM     22  C   UNL     1      -6.453  15.349  23.610  0.00  0.00    +0.000 C 
ATOM     23  C   UNL     1      -5.374  15.309  22.533  0.00  0.00    +0.000 C 
ATOM     24  H   UNL     1      -5.401  12.942  21.449  0.00  0.00    +0.000 HD
BRANCH  21  25
ATOM     25  O   UNL     1      -6.783  17.738  23.870  0.00  0.00    +0.000 OA
ATOM     26  H   UNL     1      -7.380  18.238  24.448  0.00  0.00    +0.000 HD
ENDBRANCH  21  25
ENDBRANCH   1  17
BRANCH  12  27
ATOM     27  C   UNL     1      -0.066  11.207  21.249  0.00  0.00    +0.000 A 
ATOM     28  C   UNL     1       0.476   9.992  20.794  0.00  0.00    +0.000 A 
ATOM     29  C   UNL     1       0.400   8.847  21.584  0.00  0.00    +0.000 A 
ATOM     30  F   UNL     1       0.944   7.707  21.141  0.00  0.00    +0.000 F 
ATOM     31  C   UNL     1      -0.219   8.872  22.829  0.00  0.00    +0.000 A 
ATOM     32  C   UNL     1      -0.783  10.062  23.285  0.00  0.00    +0.000 A 
ATOM     33  C   UNL     1      -0.705  11.211  22.497  0.00  0.00    +0.000 A 
ATOM     34  F   UNL     1      -1.249  12.344  22.967  0.00  0.00    +0.000 F 
ENDBRANCH  12  27
TORSDOF 3
ENDMDL
MODEL 3
REMARK VINA RESULT:      -6.9      2.913      6.943
REMARK  Name = 
REMARK  3 active torsions:
REMARK  status: ('A' for Active; 'I' for Inactive)
REMARK    1  A    between atoms: N_3  and  C_4
REMARK    2  A    between atoms: C_15  and  C_16
REMARK    3  A    between atoms: C_29  and  O_30
REMARK                            x       y       z     vdW  Elec       q    Type
REMARK                         _______ _______ _______ _____ _____    ______ ____
ROOT
ATOM      1  C   UNL     1      -2.641  10.750  17.567  0.00  0.00    +0.000 A 
ATOM      2  C   UNL     1      -2.574  10.819  16.189  0.00  0.00    +0.000 A 
ATOM      3  N   UNL     1      -3.755  11.265  15.653  0.00  0.00    +0.000 NA
ATOM      4  C   UNL     1      -4.536  11.484  16.689  0.00  0.00    +0.000 A 
ATOM      5  C   UNL     1      -5.861  11.946  16.752  0.00  0.00    +0.000 A 
ATOM      6  C   UNL     1      -6.425  12.114  17.950  0.00  0.00    +0.000 A 
ATOM      7  C   UNL     1      -5.614  11.861  19.191  0.00  0.00    +0.000 A 
ATOM      8  N   UNL     1      -6.207  12.183  20.390  0.00  0.00    +0.000 N 
ATOM      9  C   UNL     1      -7.470  11.621  20.846  0.00  0.00    +0.000 C 
ATOM     10  C   UNL     1      -7.917  12.617  21.901  0.00  0.00    +0.000 C 
ATOM     11  C   UNL     1      -6.607  12.979  22.594  0.00  0.00    +0.000 C 
ATOM     12  C   UNL     1      -5.528  12.879  21.489  0.00  0.00    +0.000 C 
ATOM     13  N   UNL     1      -4.384  11.408  19.157  0.00  0.00    +0.000 NA
ATOM     14  N   UNL     1      -3.903  11.212  17.886  0.00  0.00    +0.000 N 
ENDROOT
BRANCH   1  17
ATOM     15  O   UNL     1      -1.407  12.400  19.435  0.00  0.00    +0.000 OA
ATOM     16  C   UNL     1      -1.061  11.232  19.386  0.00  0.00    +0.000 C 
ATOM     17  N   UNL     1      -1.684  10.330  18.489  0.00  0.00    +0.000 N 
ATOM     18  N   UNL     1      -0.156  10.647  20.239  0.00  0.00    +0.000 N 
ATOM     19  C   UNL     1       0.220  11.386  21.440  0.00  0.00    +0.000 C 
ATOM     20  C   UNL     1      -0.023  10.512  22.669  0.00  0.00    +0.000 C 
ATOM     21  C   UNL     1       0.676   9.157  22.550  0.00  0.00    +0.000 C 
ATOM     22  C   UNL     1       0.401   8.468  21.208  0.00  0.00    +0.000 C 
ATOM     23  C   UNL     1       0.587   9.411  20.024  0.00  0.00    +0.000 C 
ATOM     24  H   UNL     1      -1.577   9.331  18.579  0.00  0.00    +0.000 HD
BRANCH  21  25
ATOM     25  O   UNL     1       2.079   9.296  22.750  0.00  0.00    +0.000 OA
ATOM     26  H   UNL     1       2.397  10.123  22.353  0.00  0.00    +0.000 HD
ENDBRANCH  21  25
ENDBRANCH   1  17
BRANCH  12  27
ATOM     27  C   UNL     1      -5.030  14.244  21.063  0.00  0.00    +0.000 A 
ATOM     28  C   UNL     1      -5.868  15.193  20.453  0.00  0.00    +0.000 A 
ATOM     29  C   UNL     1      -5.385  16.462  20.141  0.00  0.00    +0.000 A 
ATOM     30  F   UNL     1      -6.207  17.357  19.581  0.00  0.00    +0.000 F 
ATOM     31  C   UNL     1      -4.069  16.818  20.415  0.00  0.00    +0.000 A 
ATOM     32  C   UNL     1      -3.218  15.881  21.000  0.00  0.00    +0.000 A 
ATOM     33  C   UNL     1      -3.700  14.610  21.314  0.00  0.00    +0.000 A 
ATOM     34  F   UNL     1      -2.860  13.734  21.884  0.00  0.00    +0.000 F 
ENDBRANCH  12  27
TORSDOF 3
ENDMDL
MODEL 4
REMARK VINA RESULT:      -6.7      7.871     10.457
REMARK  Name = 
REMARK  3 active torsions:
REMARK  status: ('A' for Active; 'I' for Inactive)
REMARK    1  A    between atoms: N_3  and  C_4
REMARK    2  A    between atoms: C_15  and  C_16
REMARK    3  A    between atoms: C_29  and  O_30
REMARK                            x       y       z     vdW  Elec       q    Type
REMARK                         _______ _______ _______ _____ _____    ______ ____
ROOT
ATOM      1  C   UNL     1       4.826  14.653  21.797  0.00  0.00    +0.000 A 
ATOM      2  C   UNL     1       3.605  14.381  21.211  0.00  0.00    +0.000 A 
ATOM      3  N   UNL     1       3.662  14.533  19.848  0.00  0.00    +0.000 NA
ATOM      4  C   UNL     1       4.906  14.879  19.596  0.00  0.00    +0.000 A 
ATOM      5  C   UNL     1       5.544  15.168  18.380  0.00  0.00    +0.000 A 
ATOM      6  C   UNL     1       6.845  15.468  18.394  0.00  0.00    +0.000 A 
ATOM      7  C   UNL     1       7.598  15.431  19.695  0.00  0.00    +0.000 A 
ATOM      8  N   UNL     1       8.959  15.615  19.623  0.00  0.00    +0.000 N 
ATOM      9  C   UNL     1       9.589  16.795  19.049  0.00  0.00    +0.000 C 
ATOM     10  C   UNL     1      10.998  16.312  18.754  0.00  0.00    +0.000 C 
ATOM     11  C   UNL     1      11.306  15.427  19.958  0.00  0.00    +0.000 C 
ATOM     12  C   UNL     1       9.942  14.819  20.368  0.00  0.00    +0.000 C 
ATOM     13  N   UNL     1       7.019  15.187  20.846  0.00  0.00    +0.000 NA
ATOM     14  N   UNL     1       5.671  14.944  20.744  0.00  0.00    +0.000 N 
ENDROOT
BRANCH   1  17
ATOM     15  O   UNL     1       5.659  12.399  23.197  0.00  0.00    +0.000 OA
ATOM     16  C   UNL     1       5.567  13.450  23.808  0.00  0.00    +0.000 C 
ATOM     17  N   UNL     1       5.194  14.643  23.141  0.00  0.00    +0.000 N 
ATOM     18  N   UNL     1       5.919  13.623  25.125  0.00  0.00    +0.000 N 
ATOM     19  C   UNL     1       6.694  12.566  25.766  0.00  0.00    +0.000 C 
ATOM     20  C   UNL     1       7.965  13.163  26.364  0.00  0.00    +0.000 C 
ATOM     21  C   UNL     1       7.658  14.336  27.297  0.00  0.00    +0.000 C 
ATOM     22  C   UNL     1       6.707  15.358  26.664  0.00  0.00    +0.000 C 
ATOM     23  C   UNL     1       5.495  14.697  26.016  0.00  0.00    +0.000 C 
ATOM     24  H   UNL     1       5.322  15.550  23.563  0.00  0.00    +0.000 HD
BRANCH  21  25
ATOM     25  O   UNL     1       7.125  13.869  28.532  0.00  0.00    +0.000 OA
ATOM     26  H   UNL     1       7.456  12.979  28.729  0.00  0.00    +0.000 HD
ENDBRANCH  21  25
ENDBRANCH   1  17
BRANCH  12  27
ATOM     27  C   UNL     1       9.853  13.349  20.018  0.00  0.00    +0.000 A 
ATOM     28  C   UNL     1      10.228  12.853  18.757  0.00  0.00    +0.000 A 
ATOM     29  C   UNL     1      10.196  11.484  18.502  0.00  0.00    +0.000 A 
ATOM     30  F   UNL     1      10.579  11.031  17.302  0.00  0.00    +0.000 F 
ATOM     31  C   UNL     1       9.787  10.580  19.475  0.00  0.00    +0.000 A 
ATOM     32  C   UNL     1       9.389  11.057  20.723  0.00  0.00    +0.000 A 
ATOM     33  C   UNL     1       9.423  12.428  20.982  0.00  0.00    +0.000 A 
ATOM     34  F   UNL     1       9.043  12.856  22.195  0.00  0.00    +0.000 F 
ENDBRANCH  12  27
TORSDOF 3
ENDMDL
MODEL 5
REMARK VINA RESULT:      -6.5      3.505      6.207
REMARK  Name = 
REMARK  3 active torsions:
REMARK  status: ('A' for Active; 'I' for Inactive)
REMARK    1  A    between atoms: N_3  and  C_4
REMARK    2  A    between atoms: C_15  and  C_16
REMARK    3  A    between atoms: C_29  and  O_30
REMARK                            x       y       z     vdW  Elec       q    Type
REMARK                         _______ _______ _______ _____ _____    ______ ____
ROOT
ATOM      1  C   UNL     1      -0.466  15.052  21.995  0.00  0.00    +0.000 A 
ATOM      2  C   UNL     1      -0.850  15.354  23.287  0.00  0.00    +0.000 A 
ATOM      3  N   UNL     1      -1.940  14.614  23.669  0.00  0.00    +0.000 NA
ATOM      4  C   UNL     1      -2.215  13.853  22.631  0.00  0.00    +0.000 A 
ATOM      5  C   UNL     1      -3.224  12.896  22.443  0.00  0.00    +0.000 A 
ATOM      6  C   UNL     1      -3.267  12.228  21.288  0.00  0.00    +0.000 A 
ATOM      7  C   UNL     1      -2.207  12.476  20.250  0.00  0.00    +0.000 A 
ATOM      8  N   UNL     1      -2.227  11.661  19.143  0.00  0.00    +0.000 N 
ATOM      9  C   UNL     1      -3.370  11.535  18.249  0.00  0.00    +0.000 C 
ATOM     10  C   UNL     1      -3.097  10.219  17.543  0.00  0.00    +0.000 C 
ATOM     11  C   UNL     1      -1.587  10.260  17.331  0.00  0.00    +0.000 C 
ATOM     12  C   UNL     1      -1.035  11.054  18.540  0.00  0.00    +0.000 C 
ATOM     13  N   UNL     1      -1.269  13.381  20.394  0.00  0.00    +0.000 NA
ATOM     14  N   UNL     1      -1.333  14.058  21.588  0.00  0.00    +0.000 N 
ENDROOT
BRANCH   1  17
ATOM     15  O   UNL     1       2.241  14.567  22.406  0.00  0.00    +0.000 OA
ATOM     16  C   UNL     1       1.927  15.333  21.511  0.00  0.00    +0.000 C 
ATOM     17  N   UNL     1       0.563  15.585  21.221  0.00  0.00    +0.000 N 
ATOM     18  N   UNL     1       2.810  15.918  20.636  0.00  0.00    +0.000 N 
ATOM     19  C   UNL     1       4.173  15.399  20.597  0.00  0.00    +0.000 C 
ATOM     20  C   UNL     1       4.526  15.011  19.163  0.00  0.00    +0.000 C 
ATOM     21  C   UNL     1       4.292  16.166  18.188  0.00  0.00    +0.000 C 
ATOM     22  C   UNL     1       2.910  16.810  18.357  0.00  0.00    +0.000 C 
ATOM     23  C   UNL     1       2.584  17.104  19.818  0.00  0.00    +0.000 C 
ATOM     24  H   UNL     1       0.276  16.029  20.363  0.00  0.00    +0.000 HD
BRANCH  21  25
ATOM     25  O   UNL     1       5.311  17.152  18.323  0.00  0.00    +0.000 OA
ATOM     26  H   UNL     1       5.878  16.950  19.084  0.00  0.00    +0.000 HD
ENDBRANCH  21  25
ENDBRANCH   1  17
BRANCH  12  27
ATOM     27  C   UNL     1      -0.309  10.155  19.519  0.00  0.00    +0.000 A 
ATOM     28  C   UNL     1      -0.848   9.819  20.773  0.00  0.00    +0.000 A 
ATOM     29  C   UNL     1      -0.178   8.933  21.613  0.00  0.00    +0.000 A 
ATOM     30  F   UNL     1      -0.721   8.610  22.793  0.00  0.00    +0.000 F 
ATOM     31  C   UNL     1       1.037   8.368  21.241  0.00  0.00    +0.000 A 
ATOM     32  C   UNL     1       1.597   8.708  20.010  0.00  0.00    +0.000 A 
ATOM     33  C   UNL     1       0.926   9.594  19.166  0.00  0.00    +0.000 A 
ATOM     34  F   UNL     1       1.485   9.895  17.985  0.00  0.00    +0.000 F 
ENDBRANCH  12  27
TORSDOF 3
ENDMDL
MODEL 6
REMARK VINA RESULT:      -6.5      3.112      6.869
REMARK  Name = 
REMARK  3 active torsions:
REMARK  status: ('A' for Active; 'I' for Inactive)
REMARK    1  A    between atoms: N_3  and  C_4
REMARK    2  A    between atoms: C_15  and  C_16
REMARK    3  A    between atoms: C_29  and  O_30
REMARK                            x       y       z     vdW  Elec       q    Type
REMARK                         _______ _______ _______ _____ _____    ______ ____
ROOT
ATOM      1  C   UNL     1      -2.703  10.803  17.637  0.00  0.00    +0.000 A 
ATOM      2  C   UNL     1      -2.656  10.888  16.259  0.00  0.00    +0.000 A 
ATOM      3  N   UNL     1      -3.847  11.336  15.746  0.00  0.00    +0.000 NA
ATOM      4  C   UNL     1      -4.613  11.541  16.796  0.00  0.00    +0.000 A 
ATOM      5  C   UNL     1      -5.937  11.999  16.884  0.00  0.00    +0.000 A 
ATOM      6  C   UNL     1      -6.484  12.151  18.092  0.00  0.00    +0.000 A 
ATOM      7  C   UNL     1      -5.653  11.888  19.318  0.00  0.00    +0.000 A 
ATOM      8  N   UNL     1      -6.229  12.195  20.529  0.00  0.00    +0.000 N 
ATOM      9  C   UNL     1      -7.483  11.624  20.998  0.00  0.00    +0.000 C 
ATOM     10  C   UNL     1      -7.917  12.607  22.071  0.00  0.00    +0.000 C 
ATOM     11  C   UNL     1      -6.598  12.966  22.748  0.00  0.00    +0.000 C 
ATOM     12  C   UNL     1      -5.535  12.881  21.625  0.00  0.00    +0.000 C 
ATOM     13  N   UNL     1      -4.423  11.438  19.261  0.00  0.00    +0.000 NA
ATOM     14  N   UNL     1      -3.961  11.258  17.980  0.00  0.00    +0.000 N 
ENDROOT
BRANCH   1  17
ATOM     15  O   UNL     1      -1.469  12.428  19.527  0.00  0.00    +0.000 OA
ATOM     16  C   UNL     1      -1.109  11.266  19.449  0.00  0.00    +0.000 C 
ATOM     17  N   UNL     1      -1.731  10.376  18.539  0.00  0.00    +0.000 N 
ATOM     18  N   UNL     1      -0.188  10.675  20.281  0.00  0.00    +0.000 N 
ATOM     19  C   UNL     1       0.192  11.393  21.493  0.00  0.00    +0.000 C 
ATOM     20  C   UNL     1      -0.027  10.490  22.705  0.00  0.00    +0.000 C 
ATOM     21  C   UNL     1       0.687   9.147  22.550  0.00  0.00    +0.000 C 
ATOM     22  C   UNL     1       0.406   8.483  21.196  0.00  0.00    +0.000 C 
ATOM     23  C   UNL     1       0.568   9.453  20.031  0.00  0.00    +0.000 C 
ATOM     24  H   UNL     1      -1.610   9.377  18.607  0.00  0.00    +0.000 HD
BRANCH  21  25
ATOM     25  O   UNL     1       2.091   9.300  22.738  0.00  0.00    +0.000 OA
ATOM     26  H   UNL     1       2.454   9.920  22.087  0.00  0.00    +0.000 HD
ENDBRANCH  21  25
ENDBRANCH   1  17
BRANCH  12  27
ATOM     27  C   UNL     1      -5.047  14.252  21.207  0.00  0.00    +0.000 A 
ATOM     28  C   UNL     1      -3.736  14.692  21.458  0.00  0.00    +0.000 A 
ATOM     29  C   UNL     1      -3.309  15.934  20.994  0.00  0.00    +0.000 A 
ATOM     30  F   UNL     1      -2.049  16.323  21.224  0.00  0.00    +0.000 F 
ATOM     31  C   UNL     1      -4.165  16.770  20.285  0.00  0.00    +0.000 A 
ATOM     32  C   UNL     1      -5.475  16.359  20.049  0.00  0.00    +0.000 A 
ATOM     33  C   UNL     1      -5.904  15.114  20.510  0.00  0.00    +0.000 A 
ATOM     34  F   UNL     1      -7.168  14.742  20.259  0.00  0.00    +0.000 F 
ENDBRANCH  12  27
TORSDOF 3
ENDMDL
MODEL 7
REMARK VINA RESULT:      -6.5      0.846      1.477
REMARK  Name = 
REMARK  3 active torsions:
REMARK  status: ('A' for Active; 'I' for Inactive)
REMARK    1  A    between atoms: N_3  and  C_4
REMARK    2  A    between atoms: C_15  and  C_16
REMARK    3  A    between atoms: C_29  and  O_30
REMARK                            x       y       z     vdW  Elec       q    Type
REMARK                         _______ _______ _______ _____ _____    ______ ____
ROOT
ATOM      1  C   UNL     1      -4.881  12.568  19.878  0.00  0.00    +0.000 A 
ATOM      2  C   UNL     1      -5.858  11.771  19.313  0.00  0.00    +0.000 A 
ATOM      3  N   UNL     1      -5.354  11.019  18.282  0.00  0.00    +0.000 NA
ATOM      4  C   UNL     1      -4.078  11.335  18.224  0.00  0.00    +0.000 A 
ATOM      5  C   UNL     1      -3.064  10.881  17.366  0.00  0.00    +0.000 A 
ATOM      6  C   UNL     1      -1.824  11.344  17.537  0.00  0.00    +0.000 A 
ATOM      7  C   UNL     1      -1.538  12.287  18.674  0.00  0.00    +0.000 A 
ATOM      8  N   UNL     1      -0.219  12.619  18.880  0.00  0.00    +0.000 N 
ATOM      9  C   UNL     1       0.628  13.241  17.872  0.00  0.00    +0.000 C 
ATOM     10  C   UNL     1       2.027  12.941  18.381  0.00  0.00    +0.000 C 
ATOM     11  C   UNL     1       1.877  13.110  19.890  0.00  0.00    +0.000 C 
ATOM     12  C   UNL     1       0.422  12.680  20.199  0.00  0.00    +0.000 C 
ATOM     13  N   UNL     1      -2.472  12.742  19.473  0.00  0.00    +0.000 NA
ATOM     14  N   UNL     1      -3.725  12.257  19.190  0.00  0.00    +0.000 N 
ENDROOT
BRANCH   1  17
ATOM     15  O   UNL     1      -4.002  12.116  22.477  0.00  0.00    +0.000 OA
ATOM     16  C   UNL     1      -4.544  13.180  22.234  0.00  0.00    +0.000 C 
ATOM     17  N   UNL     1      -4.971  13.490  20.919  0.00  0.00    +0.000 N 
ATOM     18  N   UNL     1      -4.686  14.210  23.133  0.00  0.00    +0.000 N 
ATOM     19  C   UNL     1      -3.918  14.142  24.371  0.00  0.00    +0.000 C 
ATOM     20  C   UNL     1      -3.095  15.419  24.528  0.00  0.00    +0.000 C 
ATOM     21  C   UNL     1      -3.967  16.672  24.427  0.00  0.00    +0.000 C 
ATOM     22  C   UNL     1      -4.891  16.650  23.203  0.00  0.00    +0.000 C 
ATOM     23  C   UNL     1      -5.627  15.322  23.057  0.00  0.00    +0.000 C 
ATOM     24  H   UNL     1      -5.215  14.430  20.647  0.00  0.00    +0.000 HD
BRANCH  21  25
ATOM     25  O   UNL     1      -4.732  16.849  25.615  0.00  0.00    +0.000 OA
ATOM     26  H   UNL     1      -4.256  17.416  26.242  0.00  0.00    +0.000 HD
ENDBRANCH  21  25
ENDBRANCH   1  17
BRANCH  12  27
ATOM     27  C   UNL     1       0.370  11.343  20.908  0.00  0.00    +0.000 A 
ATOM     28  C   UNL     1      -0.177  11.196  22.195  0.00  0.00    +0.000 A 
ATOM     29  C   UNL     1      -0.268   9.936  22.781  0.00  0.00    +0.000 A 
ATOM     30  F   UNL     1      -0.814   9.816  23.998  0.00  0.00    +0.000 F 
ATOM     31  C   UNL     1       0.185   8.800  22.120  0.00  0.00    +0.000 A 
ATOM     32  C   UNL     1       0.752   8.931  20.853  0.00  0.00    +0.000 A 
ATOM     33  C   UNL     1       0.842  10.192  20.263  0.00  0.00    +0.000 A 
ATOM     34  F   UNL     1       1.384  10.285  19.039  0.00  0.00    +0.000 F 
ENDBRANCH  12  27
TORSDOF 3
ENDMDL
MODEL 8
REMARK VINA RESULT:      -6.5      2.759      4.608
REMARK  Name = 
REMARK  3 active torsions:
REMARK  status: ('A' for Active; 'I' for Inactive)
REMARK    1  A    between atoms: N_3  and  C_4
REMARK    2  A    between atoms: C_15  and  C_16
REMARK    3  A    between atoms: C_29  and  O_30
REMARK                            x       y       z     vdW  Elec       q    Type
REMARK                         _______ _______ _______ _____ _____    ______ ____
ROOT
ATOM      1  C   UNL     1      -2.423  15.715  20.733  0.00  0.00    +0.000 A 
ATOM      2  C   UNL     1      -2.198  16.968  20.198  0.00  0.00    +0.000 A 
ATOM      3  N   UNL     1      -1.143  16.953  19.320  0.00  0.00    +0.000 NA
ATOM      4  C   UNL     1      -0.735  15.702  19.302  0.00  0.00    +0.000 A 
ATOM      5  C   UNL     1       0.310  15.094  18.588  0.00  0.00    +0.000 A 
ATOM      6  C   UNL     1       0.501  13.780  18.727  0.00  0.00    +0.000 A 
ATOM      7  C   UNL     1      -0.438  12.984  19.590  0.00  0.00    +0.000 A 
ATOM      8  N   UNL     1      -0.273  11.618  19.582  0.00  0.00    +0.000 N 
ATOM      9  C   UNL     1       0.968  10.950  19.948  0.00  0.00    +0.000 C 
ATOM     10  C   UNL     1       0.807   9.579  19.315  0.00  0.00    +0.000 C 
ATOM     11  C   UNL     1      -0.669   9.274  19.548  0.00  0.00    +0.000 C 
ATOM     12  C   UNL     1      -1.374  10.652  19.506  0.00  0.00    +0.000 C 
ATOM     13  N   UNL     1      -1.406  13.533  20.284  0.00  0.00    +0.000 NA
ATOM     14  N   UNL     1      -1.494  14.894  20.125  0.00  0.00    +0.000 N 
ENDROOT
BRANCH   1  17
ATOM     15  O   UNL     1      -5.165  15.601  20.278  0.00  0.00    +0.000 OA
ATOM     16  C   UNL     1      -4.757  15.308  21.389  0.00  0.00    +0.000 C 
ATOM     17  N   UNL     1      -3.368  15.300  21.670  0.00  0.00    +0.000 N 
ATOM     18  N   UNL     1      -5.545  14.849  22.417  0.00  0.00    +0.000 N 
ATOM     19  C   UNL     1      -6.907  14.434  22.095  0.00  0.00    +0.000 C 
ATOM     20  C   UNL     1      -7.132  13.007  22.589  0.00  0.00    +0.000 C 
ATOM     21  C   UNL     1      -6.790  12.859  24.072  0.00  0.00    +0.000 C 
ATOM     22  C   UNL     1      -5.419  13.451  24.423  0.00  0.00    +0.000 C 
ATOM     23  C   UNL     1      -5.225  14.846  23.839  0.00  0.00    +0.000 C 
ATOM     24  H   UNL     1      -2.995  14.857  22.495  0.00  0.00    +0.000 HD
BRANCH  21  25
ATOM     25  O   UNL     1      -7.801  13.450  24.882  0.00  0.00    +0.000 OA
ATOM     26  H   UNL     1      -7.704  13.166  25.805  0.00  0.00    +0.000 HD
ENDBRANCH  21  25
ENDBRANCH   1  17
BRANCH  12  27
ATOM     27  C   UNL     1      -2.188  10.828  18.242  0.00  0.00    +0.000 A 
ATOM     28  C   UNL     1      -1.773  10.312  17.003  0.00  0.00    +0.000 A 
ATOM     29  C   UNL     1      -2.587  10.437  15.879  0.00  0.00    +0.000 A 
ATOM     30  F   UNL     1      -2.182   9.918  14.714  0.00  0.00    +0.000 F 
ATOM     31  C   UNL     1      -3.817  11.081  15.951  0.00  0.00    +0.000 A 
ATOM     32  C   UNL     1      -4.234  11.619  17.167  0.00  0.00    +0.000 A 
ATOM     33  C   UNL     1      -3.421  11.492  18.294  0.00  0.00    +0.000 A 
ATOM     34  F   UNL     1      -3.853  12.012  19.453  0.00  0.00    +0.000 F 
ENDBRANCH  12  27
TORSDOF 3
ENDMDL
MODEL 9
REMARK VINA RESULT:      -6.4      7.789     10.479
REMARK  Name = 
REMARK  3 active torsions:
REMARK  status: ('A' for Active; 'I' for Inactive)
REMARK    1  A    between atoms: N_3  and  C_4
REMARK    2  A    between atoms: C_15  and  C_16
REMARK    3  A    between atoms: C_29  and  O_30
REMARK                            x       y       z     vdW  Elec       q    Type
REMARK                         _______ _______ _______ _____ _____    ______ ____
ROOT
ATOM      1  C   UNL     1       4.972  14.903  21.353  0.00  0.00    +0.000 A 
ATOM      2  C   UNL     1       3.698  14.552  20.952  0.00  0.00    +0.000 A 
ATOM      3  N   UNL     1       3.620  14.430  19.587  0.00  0.00    +0.000 NA
ATOM      4  C   UNL     1       4.836  14.687  19.154  0.00  0.00    +0.000 A 
ATOM      5  C   UNL     1       5.352  14.714  17.849  0.00  0.00    +0.000 A 
ATOM      6  C   UNL     1       6.649  14.978  17.679  0.00  0.00    +0.000 A 
ATOM      7  C   UNL     1       7.528  15.179  18.883  0.00  0.00    +0.000 A 
ATOM      8  N   UNL     1       8.876  15.310  18.646  0.00  0.00    +0.000 N 
ATOM      9  C   UNL     1       9.453  16.337  17.791  0.00  0.00    +0.000 C 
ATOM     10  C   UNL     1      10.823  15.769  17.465  0.00  0.00    +0.000 C 
ATOM     11  C   UNL     1      11.243  15.132  18.785  0.00  0.00    +0.000 C 
ATOM     12  C   UNL     1       9.923  14.653  19.437  0.00  0.00    +0.000 C 
ATOM     13  N   UNL     1       7.064  15.182  20.109  0.00  0.00    +0.000 NA
ATOM     14  N   UNL     1       5.711  14.958  20.188  0.00  0.00    +0.000 N 
ENDROOT
BRANCH   1  17
ATOM     15  O   UNL     1       5.395  12.956  23.293  0.00  0.00    +0.000 OA
ATOM     16  C   UNL     1       5.621  14.117  23.589  0.00  0.00    +0.000 C 
ATOM     17  N   UNL     1       5.471  15.150  22.631  0.00  0.00    +0.000 N 
ATOM     18  N   UNL     1       6.145  14.531  24.790  0.00  0.00    +0.000 N 
ATOM     19  C   UNL     1       6.712  13.515  25.671  0.00  0.00    +0.000 C 
ATOM     20  C   UNL     1       8.146  13.898  26.028  0.00  0.00    +0.000 C 
ATOM     21  C   UNL     1       8.229  15.312  26.606  0.00  0.00    +0.000 C 
ATOM     22  C   UNL     1       7.484  16.343  25.750  0.00  0.00    +0.000 C 
ATOM     23  C   UNL     1       6.086  15.871  25.362  0.00  0.00    +0.000 C 
ATOM     24  H   UNL     1       5.855  16.070  22.777  0.00  0.00    +0.000 HD
BRANCH  21  25
ATOM     25  O   UNL     1       7.737  15.337  27.943  0.00  0.00    +0.000 OA
ATOM     26  H   UNL     1       8.265  15.944  28.486  0.00  0.00    +0.000 HD
ENDBRANCH  21  25
ENDBRANCH   1  17
BRANCH  12  27
ATOM     27  C   UNL     1       9.791  13.145  19.397  0.00  0.00    +0.000 A 
ATOM     28  C   UNL     1       9.597  12.376  20.557  0.00  0.00    +0.000 A 
ATOM     29  C   UNL     1       9.410  10.999  20.467  0.00  0.00    +0.000 A 
ATOM     30  F   UNL     1       9.205  10.290  21.583  0.00  0.00    +0.000 F 
ATOM     31  C   UNL     1       9.422  10.351  19.236  0.00  0.00    +0.000 A 
ATOM     32  C   UNL     1       9.636  11.095  18.078  0.00  0.00    +0.000 A 
ATOM     33  C   UNL     1       9.821  12.475  18.166  0.00  0.00    +0.000 A 
ATOM     34  F   UNL     1      10.016  13.166  17.033  0.00  0.00    +0.000 F 
ENDBRANCH  12  27
TORSDOF 3
ENDMDL
