MODEL 1
REMARK VINA RESULT:      -7.4      0.000      0.000
REMARK  Name = 
REMARK  7 active torsions:
REMARK  status: ('A' for Active; 'I' for Inactive)
REMARK    1  A    between atoms: C_1  and  C_2
REMARK    2  A    between atoms: C_5  and  S_6
REMARK    3  A    between atoms: S_6  and  N_9
REMARK    4  A    between atoms: C_12  and  C_13
REMARK    5  A    between atoms: C_13  and  N_14
REMARK    6  A    between atoms: C_13  and  C_23
REMARK    7  A    between atoms: C_15  and  C_17
REMARK                            x       y       z     vdW  Elec       q    Type
REMARK                         _______ _______ _______ _____ _____    ______ ____
ROOT
ATOM      1  C   UNL     1      -1.311  13.337  20.393  0.00  0.00    +0.000 C 
ENDROOT
BRANCH   1   2
ATOM      2  C   UNL     1      -1.109  14.810  20.848  0.00  0.00    +0.000 C 
ATOM      3  O   UNL     1      -1.163  15.729  20.023  0.00  0.00    +0.000 OA
ATOM      4  N   UNL     1      -0.987  15.090  22.200  0.00  0.00    +0.000 N 
ATOM      5  C   UNL     1      -0.931  14.173  23.328  0.00  0.00    +0.000 C 
ATOM      6  C   UNL     1      -1.559  14.981  24.457  0.00  0.00    +0.000 C 
ATOM      7  C   UNL     1      -1.067  16.399  24.192  0.00  0.00    +0.000 C 
ATOM      8  C   UNL     1      -0.890  16.465  22.675  0.00  0.00    +0.000 C 
ENDBRANCH   1   2
BRANCH   1  12
ATOM      9  N   UNL     1       0.751  10.208  20.110  0.00  0.00    +0.000 NA
ATOM     10  C   UNL     1      -0.611  10.370  19.525  0.00  0.00    +0.000 C 
ATOM     11  C   UNL     1      -0.660  11.573  18.585  0.00  0.00    +0.000 C 
ATOM     12  C   UNL     1      -0.276  12.887  19.299  0.00  0.00    +0.000 C 
ATOM     13  C   UNL     1       1.158  12.667  19.811  0.00  0.00    +0.000 C 
ATOM     14  C   UNL     1       1.278  11.462  20.741  0.00  0.00    +0.000 C 
BRANCH   9  15
ATOM     15  S   UNL     1       0.863   8.886  21.229  0.00  0.00    +0.000 S 
ATOM     16  O   UNL     1      -0.492   8.484  21.544  0.00  0.00    +0.000 OA
ATOM     17  O   UNL     1       1.785   9.272  22.278  0.00  0.00    +0.000 OA
BRANCH  15  22
ATOM     18  C   UNL     1       3.324   4.363  18.012  0.00  0.00    +0.000 C 
ATOM     19  C   UNL     1       2.748   5.482  18.829  0.00  0.00    +0.000 A 
ATOM     20  C   UNL     1       2.154   5.230  20.073  0.00  0.00    +0.000 A 
ATOM     21  C   UNL     1       1.597   6.277  20.813  0.00  0.00    +0.000 A 
ATOM     22  C   UNL     1       1.635   7.577  20.312  0.00  0.00    +0.000 A 
ATOM     23  C   UNL     1       2.225   7.844  19.072  0.00  0.00    +0.000 A 
ATOM     24  C   UNL     1       2.775   6.794  18.333  0.00  0.00    +0.000 A 
ENDBRANCH  15  22
ENDBRANCH   9  15
ENDBRANCH   1  12
BRANCH   1  25
ATOM     25  N   UNL     1      -2.675  13.242  19.822  0.00  0.00    +0.000 N 
ATOM     26  C   UNL     1      -3.708  12.692  20.552  0.00  0.00    +0.000 C 
ATOM     27  O   UNL     1      -3.608  12.467  21.755  0.00  0.00    +0.000 OA
ATOM     28  H   UNL     1      -2.758  13.359  18.820  0.00  0.00    +0.000 HD
BRANCH  26  29
ATOM     29  C   UNL     1      -4.957  12.279  19.850  0.00  0.00    +0.000 A 
ATOM     30  C   UNL     1      -4.883  12.130  18.453  0.00  0.00    +0.000 A 
ATOM     31  C   UNL     1      -5.981  11.680  17.720  0.00  0.00    +0.000 A 
ATOM     32  C   UNL     1      -7.168  11.371  18.378  0.00  0.00    +0.000 A 
ATOM     33  C   UNL     1      -7.260  11.535  19.763  0.00  0.00    +0.000 A 
ATOM     34  C   UNL     1      -6.159  11.994  20.502  0.00  0.00    +0.000 A 
ENDBRANCH  26  29
ENDBRANCH   1  25
TORSDOF 6
ENDMDL
MODEL 2
REMARK VINA RESULT:      -7.1      0.158      1.200
REMARK  Name = 
REMARK  7 active torsions:
REMARK  status: ('A' for Active; 'I' for Inactive)
REMARK    1  A    between atoms: C_1  and  C_2
REMARK    2  A    between atoms: C_5  and  S_6
REMARK    3  A    between atoms: S_6  and  N_9
REMARK    4  A    between atoms: C_12  and  C_13
REMARK    5  A    between atoms: C_13  and  N_14
REMARK    6  A    between atoms: C_13  and  C_23
REMARK    7  A    between atoms: C_15  and  C_17
REMARK                            x       y       z     vdW  Elec       q    Type
REMARK                         _______ _______ _______ _____ _____    ______ ____
ROOT
ATOM      1  C   UNL     1      -1.294  13.349  20.422  0.00  0.00    +0.000 C 
ENDROOT
BRANCH   1   2
ATOM      2  C   UNL     1      -1.134  14.813  20.924  0.00  0.00    +0.000 C 
ATOM      3  O   UNL     1      -1.203  15.755  20.127  0.00  0.00    +0.000 OA
ATOM      4  N   UNL     1      -1.035  15.054  22.286  0.00  0.00    +0.000 N 
ATOM      5  C   UNL     1      -0.967  14.104  23.386  0.00  0.00    +0.000 C 
ATOM      6  C   UNL     1      -1.628  14.860  24.532  0.00  0.00    +0.000 C 
ATOM      7  C   UNL     1      -1.169  16.298  24.316  0.00  0.00    +0.000 C 
ATOM      8  C   UNL     1      -0.978  16.415  22.803  0.00  0.00    +0.000 C 
ENDBRANCH   1   2
BRANCH   1  12
ATOM      9  N   UNL     1       0.820  10.256  20.127  0.00  0.00    +0.000 NA
ATOM     10  C   UNL     1      -0.520  10.420  19.493  0.00  0.00    +0.000 C 
ATOM     11  C   UNL     1      -0.548  11.651  18.589  0.00  0.00    +0.000 C 
ATOM     12  C   UNL     1      -0.210  12.946  19.357  0.00  0.00    +0.000 C 
ATOM     13  C   UNL     1       1.205  12.728  19.920  0.00  0.00    +0.000 C 
ATOM     14  C   UNL     1       1.304  11.497  20.817  0.00  0.00    +0.000 C 
BRANCH   9  15
ATOM     15  S   UNL     1       0.905   8.902  21.209  0.00  0.00    +0.000 S 
ATOM     16  O   UNL     1      -0.458   8.531  21.529  0.00  0.00    +0.000 OA
ATOM     17  O   UNL     1       1.849   9.232  22.257  0.00  0.00    +0.000 OA
BRANCH  15  22
ATOM     18  C   UNL     1       3.556   4.485  17.996  0.00  0.00    +0.000 C 
ATOM     19  C   UNL     1       2.869   5.573  18.767  0.00  0.00    +0.000 A 
ATOM     20  C   UNL     1       2.826   6.884  18.274  0.00  0.00    +0.000 A 
ATOM     21  C   UNL     1       2.205   7.895  19.015  0.00  0.00    +0.000 A 
ATOM     22  C   UNL     1       1.628   7.596  20.248  0.00  0.00    +0.000 A 
ATOM     23  C   UNL     1       1.663   6.293  20.753  0.00  0.00    +0.000 A 
ATOM     24  C   UNL     1       2.288   5.287  20.012  0.00  0.00    +0.000 A 
ENDBRANCH  15  22
ENDBRANCH   9  15
ENDBRANCH   1  12
BRANCH   1  25
ATOM     25  N   UNL     1      -2.633  13.249  19.795  0.00  0.00    +0.000 N 
ATOM     26  C   UNL     1      -3.712  12.771  20.511  0.00  0.00    +0.000 C 
ATOM     27  O   UNL     1      -3.671  12.622  21.729  0.00  0.00    +0.000 OA
ATOM     28  H   UNL     1      -2.669  13.303  18.786  0.00  0.00    +0.000 HD
BRANCH  26  29
ATOM     29  C   UNL     1      -4.938  12.342  19.779  0.00  0.00    +0.000 A 
ATOM     30  C   UNL     1      -6.097  12.131  20.546  0.00  0.00    +0.000 A 
ATOM     31  C   UNL     1      -7.308  11.796  19.940  0.00  0.00    +0.000 A 
ATOM     32  C   UNL     1      -7.374  11.671  18.556  0.00  0.00    +0.000 A 
ATOM     33  C   UNL     1      -6.224  11.858  17.785  0.00  0.00    +0.000 A 
ATOM     34  C   UNL     1      -5.002  12.188  18.392  0.00  0.00    +0.000 A 
ENDBRANCH  26  29
ENDBRANCH   1  25
TORSDOF 6
ENDMDL
MODEL 3
REMARK VINA RESULT:      -6.9      2.180      7.323
REMARK  Name = 
REMARK  7 active torsions:
REMARK  status: ('A' for Active; 'I' for Inactive)
REMARK    1  A    between atoms: C_1  and  C_2
REMARK    2  A    between atoms: C_5  and  S_6
REMARK    3  A    between atoms: S_6  and  N_9
REMARK    4  A    between atoms: C_12  and  C_13
REMARK    5  A    between atoms: C_13  and  N_14
REMARK    6  A    between atoms: C_13  and  C_23
REMARK    7  A    between atoms: C_15  and  C_17
REMARK                            x       y       z     vdW  Elec       q    Type
REMARK                         _______ _______ _______ _____ _____    ______ ____
ROOT
ATOM      1  C   UNL     1      -0.713  11.677  18.784  0.00  0.00    +0.000 C 
ENDROOT
BRANCH   1   2
ATOM      2  C   UNL     1      -2.127  11.584  18.142  0.00  0.00    +0.000 C 
ATOM      3  O   UNL     1      -2.286  10.985  17.073  0.00  0.00    +0.000 OA
ATOM      4  N   UNL     1      -3.220  12.073  18.840  0.00  0.00    +0.000 N 
ATOM      5  C   UNL     1      -3.259  12.777  20.113  0.00  0.00    +0.000 C 
ATOM      6  C   UNL     1      -4.609  12.366  20.689  0.00  0.00    +0.000 C 
ATOM      7  C   UNL     1      -5.511  12.302  19.462  0.00  0.00    +0.000 C 
ATOM      8  C   UNL     1      -4.572  11.921  18.317  0.00  0.00    +0.000 C 
ENDBRANCH   1   2
BRANCH   1  12
ATOM      9  N   UNL     1       0.875  14.730  20.294  0.00  0.00    +0.000 NA
ATOM     10  C   UNL     1       1.536  13.396  20.207  0.00  0.00    +0.000 C 
ATOM     11  C   UNL     1       1.587  12.906  18.761  0.00  0.00    +0.000 C 
ATOM     12  C   UNL     1       0.181  12.794  18.134  0.00  0.00    +0.000 C 
ATOM     13  C   UNL     1      -0.406  14.215  18.197  0.00  0.00    +0.000 C 
ATOM     14  C   UNL     1      -0.463  14.772  19.617  0.00  0.00    +0.000 C 
BRANCH   9  15
ATOM     15  S   UNL     1       0.738  15.323  21.919  0.00  0.00    +0.000 S 
ATOM     16  O   UNL     1       0.443  16.738  21.828  0.00  0.00    +0.000 OA
ATOM     17  O   UNL     1       1.890  14.852  22.660  0.00  0.00    +0.000 OA
BRANCH  15  22
ATOM     18  C   UNL     1      -4.042  12.505  24.383  0.00  0.00    +0.000 C 
ATOM     19  C   UNL     1      -2.874  13.191  23.739  0.00  0.00    +0.000 A 
ATOM     20  C   UNL     1      -1.752  12.460  23.324  0.00  0.00    +0.000 A 
ATOM     21  C   UNL     1      -0.659  13.114  22.749  0.00  0.00    +0.000 A 
ATOM     22  C   UNL     1      -0.685  14.498  22.586  0.00  0.00    +0.000 A 
ATOM     23  C   UNL     1      -1.797  15.241  22.995  0.00  0.00    +0.000 A 
ATOM     24  C   UNL     1      -2.886  14.584  23.574  0.00  0.00    +0.000 A 
ENDBRANCH  15  22
ENDBRANCH   9  15
ENDBRANCH   1  12
BRANCH   1  25
ATOM     25  N   UNL     1      -0.055  10.365  18.577  0.00  0.00    +0.000 N 
ATOM     26  C   UNL     1       0.621   9.746  19.608  0.00  0.00    +0.000 C 
ATOM     27  O   UNL     1       0.525  10.127  20.771  0.00  0.00    +0.000 OA
ATOM     28  H   UNL     1       0.089  10.074  17.619  0.00  0.00    +0.000 HD
BRANCH  26  29
ATOM     29  C   UNL     1       1.563   8.633  19.295  0.00  0.00    +0.000 A 
ATOM     30  C   UNL     1       1.675   7.606  20.249  0.00  0.00    +0.000 A 
ATOM     31  C   UNL     1       2.478   6.490  20.011  0.00  0.00    +0.000 A 
ATOM     32  C   UNL     1       3.179   6.389  18.813  0.00  0.00    +0.000 A 
ATOM     33  C   UNL     1       3.092   7.413  17.867  0.00  0.00    +0.000 A 
ATOM     34  C   UNL     1       2.290   8.540  18.105  0.00  0.00    +0.000 A 
ENDBRANCH  26  29
ENDBRANCH   1  25
TORSDOF 6
ENDMDL
MODEL 4
REMARK VINA RESULT:      -6.7      3.676      7.141
REMARK  Name = 
REMARK  7 active torsions:
REMARK  status: ('A' for Active; 'I' for Inactive)
REMARK    1  A    between atoms: C_1  and  C_2
REMARK    2  A    between atoms: C_5  and  S_6
REMARK    3  A    between atoms: S_6  and  N_9
REMARK    4  A    between atoms: C_12  and  C_13
REMARK    5  A    between atoms: C_13  and  N_14
REMARK    6  A    between atoms: C_13  and  C_23
REMARK    7  A    between atoms: C_15  and  C_17
REMARK                            x       y       z     vdW  Elec       q    Type
REMARK                         _______ _______ _______ _____ _____    ______ ____
ROOT
ATOM      1  C   UNL     1      -0.465  12.348  19.779  0.00  0.00    +0.000 C 
ENDROOT
BRANCH   1   2
ATOM      2  C   UNL     1      -2.014  12.393  19.922  0.00  0.00    +0.000 C 
ATOM      3  O   UNL     1      -2.734  12.015  18.991  0.00  0.00    +0.000 OA
ATOM      4  N   UNL     1      -2.572  12.746  21.140  0.00  0.00    +0.000 N 
ATOM      5  C   UNL     1      -1.913  13.189  22.360  0.00  0.00    +0.000 C 
ATOM      6  C   UNL     1      -2.846  12.685  23.454  0.00  0.00    +0.000 C 
ATOM      7  C   UNL     1      -4.232  12.868  22.848  0.00  0.00    +0.000 C 
ATOM      8  C   UNL     1      -4.015  12.710  21.342  0.00  0.00    +0.000 C 
ENDBRANCH   1   2
BRANCH   1  12
ATOM      9  N   UNL     1       2.134  15.059  19.903  0.00  0.00    +0.000 NA
ATOM     10  C   UNL     1       2.425  13.632  19.580  0.00  0.00    +0.000 C 
ATOM     11  C   UNL     1       1.589  13.161  18.393  0.00  0.00    +0.000 C 
ATOM     12  C   UNL     1       0.074  13.303  18.653  0.00  0.00    +0.000 C 
ATOM     13  C   UNL     1      -0.156  14.803  18.908  0.00  0.00    +0.000 C 
ATOM     14  C   UNL     1       0.671  15.342  20.072  0.00  0.00    +0.000 C 
BRANCH   9  15
ATOM     15  S   UNL     1       3.016  15.645  21.279  0.00  0.00    +0.000 S 
ATOM     16  O   UNL     1       2.964  14.606  22.287  0.00  0.00    +0.000 OA
ATOM     17  O   UNL     1       2.545  16.984  21.569  0.00  0.00    +0.000 OA
BRANCH  15  22
ATOM     18  C   UNL     1       8.723  15.986  19.234  0.00  0.00    +0.000 C 
ATOM     19  C   UNL     1       7.322  15.925  19.769  0.00  0.00    +0.000 A 
ATOM     20  C   UNL     1       6.998  15.077  20.836  0.00  0.00    +0.000 A 
ATOM     21  C   UNL     1       5.683  15.010  21.308  0.00  0.00    +0.000 A 
ATOM     22  C   UNL     1       4.693  15.791  20.715  0.00  0.00    +0.000 A 
ATOM     23  C   UNL     1       5.002  16.642  19.650  0.00  0.00    +0.000 A 
ATOM     24  C   UNL     1       6.315  16.703  19.178  0.00  0.00    +0.000 A 
ENDBRANCH  15  22
ENDBRANCH   9  15
ENDBRANCH   1  12
BRANCH   1  25
ATOM     25  N   UNL     1      -0.101  10.954  19.432  0.00  0.00    +0.000 N 
ATOM     26  C   UNL     1       0.741  10.223  20.244  0.00  0.00    +0.000 C 
ATOM     27  O   UNL     1       1.043  10.596  21.374  0.00  0.00    +0.000 OA
ATOM     28  H   UNL     1      -0.284  10.659  18.482  0.00  0.00    +0.000 HD
BRANCH  26  29
ATOM     29  C   UNL     1       1.374   8.983  19.708  0.00  0.00    +0.000 A 
ATOM     30  C   UNL     1       1.763   9.000  18.357  0.00  0.00    +0.000 A 
ATOM     31  C   UNL     1       2.425   7.912  17.787  0.00  0.00    +0.000 A 
ATOM     32  C   UNL     1       2.708   6.794  18.566  0.00  0.00    +0.000 A 
ATOM     33  C   UNL     1       2.308   6.758  19.904  0.00  0.00    +0.000 A 
ATOM     34  C   UNL     1       1.636   7.847  20.479  0.00  0.00    +0.000 A 
ENDBRANCH  26  29
ENDBRANCH   1  25
TORSDOF 6
ENDMDL
MODEL 5
REMARK VINA RESULT:      -6.6      3.525      6.976
REMARK  Name = 
REMARK  7 active torsions:
REMARK  status: ('A' for Active; 'I' for Inactive)
REMARK    1  A    between atoms: C_1  and  C_2
REMARK    2  A    between atoms: C_5  and  S_6
REMARK    3  A    between atoms: S_6  and  N_9
REMARK    4  A    between atoms: C_12  and  C_13
REMARK    5  A    between atoms: C_13  and  N_14
REMARK    6  A    between atoms: C_13  and  C_23
REMARK    7  A    between atoms: C_15  and  C_17
REMARK                            x       y       z     vdW  Elec       q    Type
REMARK                         _______ _______ _______ _____ _____    ______ ____
ROOT
ATOM      1  C   UNL     1      -0.446  12.358  19.665  0.00  0.00    +0.000 C 
ENDROOT
BRANCH   1   2
ATOM      2  C   UNL     1      -2.000  12.368  19.736  0.00  0.00    +0.000 C 
ATOM      3  O   UNL     1      -2.668  11.976  18.772  0.00  0.00    +0.000 OA
ATOM      4  N   UNL     1      -2.621  12.704  20.929  0.00  0.00    +0.000 N 
ATOM      5  C   UNL     1      -2.028  13.157  22.178  0.00  0.00    +0.000 C 
ATOM      6  C   UNL     1      -2.999  12.628  23.228  0.00  0.00    +0.000 C 
ATOM      7  C   UNL     1      -4.360  12.782  22.559  0.00  0.00    +0.000 C 
ATOM      8  C   UNL     1      -4.070  12.635  21.064  0.00  0.00    +0.000 C 
ENDBRANCH   1   2
BRANCH   1  12
ATOM      9  N   UNL     1       2.099  15.102  20.005  0.00  0.00    +0.000 NA
ATOM     10  C   UNL     1       2.428  13.694  19.640  0.00  0.00    +0.000 C 
ATOM     11  C   UNL     1       1.651  13.257  18.400  0.00  0.00    +0.000 C 
ATOM     12  C   UNL     1       0.125  13.365  18.601  0.00  0.00    +0.000 C 
ATOM     13  C   UNL     1      -0.142  14.850  18.903  0.00  0.00    +0.000 C 
ATOM     14  C   UNL     1       0.626  15.355  20.122  0.00  0.00    +0.000 C 
BRANCH   9  15
ATOM     15  S   UNL     1       2.911  15.647  21.438  0.00  0.00    +0.000 S 
ATOM     16  O   UNL     1       2.374  14.881  22.544  0.00  0.00    +0.000 OA
ATOM     17  O   UNL     1       2.869  17.095  21.449  0.00  0.00    +0.000 OA
BRANCH  15  22
ATOM     18  C   UNL     1       8.768  14.203  20.747  0.00  0.00    +0.000 C 
ATOM     19  C   UNL     1       7.312  14.534  20.890  0.00  0.00    +0.000 A 
ATOM     20  C   UNL     1       6.683  15.408  19.992  0.00  0.00    +0.000 A 
ATOM     21  C   UNL     1       5.331  15.728  20.152  0.00  0.00    +0.000 A 
ATOM     22  C   UNL     1       4.607  15.176  21.207  0.00  0.00    +0.000 A 
ATOM     23  C   UNL     1       5.221  14.303  22.110  0.00  0.00    +0.000 A 
ATOM     24  C   UNL     1       6.573  13.989  21.951  0.00  0.00    +0.000 A 
ENDBRANCH  15  22
ENDBRANCH   9  15
ENDBRANCH   1  12
BRANCH   1  25
ATOM     25  N   UNL     1      -0.036  10.986  19.284  0.00  0.00    +0.000 N 
ATOM     26  C   UNL     1       0.745  10.224  20.129  0.00  0.00    +0.000 C 
ATOM     27  O   UNL     1       0.947  10.545  21.296  0.00  0.00    +0.000 OA
ATOM     28  H   UNL     1      -0.137  10.734  18.309  0.00  0.00    +0.000 HD
BRANCH  26  29
ATOM     29  C   UNL     1       1.435   9.017  19.589  0.00  0.00    +0.000 A 
ATOM     30  C   UNL     1       1.633   7.945  20.478  0.00  0.00    +0.000 A 
ATOM     31  C   UNL     1       2.207   6.750  20.045  0.00  0.00    +0.000 A 
ATOM     32  C   UNL     1       2.588   6.612  18.714  0.00  0.00    +0.000 A 
ATOM     33  C   UNL     1       2.415   7.677  17.826  0.00  0.00    +0.000 A 
ATOM     34  C   UNL     1       1.844   8.883  18.260  0.00  0.00    +0.000 A 
ENDBRANCH  26  29
ENDBRANCH   1  25
TORSDOF 6
ENDMDL
MODEL 6
REMARK VINA RESULT:      -6.6      3.465      7.494
REMARK  Name = 
REMARK  7 active torsions:
REMARK  status: ('A' for Active; 'I' for Inactive)
REMARK    1  A    between atoms: C_1  and  C_2
REMARK    2  A    between atoms: C_5  and  S_6
REMARK    3  A    between atoms: S_6  and  N_9
REMARK    4  A    between atoms: C_12  and  C_13
REMARK    5  A    between atoms: C_13  and  N_14
REMARK    6  A    between atoms: C_13  and  C_23
REMARK    7  A    between atoms: C_15  and  C_17
REMARK                            x       y       z     vdW  Elec       q    Type
REMARK                         _______ _______ _______ _____ _____    ______ ____
ROOT
ATOM      1  C   UNL     1      -0.428  12.012  19.400  0.00  0.00    +0.000 C 
ENDROOT
BRANCH   1   2
ATOM      2  C   UNL     1      -1.983  12.007  19.352  0.00  0.00    +0.000 C 
ATOM      3  O   UNL     1      -2.633  12.578  20.235  0.00  0.00    +0.000 OA
ATOM      4  N   UNL     1      -2.625  11.462  18.251  0.00  0.00    +0.000 N 
ATOM      5  C   UNL     1      -2.056  10.778  17.100  0.00  0.00    +0.000 C 
ATOM      6  C   UNL     1      -3.037  11.114  15.983  0.00  0.00    +0.000 C 
ATOM      7  C   UNL     1      -4.389  11.102  16.688  0.00  0.00    +0.000 C 
ATOM      8  C   UNL     1      -4.076  11.522  18.124  0.00  0.00    +0.000 C 
ENDBRANCH   1   2
BRANCH   1  12
ATOM      9  N   UNL     1       2.016  14.823  19.895  0.00  0.00    +0.000 NA
ATOM     10  C   UNL     1       2.407  13.415  19.597  0.00  0.00    +0.000 C 
ATOM     11  C   UNL     1       1.753  12.931  18.304  0.00  0.00    +0.000 C 
ATOM     12  C   UNL     1       0.213  13.007  18.366  0.00  0.00    +0.000 C 
ATOM     13  C   UNL     1      -0.112  14.492  18.605  0.00  0.00    +0.000 C 
ATOM     14  C   UNL     1       0.533  15.044  19.874  0.00  0.00    +0.000 C 
BRANCH   9  15
ATOM     15  S   UNL     1       2.685  15.420  21.381  0.00  0.00    +0.000 S 
ATOM     16  O   UNL     1       2.123  14.618  22.449  0.00  0.00    +0.000 OA
ATOM     17  O   UNL     1       2.542  16.862  21.383  0.00  0.00    +0.000 OA
BRANCH  15  22
ATOM     18  C   UNL     1       8.662  14.396  21.087  0.00  0.00    +0.000 C 
ATOM     19  C   UNL     1       7.179  14.619  21.136  0.00  0.00    +0.000 A 
ATOM     20  C   UNL     1       6.522  15.303  20.104  0.00  0.00    +0.000 A 
ATOM     21  C   UNL     1       5.144  15.528  20.174  0.00  0.00    +0.000 A 
ATOM     22  C   UNL     1       4.421  15.068  21.273  0.00  0.00    +0.000 A 
ATOM     23  C   UNL     1       5.063  14.383  22.309  0.00  0.00    +0.000 A 
ATOM     24  C   UNL     1       6.441  14.165  22.239  0.00  0.00    +0.000 A 
ENDBRANCH  15  22
ENDBRANCH   9  15
ENDBRANCH   1  12
BRANCH   1  25
ATOM     25  N   UNL     1       0.021  10.638  19.075  0.00  0.00    +0.000 N 
ATOM     26  C   UNL     1       0.809   9.927  19.957  0.00  0.00    +0.000 C 
ATOM     27  O   UNL     1       0.986  10.295  21.114  0.00  0.00    +0.000 OA
ATOM     28  H   UNL     1      -0.058  10.349  18.108  0.00  0.00    +0.000 HD
BRANCH  26  29
ATOM     29  C   UNL     1       1.538   8.719  19.471  0.00  0.00    +0.000 A 
ATOM     30  C   UNL     1       2.082   8.782  18.176  0.00  0.00    +0.000 A 
ATOM     31  C   UNL     1       2.839   7.728  17.664  0.00  0.00    +0.000 A 
ATOM     32  C   UNL     1       3.062   6.598  18.445  0.00  0.00    +0.000 A 
ATOM     33  C   UNL     1       2.509   6.516  19.725  0.00  0.00    +0.000 A 
ATOM     34  C   UNL     1       1.742   7.571  20.241  0.00  0.00    +0.000 A 
ENDBRANCH  26  29
ENDBRANCH   1  25
TORSDOF 6
ENDMDL
MODEL 7
REMARK VINA RESULT:      -6.5      2.515      7.221
REMARK  Name = 
REMARK  7 active torsions:
REMARK  status: ('A' for Active; 'I' for Inactive)
REMARK    1  A    between atoms: C_1  and  C_2
REMARK    2  A    between atoms: C_5  and  S_6
REMARK    3  A    between atoms: S_6  and  N_9
REMARK    4  A    between atoms: C_12  and  C_13
REMARK    5  A    between atoms: C_13  and  N_14
REMARK    6  A    between atoms: C_13  and  C_23
REMARK    7  A    between atoms: C_15  and  C_17
REMARK                            x       y       z     vdW  Elec       q    Type
REMARK                         _______ _______ _______ _____ _____    ______ ____
ROOT
ATOM      1  C   UNL     1      -0.097  13.195  21.362  0.00  0.00    +0.000 C 
ENDROOT
BRANCH   1   2
ATOM      2  C   UNL     1       0.850  14.423  21.246  0.00  0.00    +0.000 C 
ATOM      3  O   UNL     1       1.963  14.403  21.786  0.00  0.00    +0.000 OA
ATOM      4  N   UNL     1       0.485  15.486  20.436  0.00  0.00    +0.000 N 
ATOM      5  C   UNL     1      -0.750  15.696  19.695  0.00  0.00    +0.000 C 
ATOM      6  C   UNL     1      -0.292  16.515  18.493  0.00  0.00    +0.000 C 
ATOM      7  C   UNL     1       0.786  17.422  19.075  0.00  0.00    +0.000 C 
ATOM      8  C   UNL     1       1.385  16.614  20.227  0.00  0.00    +0.000 C 
ENDBRANCH   1   2
BRANCH   1  12
ATOM      9  N   UNL     1      -3.496  13.808  22.842  0.00  0.00    +0.000 NA
ATOM     10  C   UNL     1      -3.071  12.519  22.225  0.00  0.00    +0.000 C 
ATOM     11  C   UNL     1      -1.814  11.979  22.903  0.00  0.00    +0.000 C 
ATOM     12  C   UNL     1      -0.635  12.972  22.822  0.00  0.00    +0.000 C 
ATOM     13  C   UNL     1      -1.124  14.244  23.536  0.00  0.00    +0.000 C 
ATOM     14  C   UNL     1      -2.394  14.822  22.917  0.00  0.00    +0.000 C 
BRANCH   9  15
ATOM     15  S   UNL     1      -4.893  14.505  22.082  0.00  0.00    +0.000 S 
ATOM     16  O   UNL     1      -4.414  15.533  21.181  0.00  0.00    +0.000 OA
ATOM     17  O   UNL     1      -5.852  14.817  23.121  0.00  0.00    +0.000 OA
BRANCH  15  22
ATOM     18  C   UNL     1      -7.117   9.885  18.830  0.00  0.00    +0.000 C 
ATOM     19  C   UNL     1      -6.589  11.051  19.612  0.00  0.00    +0.000 A 
ATOM     20  C   UNL     1      -5.535  11.831  19.114  0.00  0.00    +0.000 A 
ATOM     21  C   UNL     1      -5.034  12.899  19.864  0.00  0.00    +0.000 A 
ATOM     22  C   UNL     1      -5.585  13.190  21.111  0.00  0.00    +0.000 A 
ATOM     23  C   UNL     1      -6.636  12.421  21.620  0.00  0.00    +0.000 A 
ATOM     24  C   UNL     1      -7.131  11.352  20.870  0.00  0.00    +0.000 A 
ENDBRANCH  15  22
ENDBRANCH   9  15
ENDBRANCH   1  12
BRANCH   1  25
ATOM     25  N   UNL     1       0.685  12.003  20.958  0.00  0.00    +0.000 N 
ATOM     26  C   UNL     1       0.154  11.072  20.089  0.00  0.00    +0.000 C 
ATOM     27  O   UNL     1      -0.871  11.290  19.449  0.00  0.00    +0.000 OA
ATOM     28  H   UNL     1       1.494  11.777  21.522  0.00  0.00    +0.000 HD
BRANCH  26  29
ATOM     29  C   UNL     1       0.793   9.729  19.982  0.00  0.00    +0.000 A 
ATOM     30  C   UNL     1       1.388   9.403  18.750  0.00  0.00    +0.000 A 
ATOM     31  C   UNL     1       2.069   8.197  18.580  0.00  0.00    +0.000 A 
ATOM     32  C   UNL     1       2.164   7.304  19.643  0.00  0.00    +0.000 A 
ATOM     33  C   UNL     1       1.559   7.608  20.864  0.00  0.00    +0.000 A 
ATOM     34  C   UNL     1       0.867   8.817  21.038  0.00  0.00    +0.000 A 
ENDBRANCH  26  29
ENDBRANCH   1  25
TORSDOF 6
ENDMDL
MODEL 8
REMARK VINA RESULT:      -6.5      3.626      7.009
REMARK  Name = 
REMARK  7 active torsions:
REMARK  status: ('A' for Active; 'I' for Inactive)
REMARK    1  A    between atoms: C_1  and  C_2
REMARK    2  A    between atoms: C_5  and  S_6
REMARK    3  A    between atoms: S_6  and  N_9
REMARK    4  A    between atoms: C_12  and  C_13
REMARK    5  A    between atoms: C_13  and  N_14
REMARK    6  A    between atoms: C_13  and  C_23
REMARK    7  A    between atoms: C_15  and  C_17
REMARK                            x       y       z     vdW  Elec       q    Type
REMARK                         _______ _______ _______ _____ _____    ______ ____
ROOT
ATOM      1  C   UNL     1      -1.157  12.878  20.309  0.00  0.00    +0.000 C 
ENDROOT
BRANCH   1   2
ATOM      2  C   UNL     1      -2.694  12.786  20.531  0.00  0.00    +0.000 C 
ATOM      3  O   UNL     1      -3.428  12.371  19.627  0.00  0.00    +0.000 OA
ATOM      4  N   UNL     1      -3.214  13.059  21.786  0.00  0.00    +0.000 N 
ATOM      5  C   UNL     1      -2.530  13.526  22.984  0.00  0.00    +0.000 C 
ATOM      6  C   UNL     1      -3.358  12.916  24.109  0.00  0.00    +0.000 C 
ATOM      7  C   UNL     1      -4.785  12.994  23.579  0.00  0.00    +0.000 C 
ATOM      8  C   UNL     1      -4.636  12.894  22.061  0.00  0.00    +0.000 C 
ENDBRANCH   1   2
BRANCH   1  12
ATOM      9  N   UNL     1       1.659  15.366  20.274  0.00  0.00    +0.000 NA
ATOM     10  C   UNL     1       1.749  13.991  19.706  0.00  0.00    +0.000 C 
ATOM     11  C   UNL     1       0.660  13.761  18.660  0.00  0.00    +0.000 C 
ATOM     12  C   UNL     1      -0.756  13.958  19.239  0.00  0.00    +0.000 C 
ATOM     13  C   UNL     1      -0.793  15.413  19.739  0.00  0.00    +0.000 C 
ATOM     14  C   UNL     1       0.288  15.713  20.774  0.00  0.00    +0.000 C 
BRANCH   9  15
ATOM     15  S   UNL     1       2.838  15.677  21.510  0.00  0.00    +0.000 S 
ATOM     16  O   UNL     1       2.920  14.481  22.324  0.00  0.00    +0.000 OA
ATOM     17  O   UNL     1       2.528  16.960  22.106  0.00  0.00    +0.000 OA
BRANCH  15  22
ATOM     18  C   UNL     1       8.149  16.444  18.668  0.00  0.00    +0.000 C 
ATOM     19  C   UNL     1       6.822  16.239  19.338  0.00  0.00    +0.000 A 
ATOM     20  C   UNL     1       5.766  17.137  19.129  0.00  0.00    +0.000 A 
ATOM     21  C   UNL     1       4.543  16.949  19.779  0.00  0.00    +0.000 A 
ATOM     22  C   UNL     1       4.373  15.864  20.637  0.00  0.00    +0.000 A 
ATOM     23  C   UNL     1       5.417  14.960  20.855  0.00  0.00    +0.000 A 
ATOM     24  C   UNL     1       6.639  15.153  20.207  0.00  0.00    +0.000 A 
ENDBRANCH  15  22
ENDBRANCH   9  15
ENDBRANCH   1  12
BRANCH   1  25
ATOM     25  N   UNL     1      -0.706  11.550  19.831  0.00  0.00    +0.000 N 
ATOM     26  C   UNL     1       0.180  10.797  20.574  0.00  0.00    +0.000 C 
ATOM     27  O   UNL     1       0.458  11.078  21.736  0.00  0.00    +0.000 OA
ATOM     28  H   UNL     1      -0.871  11.337  18.856  0.00  0.00    +0.000 HD
BRANCH  26  29
ATOM     29  C   UNL     1       0.889   9.657  19.924  0.00  0.00    +0.000 A 
ATOM     30  C   UNL     1       1.168   9.779  18.551  0.00  0.00    +0.000 A 
ATOM     31  C   UNL     1       1.889   8.794  17.875  0.00  0.00    +0.000 A 
ATOM     32  C   UNL     1       2.340   7.674  18.567  0.00  0.00    +0.000 A 
ATOM     33  C   UNL     1       2.050   7.532  19.926  0.00  0.00    +0.000 A 
ATOM     34  C   UNL     1       1.320   8.517  20.608  0.00  0.00    +0.000 A 
ENDBRANCH  26  29
ENDBRANCH   1  25
TORSDOF 6
ENDMDL
MODEL 9
REMARK VINA RESULT:      -6.5      1.440      1.893
REMARK  Name = 
REMARK  7 active torsions:
REMARK  status: ('A' for Active; 'I' for Inactive)
REMARK    1  A    between atoms: C_1  and  C_2
REMARK    2  A    between atoms: C_5  and  S_6
REMARK    3  A    between atoms: S_6  and  N_9
REMARK    4  A    between atoms: C_12  and  C_13
REMARK    5  A    between atoms: C_13  and  N_14
REMARK    6  A    between atoms: C_13  and  C_23
REMARK    7  A    between atoms: C_15  and  C_17
REMARK                            x       y       z     vdW  Elec       q    Type
REMARK                         _______ _______ _______ _____ _____    ______ ____
ROOT
ATOM      1  C   UNL     1      -1.574  14.190  20.379  0.00  0.00    +0.000 C 
ENDROOT
BRANCH   1   2
ATOM      2  C   UNL     1      -1.310  15.718  20.506  0.00  0.00    +0.000 C 
ATOM      3  O   UNL     1      -2.095  16.528  19.999  0.00  0.00    +0.000 OA
ATOM      4  N   UNL     1      -0.258  16.161  21.291  0.00  0.00    +0.000 N 
ATOM      5  C   UNL     1       0.755  15.387  21.993  0.00  0.00    +0.000 C 
ATOM      6  C   UNL     1       1.081  16.264  23.196  0.00  0.00    +0.000 C 
ATOM      7  C   UNL     1       0.999  17.679  22.634  0.00  0.00    +0.000 C 
ATOM      8  C   UNL     1      -0.034  17.584  21.511  0.00  0.00    +0.000 C 
ENDBRANCH   1   2
BRANCH   1  12
ATOM      9  N   UNL     1       0.093  10.903  19.646  0.00  0.00    +0.000 NA
ATOM     10  C   UNL     1      -1.381  11.126  19.594  0.00  0.00    +0.000 C 
ATOM     11  C   UNL     1      -1.726  12.260  18.632  0.00  0.00    +0.000 C 
ATOM     12  C   UNL     1      -1.046  13.588  19.027  0.00  0.00    +0.000 C 
ATOM     13  C   UNL     1       0.465  13.297  18.990  0.00  0.00    +0.000 C 
ATOM     14  C   UNL     1       0.873  12.155  19.917  0.00  0.00    +0.000 C 
BRANCH   9  15
ATOM     15  S   UNL     1       0.559   9.658  20.762  0.00  0.00    +0.000 S 
ATOM     16  O   UNL     1      -0.655   8.989  21.179  0.00  0.00    +0.000 OA
ATOM     17  O   UNL     1       1.452  10.250  21.737  0.00  0.00    +0.000 OA
BRANCH  15  22
ATOM     18  C   UNL     1       4.015   5.854  17.529  0.00  0.00    +0.000 C 
ATOM     19  C   UNL     1       3.130   6.783  18.307  0.00  0.00    +0.000 A 
ATOM     20  C   UNL     1       2.770   8.034  17.787  0.00  0.00    +0.000 A 
ATOM     21  C   UNL     1       1.966   8.901  18.534  0.00  0.00    +0.000 A 
ATOM     22  C   UNL     1       1.521   8.519  19.798  0.00  0.00    +0.000 A 
ATOM     23  C   UNL     1       1.872   7.275  20.329  0.00  0.00    +0.000 A 
ATOM     24  C   UNL     1       2.679   6.413  19.583  0.00  0.00    +0.000 A 
ENDBRANCH  15  22
ENDBRANCH   9  15
ENDBRANCH   1  12
BRANCH   1  25
ATOM     25  N   UNL     1      -3.041  13.995  20.443  0.00  0.00    +0.000 N 
ATOM     26  C   UNL     1      -3.631  13.449  21.565  0.00  0.00    +0.000 C 
ATOM     27  O   UNL     1      -3.019  13.309  22.620  0.00  0.00    +0.000 OA
ATOM     28  H   UNL     1      -3.545  14.041  19.567  0.00  0.00    +0.000 HD
BRANCH  26  29
ATOM     29  C   UNL     1      -5.028  12.933  21.474  0.00  0.00    +0.000 A 
ATOM     30  C   UNL     1      -5.400  12.309  20.270  0.00  0.00    +0.000 A 
ATOM     31  C   UNL     1      -6.662  11.735  20.119  0.00  0.00    +0.000 A 
ATOM     32  C   UNL     1      -7.568  11.777  21.175  0.00  0.00    +0.000 A 
ATOM     33  C   UNL     1      -7.217  12.413  22.369  0.00  0.00    +0.000 A 
ATOM     34  C   UNL     1      -5.950  12.997  22.521  0.00  0.00    +0.000 A 
ENDBRANCH  26  29
ENDBRANCH   1  25
TORSDOF 6
ENDMDL
