MODEL 1
REMARK VINA RESULT:     -10.5      0.000      0.000
REMARK  Name = 
REMARK  4 active torsions:
REMARK  status: ('A' for Active; 'I' for Inactive)
REMARK    1  A    between atoms: N_11  and  C_12
REMARK    2  A    between atoms: N_19  and  N_20
REMARK    3  A    between atoms: C_21  and  C_22
REMARK    4  A    between atoms: C_23  and  C_24
REMARK                            x       y       z     vdW  Elec       q    Type
REMARK                         _______ _______ _______ _____ _____    ______ ____
ROOT
ATOM      1  O   UNL     1       3.450   6.859  19.125  0.00  0.00    +0.000 OA
ATOM      2  C   UNL     1       3.775   5.960  18.351  0.00  0.00    +0.000 A 
ATOM      3  C   UNL     1       3.014   4.687  18.362  0.00  0.00    +0.000 A 
ATOM      4  C   UNL     1       1.931   4.473  19.234  0.00  0.00    +0.000 A 
ATOM      5  C   UNL     1       1.277   3.238  19.259  0.00  0.00    +0.000 A 
ATOM      6  C   UNL     1       1.713   2.216  18.419  0.00  0.00    +0.000 A 
ATOM      7  C   UNL     1       2.782   2.440  17.547  0.00  0.00    +0.000 A 
ATOM      8  C   UNL     1       3.426   3.680  17.490  0.00  0.00    +0.000 A 
ATOM      9  N   UNL     1       4.477   3.836  16.576  0.00  0.00    +0.000 NA
ATOM     10  C   UNL     1       5.167   4.938  16.567  0.00  0.00    +0.000 A 
ATOM     11  N   UNL     1       6.284   5.118  15.774  0.00  0.00    +0.000 N 
ATOM     12  N   UNL     1       4.829   6.015  17.419  0.00  0.00    +0.000 N 
ATOM     13  H   UNL     1       6.889   5.858  16.111  0.00  0.00    +0.000 HD
ENDROOT
BRANCH  11  14
ATOM     14  C   UNL     1       6.544   4.710  14.451  0.00  0.00    +0.000 A 
ATOM     15  C   UNL     1       7.563   5.380  13.740  0.00  0.00    +0.000 A 
ATOM     16  C   UNL     1       7.835   5.100  12.396  0.00  0.00    +0.000 A 
ATOM     17  C   UNL     1       7.104   4.121  11.734  0.00  0.00    +0.000 A 
ATOM     18  C   UNL     1       6.127   3.414  12.433  0.00  0.00    +0.000 A 
ATOM     19 CL   UNL     1       5.246   2.180  11.615  0.00  0.00    +0.000 Cl
ATOM     20  C   UNL     1       5.847   3.700  13.777  0.00  0.00    +0.000 A 
ENDBRANCH  11  14
BRANCH  12  21
ATOM     21  N   UNL     1       5.688   7.138  17.449  0.00  0.00    +0.000 NA
ATOM     22  C   UNL     1       6.949   6.855  17.560  0.00  0.00    +0.000 C 
BRANCH  22  23
ATOM     23  C   UNL     1       7.992   7.819  18.024  0.00  0.00    +0.000 C 
ATOM     24  C   UNL     1       8.022   9.125  17.704  0.00  0.00    +0.000 C 
BRANCH  24  25
ATOM     25  C   UNL     1       8.791  10.152  18.458  0.00  0.00    +0.000 A 
ATOM     26  C   UNL     1       9.205   9.987  19.790  0.00  0.00    +0.000 A 
ATOM     27  C   UNL     1       9.665  11.074  20.547  0.00  0.00    +0.000 A 
ATOM     28  C   UNL     1       9.755  12.338  19.974  0.00  0.00    +0.000 A 
ATOM     29  C   UNL     1       9.447  12.501  18.627  0.00  0.00    +0.000 A 
ATOM     30  C   UNL     1       8.978  11.416  17.873  0.00  0.00    +0.000 A 
ENDBRANCH  24  25
ENDBRANCH  22  23
ENDBRANCH  12  21
TORSDOF 4
ENDMDL
MODEL 2
REMARK VINA RESULT:      -9.8      3.594      5.439
REMARK  Name = 
REMARK  4 active torsions:
REMARK  status: ('A' for Active; 'I' for Inactive)
REMARK    1  A    between atoms: N_11  and  C_12
REMARK    2  A    between atoms: N_19  and  N_20
REMARK    3  A    between atoms: C_21  and  C_22
REMARK    4  A    between atoms: C_23  and  C_24
REMARK                            x       y       z     vdW  Elec       q    Type
REMARK                         _______ _______ _______ _____ _____    ______ ____
ROOT
ATOM      1  O   UNL     1       6.115   4.292  17.595  0.00  0.00    +0.000 OA
ATOM      2  C   UNL     1       4.982   4.742  17.763  0.00  0.00    +0.000 A 
ATOM      3  C   UNL     1       3.863   3.803  18.019  0.00  0.00    +0.000 A 
ATOM      4  C   UNL     1       4.055   2.410  18.072  0.00  0.00    +0.000 A 
ATOM      5  C   UNL     1       2.966   1.554  18.254  0.00  0.00    +0.000 A 
ATOM      6  C   UNL     1       1.686   2.090  18.373  0.00  0.00    +0.000 A 
ATOM      7  C   UNL     1       1.505   3.475  18.331  0.00  0.00    +0.000 A 
ATOM      8  C   UNL     1       2.588   4.345  18.179  0.00  0.00    +0.000 A 
ATOM      9  N   UNL     1       2.331   5.723  18.167  0.00  0.00    +0.000 NA
ATOM     10  C   UNL     1       3.298   6.558  17.923  0.00  0.00    +0.000 A 
ATOM     11  N   UNL     1       3.098   7.918  17.784  0.00  0.00    +0.000 N 
ATOM     12  N   UNL     1       4.625   6.103  17.742  0.00  0.00    +0.000 N 
ATOM     13  H   UNL     1       3.848   8.375  17.280  0.00  0.00    +0.000 HD
ENDROOT
BRANCH  11  14
ATOM     14  C   UNL     1       2.248   8.796  18.486  0.00  0.00    +0.000 A 
ATOM     15  C   UNL     1       2.001  10.068  17.925  0.00  0.00    +0.000 A 
ATOM     16  C   UNL     1       1.238  11.035  18.589  0.00  0.00    +0.000 A 
ATOM     17  C   UNL     1       0.682  10.742  19.828  0.00  0.00    +0.000 A 
ATOM     18  C   UNL     1       0.874   9.475  20.377  0.00  0.00    +0.000 A 
ATOM     19 CL   UNL     1       0.156   9.109  21.900  0.00  0.00    +0.000 Cl
ATOM     20  C   UNL     1       1.646   8.509  19.717  0.00  0.00    +0.000 A 
ENDBRANCH  11  14
BRANCH  12  21
ATOM     21  N   UNL     1       5.608   7.045  17.363  0.00  0.00    +0.000 NA
ATOM     22  C   UNL     1       6.794   6.814  17.834  0.00  0.00    +0.000 C 
BRANCH  22  23
ATOM     23  C   UNL     1       7.877   7.839  17.934  0.00  0.00    +0.000 C 
ATOM     24  C   UNL     1       7.689   9.165  17.806  0.00  0.00    +0.000 C 
BRANCH  24  25
ATOM     25  C   UNL     1       8.647  10.195  18.291  0.00  0.00    +0.000 A 
ATOM     26  C   UNL     1       9.379  10.073  19.484  0.00  0.00    +0.000 A 
ATOM     27  C   UNL     1      10.040  11.174  20.045  0.00  0.00    +0.000 A 
ATOM     28  C   UNL     1      10.014  12.407  19.405  0.00  0.00    +0.000 A 
ATOM     29  C   UNL     1       9.382  12.523  18.171  0.00  0.00    +0.000 A 
ATOM     30  C   UNL     1       8.713  11.425  17.614  0.00  0.00    +0.000 A 
ENDBRANCH  24  25
ENDBRANCH  22  23
ENDBRANCH  12  21
TORSDOF 4
ENDMDL
MODEL 3
REMARK VINA RESULT:      -9.6      1.075      1.347
REMARK  Name = 
REMARK  4 active torsions:
REMARK  status: ('A' for Active; 'I' for Inactive)
REMARK    1  A    between atoms: N_11  and  C_12
REMARK    2  A    between atoms: N_19  and  N_20
REMARK    3  A    between atoms: C_21  and  C_22
REMARK    4  A    between atoms: C_23  and  C_24
REMARK                            x       y       z     vdW  Elec       q    Type
REMARK                         _______ _______ _______ _____ _____    ______ ____
ROOT
ATOM      1  O   UNL     1       5.274   5.856  19.892  0.00  0.00    +0.000 OA
ATOM      2  C   UNL     1       5.147   5.195  18.862  0.00  0.00    +0.000 A 
ATOM      3  C   UNL     1       3.921   4.384  18.672  0.00  0.00    +0.000 A 
ATOM      4  C   UNL     1       2.897   4.342  19.635  0.00  0.00    +0.000 A 
ATOM      5  C   UNL     1       1.784   3.517  19.448  0.00  0.00    +0.000 A 
ATOM      6  C   UNL     1       1.702   2.728  18.303  0.00  0.00    +0.000 A 
ATOM      7  C   UNL     1       2.718   2.784  17.345  0.00  0.00    +0.000 A 
ATOM      8  C   UNL     1       3.822   3.626  17.505  0.00  0.00    +0.000 A 
ATOM      9  N   UNL     1       4.790   3.643  16.492  0.00  0.00    +0.000 NA
ATOM     10  C   UNL     1       5.880   4.334  16.652  0.00  0.00    +0.000 A 
ATOM     11  N   UNL     1       6.925   4.308  15.749  0.00  0.00    +0.000 N 
ATOM     12  N   UNL     1       6.075   5.130  17.805  0.00  0.00    +0.000 N 
ATOM     13  H   UNL     1       7.803   4.609  16.156  0.00  0.00    +0.000 HD
ENDROOT
BRANCH  11  14
ATOM     14  C   UNL     1       6.919   4.271  14.340  0.00  0.00    +0.000 A 
ATOM     15  C   UNL     1       7.743   5.186  13.650  0.00  0.00    +0.000 A 
ATOM     16  C   UNL     1       7.739   5.278  12.254  0.00  0.00    +0.000 A 
ATOM     17  C   UNL     1       6.922   4.437  11.509  0.00  0.00    +0.000 A 
ATOM     18  C   UNL     1       6.137   3.493  12.170  0.00  0.00    +0.000 A 
ATOM     19 CL   UNL     1       5.149   2.432  11.239  0.00  0.00    +0.000 Cl
ATOM     20  C   UNL     1       6.132   3.406  13.570  0.00  0.00    +0.000 A 
ENDBRANCH  11  14
BRANCH  12  21
ATOM     21  N   UNL     1       7.328   5.761  17.977  0.00  0.00    +0.000 NA
ATOM     22  C   UNL     1       7.274   6.945  18.505  0.00  0.00    +0.000 C 
BRANCH  22  23
ATOM     23  C   UNL     1       8.365   7.962  18.410  0.00  0.00    +0.000 C 
ATOM     24  C   UNL     1       8.169   9.277  18.203  0.00  0.00    +0.000 C 
BRANCH  24  25
ATOM     25  C   UNL     1       9.177  10.329  18.502  0.00  0.00    +0.000 A 
ATOM     26  C   UNL     1       9.983  10.933  17.522  0.00  0.00    +0.000 A 
ATOM     27  C   UNL     1      11.104  11.696  17.874  0.00  0.00    +0.000 A 
ATOM     28  C   UNL     1      11.419  11.903  19.212  0.00  0.00    +0.000 A 
ATOM     29  C   UNL     1      10.575  11.399  20.198  0.00  0.00    +0.000 A 
ATOM     30  C   UNL     1       9.459  10.628  19.846  0.00  0.00    +0.000 A 
ENDBRANCH  24  25
ENDBRANCH  22  23
ENDBRANCH  12  21
TORSDOF 4
ENDMDL
MODEL 4
REMARK VINA RESULT:      -9.6      2.447      5.425
REMARK  Name = 
REMARK  4 active torsions:
REMARK  status: ('A' for Active; 'I' for Inactive)
REMARK    1  A    between atoms: N_11  and  C_12
REMARK    2  A    between atoms: N_19  and  N_20
REMARK    3  A    between atoms: C_21  and  C_22
REMARK    4  A    between atoms: C_23  and  C_24
REMARK                            x       y       z     vdW  Elec       q    Type
REMARK                         _______ _______ _______ _____ _____    ______ ____
ROOT
ATOM      1  O   UNL     1       8.318   5.800  15.269  0.00  0.00    +0.000 OA
ATOM      2  C   UNL     1       7.175   5.349  15.337  0.00  0.00    +0.000 A 
ATOM      3  C   UNL     1       6.628   4.593  14.184  0.00  0.00    +0.000 A 
ATOM      4  C   UNL     1       7.374   4.379  13.011  0.00  0.00    +0.000 A 
ATOM      5  C   UNL     1       6.802   3.716  11.922  0.00  0.00    +0.000 A 
ATOM      6  C   UNL     1       5.482   3.277  12.004  0.00  0.00    +0.000 A 
ATOM      7  C   UNL     1       4.752   3.483  13.177  0.00  0.00    +0.000 A 
ATOM      8  C   UNL     1       5.320   4.119  14.284  0.00  0.00    +0.000 A 
ATOM      9  N   UNL     1       4.532   4.272  15.433  0.00  0.00    +0.000 NA
ATOM     10  C   UNL     1       4.990   4.949  16.445  0.00  0.00    +0.000 A 
ATOM     11  N   UNL     1       4.230   5.236  17.562  0.00  0.00    +0.000 N 
ATOM     12  N   UNL     1       6.303   5.474  16.435  0.00  0.00    +0.000 N 
ATOM     13  H   UNL     1       4.588   6.025  18.088  0.00  0.00    +0.000 HD
ENDROOT
BRANCH  11  14
ATOM     14  C   UNL     1       3.289   4.450  18.258  0.00  0.00    +0.000 A 
ATOM     15  C   UNL     1       2.039   4.217  17.646  0.00  0.00    +0.000 A 
ATOM     16  C   UNL     1       1.015   3.519  18.295  0.00  0.00    +0.000 A 
ATOM     17  C   UNL     1       1.227   3.016  19.573  0.00  0.00    +0.000 A 
ATOM     18  C   UNL     1       2.472   3.194  20.175  0.00  0.00    +0.000 A 
ATOM     19 CL   UNL     1       2.738   2.540  21.747  0.00  0.00    +0.000 Cl
ATOM     20  C   UNL     1       3.495   3.901  19.529  0.00  0.00    +0.000 A 
ENDBRANCH  11  14
BRANCH  12  21
ATOM     21  N   UNL     1       6.700   6.301  17.511  0.00  0.00    +0.000 NA
ATOM     22  C   UNL     1       7.013   7.516  17.177  0.00  0.00    +0.000 C 
BRANCH  22  23
ATOM     23  C   UNL     1       7.837   8.436  18.018  0.00  0.00    +0.000 C 
ATOM     24  C   UNL     1       8.486   9.520  17.555  0.00  0.00    +0.000 C 
BRANCH  24  25
ATOM     25  C   UNL     1       8.959  10.640  18.413  0.00  0.00    +0.000 A 
ATOM     26  C   UNL     1       9.215  11.933  17.927  0.00  0.00    +0.000 A 
ATOM     27  C   UNL     1       9.925  12.868  18.693  0.00  0.00    +0.000 A 
ATOM     28  C   UNL     1      10.357  12.541  19.973  0.00  0.00    +0.000 A 
ATOM     29  C   UNL     1      10.024  11.301  20.511  0.00  0.00    +0.000 A 
ATOM     30  C   UNL     1       9.322  10.363  19.742  0.00  0.00    +0.000 A 
ENDBRANCH  24  25
ENDBRANCH  22  23
ENDBRANCH  12  21
TORSDOF 4
ENDMDL
MODEL 5
REMARK VINA RESULT:      -9.5      3.562      5.540
REMARK  Name = 
REMARK  4 active torsions:
REMARK  status: ('A' for Active; 'I' for Inactive)
REMARK    1  A    between atoms: N_11  and  C_12
REMARK    2  A    between atoms: N_19  and  N_20
REMARK    3  A    between atoms: C_21  and  C_22
REMARK    4  A    between atoms: C_23  and  C_24
REMARK                            x       y       z     vdW  Elec       q    Type
REMARK                         _______ _______ _______ _____ _____    ______ ____
ROOT
ATOM      1  O   UNL     1       6.217   4.455  17.423  0.00  0.00    +0.000 OA
ATOM      2  C   UNL     1       5.092   4.922  17.600  0.00  0.00    +0.000 A 
ATOM      3  C   UNL     1       3.959   3.999  17.851  0.00  0.00    +0.000 A 
ATOM      4  C   UNL     1       4.128   2.603  17.888  0.00  0.00    +0.000 A 
ATOM      5  C   UNL     1       3.025   1.762  18.065  0.00  0.00    +0.000 A 
ATOM      6  C   UNL     1       1.755   2.318  18.194  0.00  0.00    +0.000 A 
ATOM      7  C   UNL     1       1.597   3.706  18.168  0.00  0.00    +0.000 A 
ATOM      8  C   UNL     1       2.693   4.560  18.021  0.00  0.00    +0.000 A 
ATOM      9  N   UNL     1       2.459   5.942  18.024  0.00  0.00    +0.000 NA
ATOM     10  C   UNL     1       3.438   6.764  17.786  0.00  0.00    +0.000 A 
ATOM     11  N   UNL     1       3.260   8.128  17.661  0.00  0.00    +0.000 N 
ATOM     12  N   UNL     1       4.757   6.289  17.595  0.00  0.00    +0.000 N 
ATOM     13  H   UNL     1       4.016   8.578  17.159  0.00  0.00    +0.000 HD
ENDROOT
BRANCH  11  14
ATOM     14  C   UNL     1       2.427   9.013  18.375  0.00  0.00    +0.000 A 
ATOM     15  C   UNL     1       1.745   8.513  19.505  0.00  0.00    +0.000 A 
ATOM     16  C   UNL     1       0.834   9.294  20.226  0.00  0.00    +0.000 A 
ATOM     17  C   UNL     1       0.598  10.609  19.842  0.00  0.00    +0.000 A 
ATOM     18  C   UNL     1       1.298  11.135  18.757  0.00  0.00    +0.000 A 
ATOM     19 CL   UNL     1       1.025  12.776  18.306  0.00  0.00    +0.000 Cl
ATOM     20  C   UNL     1       2.204  10.351  18.029  0.00  0.00    +0.000 A 
ENDBRANCH  11  14
BRANCH  12  21
ATOM     21  N   UNL     1       5.754   7.219  17.222  0.00  0.00    +0.000 NA
ATOM     22  C   UNL     1       6.935   6.971  17.697  0.00  0.00    +0.000 C 
BRANCH  22  23
ATOM     23  C   UNL     1       8.031   7.981  17.804  0.00  0.00    +0.000 C 
ATOM     24  C   UNL     1       7.840   9.310  17.897  0.00  0.00    +0.000 C 
BRANCH  24  25
ATOM     25  C   UNL     1       8.863  10.267  18.399  0.00  0.00    +0.000 A 
ATOM     26  C   UNL     1       9.719  10.997  17.557  0.00  0.00    +0.000 A 
ATOM     27  C   UNL     1      10.845  11.658  18.067  0.00  0.00    +0.000 A 
ATOM     28  C   UNL     1      11.114  11.635  19.431  0.00  0.00    +0.000 A 
ATOM     29  C   UNL     1      10.221  11.005  20.292  0.00  0.00    +0.000 A 
ATOM     30  C   UNL     1       9.100  10.335  19.782  0.00  0.00    +0.000 A 
ENDBRANCH  24  25
ENDBRANCH  22  23
ENDBRANCH  12  21
TORSDOF 4
ENDMDL
MODEL 6
REMARK VINA RESULT:      -9.5      0.831      1.169
REMARK  Name = 
REMARK  4 active torsions:
REMARK  status: ('A' for Active; 'I' for Inactive)
REMARK    1  A    between atoms: N_11  and  C_12
REMARK    2  A    between atoms: N_19  and  N_20
REMARK    3  A    between atoms: C_21  and  C_22
REMARK    4  A    between atoms: C_23  and  C_24
REMARK                            x       y       z     vdW  Elec       q    Type
REMARK                         _______ _______ _______ _____ _____    ______ ____
ROOT
ATOM      1  O   UNL     1       3.564   7.181  18.492  0.00  0.00    +0.000 OA
ATOM      2  C   UNL     1       3.955   6.231  17.814  0.00  0.00    +0.000 A 
ATOM      3  C   UNL     1       3.321   4.903  18.001  0.00  0.00    +0.000 A 
ATOM      4  C   UNL     1       2.289   4.694  18.933  0.00  0.00    +0.000 A 
ATOM      5  C   UNL     1       1.759   3.415  19.125  0.00  0.00    +0.000 A 
ATOM      6  C   UNL     1       2.269   2.346  18.392  0.00  0.00    +0.000 A 
ATOM      7  C   UNL     1       3.286   2.564  17.459  0.00  0.00    +0.000 A 
ATOM      8  C   UNL     1       3.805   3.843  17.236  0.00  0.00    +0.000 A 
ATOM      9  N   UNL     1       4.810   3.987  16.270  0.00  0.00    +0.000 NA
ATOM     10  C   UNL     1       5.390   5.140  16.108  0.00  0.00    +0.000 A 
ATOM     11  N   UNL     1       6.462   5.328  15.257  0.00  0.00    +0.000 N 
ATOM     12  N   UNL     1       4.972   6.274  16.842  0.00  0.00    +0.000 N 
ATOM     13  H   UNL     1       7.001   6.156  15.483  0.00  0.00    +0.000 HD
ENDROOT
BRANCH  11  14
ATOM     14  C   UNL     1       6.724   4.793  13.981  0.00  0.00    +0.000 A 
ATOM     15  C   UNL     1       7.676   5.449  13.170  0.00  0.00    +0.000 A 
ATOM     16  C   UNL     1       7.941   5.038  11.859  0.00  0.00    +0.000 A 
ATOM     17  C   UNL     1       7.271   3.941  11.332  0.00  0.00    +0.000 A 
ATOM     18  C   UNL     1       6.363   3.250  12.133  0.00  0.00    +0.000 A 
ATOM     19 CL   UNL     1       5.559   1.872  11.483  0.00  0.00    +0.000 Cl
ATOM     20  C   UNL     1       6.090   3.666  13.443  0.00  0.00    +0.000 A 
ENDBRANCH  11  14
BRANCH  12  21
ATOM     21  N   UNL     1       5.718   7.467  16.710  0.00  0.00    +0.000 NA
ATOM     22  C   UNL     1       6.708   7.585  17.541  0.00  0.00    +0.000 C 
BRANCH  22  23
ATOM     23  C   UNL     1       7.369   8.880  17.887  0.00  0.00    +0.000 C 
ATOM     24  C   UNL     1       8.420   9.004  18.717  0.00  0.00    +0.000 C 
BRANCH  24  25
ATOM     25  C   UNL     1       9.320  10.188  18.756  0.00  0.00    +0.000 A 
ATOM     26  C   UNL     1       9.956  10.715  17.619  0.00  0.00    +0.000 A 
ATOM     27  C   UNL     1      11.006  11.636  17.738  0.00  0.00    +0.000 A 
ATOM     28  C   UNL     1      11.413  12.076  18.992  0.00  0.00    +0.000 A 
ATOM     29  C   UNL     1      10.727  11.645  20.123  0.00  0.00    +0.000 A 
ATOM     30  C   UNL     1       9.684  10.717  20.005  0.00  0.00    +0.000 A 
ENDBRANCH  24  25
ENDBRANCH  22  23
ENDBRANCH  12  21
TORSDOF 4
ENDMDL
MODEL 7
REMARK VINA RESULT:      -9.3      2.339      5.292
REMARK  Name = 
REMARK  4 active torsions:
REMARK  status: ('A' for Active; 'I' for Inactive)
REMARK    1  A    between atoms: N_11  and  C_12
REMARK    2  A    between atoms: N_19  and  N_20
REMARK    3  A    between atoms: C_21  and  C_22
REMARK    4  A    between atoms: C_23  and  C_24
REMARK                            x       y       z     vdW  Elec       q    Type
REMARK                         _______ _______ _______ _____ _____    ______ ____
ROOT
ATOM      1  O   UNL     1       8.584   5.717  14.791  0.00  0.00    +0.000 OA
ATOM      2  C   UNL     1       7.475   5.230  15.009  0.00  0.00    +0.000 A 
ATOM      3  C   UNL     1       6.761   4.540  13.908  0.00  0.00    +0.000 A 
ATOM      4  C   UNL     1       7.309   4.427  12.619  0.00  0.00    +0.000 A 
ATOM      5  C   UNL     1       6.579   3.823  11.591  0.00  0.00    +0.000 A 
ATOM      6  C   UNL     1       5.298   3.343  11.852  0.00  0.00    +0.000 A 
ATOM      7  C   UNL     1       4.765   3.449  13.140  0.00  0.00    +0.000 A 
ATOM      8  C   UNL     1       5.495   4.023  14.184  0.00  0.00    +0.000 A 
ATOM      9  N   UNL     1       4.902   4.076  15.453  0.00  0.00    +0.000 NA
ATOM     10  C   UNL     1       5.506   4.695  16.423  0.00  0.00    +0.000 A 
ATOM     11  N   UNL     1       4.933   4.884  17.666  0.00  0.00    +0.000 N 
ATOM     12  N   UNL     1       6.791   5.257  16.239  0.00  0.00    +0.000 N 
ATOM     13  H   UNL     1       5.358   5.645  18.182  0.00  0.00    +0.000 HD
ENDROOT
BRANCH  11  14
ATOM     14  C   UNL     1       4.131   4.027  18.446  0.00  0.00    +0.000 A 
ATOM     15  C   UNL     1       4.750   3.318  19.498  0.00  0.00    +0.000 A 
ATOM     16  C   UNL     1       4.053   2.384  20.272  0.00  0.00    +0.000 A 
ATOM     17  C   UNL     1       2.705   2.150  20.023  0.00  0.00    +0.000 A 
ATOM     18  C   UNL     1       2.065   2.876  19.019  0.00  0.00    +0.000 A 
ATOM     19 CL   UNL     1       0.387   2.604  18.737  0.00  0.00    +0.000 Cl
ATOM     20  C   UNL     1       2.764   3.806  18.237  0.00  0.00    +0.000 A 
ENDBRANCH  11  14
BRANCH  12  21
ATOM     21  N   UNL     1       7.343   6.020  17.294  0.00  0.00    +0.000 NA
ATOM     22  C   UNL     1       7.270   7.305  17.132  0.00  0.00    +0.000 C 
BRANCH  22  23
ATOM     23  C   UNL     1       8.118   8.297  17.859  0.00  0.00    +0.000 C 
ATOM     24  C   UNL     1       8.309   9.571  17.471  0.00  0.00    +0.000 C 
BRANCH  24  25
ATOM     25  C   UNL     1       8.800  10.653  18.367  0.00  0.00    +0.000 A 
ATOM     26  C   UNL     1       8.960  11.987  17.955  0.00  0.00    +0.000 A 
ATOM     27  C   UNL     1       9.687  12.902  18.729  0.00  0.00    +0.000 A 
ATOM     28  C   UNL     1      10.235  12.511  19.945  0.00  0.00    +0.000 A 
ATOM     29  C   UNL     1      10.000  11.224  20.418  0.00  0.00    +0.000 A 
ATOM     30  C   UNL     1       9.280  10.306  19.641  0.00  0.00    +0.000 A 
ENDBRANCH  24  25
ENDBRANCH  22  23
ENDBRANCH  12  21
TORSDOF 4
ENDMDL
MODEL 8
REMARK VINA RESULT:      -9.1      1.001      1.063
REMARK  Name = 
REMARK  4 active torsions:
REMARK  status: ('A' for Active; 'I' for Inactive)
REMARK    1  A    between atoms: N_11  and  C_12
REMARK    2  A    between atoms: N_19  and  N_20
REMARK    3  A    between atoms: C_21  and  C_22
REMARK    4  A    between atoms: C_23  and  C_24
REMARK                            x       y       z     vdW  Elec       q    Type
REMARK                         _______ _______ _______ _____ _____    ______ ____
ROOT
ATOM      1  O   UNL     1       4.317   6.891  18.905  0.00  0.00    +0.000 OA
ATOM      2  C   UNL     1       4.475   5.907  18.183  0.00  0.00    +0.000 A 
ATOM      3  C   UNL     1       3.804   4.634  18.541  0.00  0.00    +0.000 A 
ATOM      4  C   UNL     1       2.993   4.514  19.684  0.00  0.00    +0.000 A 
ATOM      5  C   UNL     1       2.428   3.281  20.023  0.00  0.00    +0.000 A 
ATOM      6  C   UNL     1       2.682   2.169  19.223  0.00  0.00    +0.000 A 
ATOM      7  C   UNL     1       3.478   2.300  18.082  0.00  0.00    +0.000 A 
ATOM      8  C   UNL     1       4.026   3.532  17.715  0.00  0.00    +0.000 A 
ATOM      9  N   UNL     1       4.798   3.590  16.547  0.00  0.00    +0.000 NA
ATOM     10  C   UNL     1       5.409   4.692  16.230  0.00  0.00    +0.000 A 
ATOM     11  N   UNL     1       6.274   4.790  15.158  0.00  0.00    +0.000 N 
ATOM     12  N   UNL     1       5.249   5.863  17.008  0.00  0.00    +0.000 N 
ATOM     13  H   UNL     1       6.910   5.576  15.236  0.00  0.00    +0.000 HD
ENDROOT
BRANCH  11  14
ATOM     14  C   UNL     1       6.205   4.224  13.869  0.00  0.00    +0.000 A 
ATOM     15  C   UNL     1       7.411   4.052  13.155  0.00  0.00    +0.000 A 
ATOM     16  C   UNL     1       7.432   3.576  11.840  0.00  0.00    +0.000 A 
ATOM     17  C   UNL     1       6.240   3.237  11.211  0.00  0.00    +0.000 A 
ATOM     18  C   UNL     1       5.043   3.353  11.916  0.00  0.00    +0.000 A 
ATOM     19 CL   UNL     1       3.572   2.902  11.140  0.00  0.00    +0.000 Cl
ATOM     20  C   UNL     1       5.020   3.839  13.230  0.00  0.00    +0.000 A 
ENDBRANCH  11  14
BRANCH  12  21
ATOM     21  N   UNL     1       6.033   6.994  16.682  0.00  0.00    +0.000 NA
ATOM     22  C   UNL     1       7.090   7.154  17.417  0.00  0.00    +0.000 C 
BRANCH  22  23
ATOM     23  C   UNL     1       7.830   8.444  17.560  0.00  0.00    +0.000 C 
ATOM     24  C   UNL     1       8.165   9.008  18.734  0.00  0.00    +0.000 C 
BRANCH  24  25
ATOM     25  C   UNL     1       9.221  10.044  18.893  0.00  0.00    +0.000 A 
ATOM     26  C   UNL     1       9.616  10.564  20.137  0.00  0.00    +0.000 A 
ATOM     27  C   UNL     1      10.394  11.727  20.223  0.00  0.00    +0.000 A 
ATOM     28  C   UNL     1      10.823  12.370  19.067  0.00  0.00    +0.000 A 
ATOM     29  C   UNL     1      10.529  11.813  17.827  0.00  0.00    +0.000 A 
ATOM     30  C   UNL     1       9.743  10.655  17.740  0.00  0.00    +0.000 A 
ENDBRANCH  24  25
ENDBRANCH  22  23
ENDBRANCH  12  21
TORSDOF 4
ENDMDL
MODEL 9
REMARK VINA RESULT:      -9.0      1.086      1.639
REMARK  Name = 
REMARK  4 active torsions:
REMARK  status: ('A' for Active; 'I' for Inactive)
REMARK    1  A    between atoms: N_11  and  C_12
REMARK    2  A    between atoms: N_19  and  N_20
REMARK    3  A    between atoms: C_21  and  C_22
REMARK    4  A    between atoms: C_23  and  C_24
REMARK                            x       y       z     vdW  Elec       q    Type
REMARK                         _______ _______ _______ _____ _____    ______ ____
ROOT
ATOM      1  O   UNL     1       4.264   7.098  18.651  0.00  0.00    +0.000 OA
ATOM      2  C   UNL     1       4.217   6.097  17.936  0.00  0.00    +0.000 A 
ATOM      3  C   UNL     1       3.214   5.046  18.231  0.00  0.00    +0.000 A 
ATOM      4  C   UNL     1       2.315   5.154  19.307  0.00  0.00    +0.000 A 
ATOM      5  C   UNL     1       1.425   4.114  19.591  0.00  0.00    +0.000 A 
ATOM      6  C   UNL     1       1.443   2.964  18.805  0.00  0.00    +0.000 A 
ATOM      7  C   UNL     1       2.331   2.870  17.731  0.00  0.00    +0.000 A 
ATOM      8  C   UNL     1       3.206   3.914  17.417  0.00  0.00    +0.000 A 
ATOM      9  N   UNL     1       4.054   3.754  16.312  0.00  0.00    +0.000 NA
ATOM     10  C   UNL     1       4.952   4.657  16.052  0.00  0.00    +0.000 A 
ATOM     11  N   UNL     1       5.893   4.514  15.051  0.00  0.00    +0.000 N 
ATOM     12  N   UNL     1       5.042   5.839  16.824  0.00  0.00    +0.000 N 
ATOM     13  H   UNL     1       6.702   5.110  15.184  0.00  0.00    +0.000 HD
ENDROOT
BRANCH  11  14
ATOM     14  C   UNL     1       5.779   3.969  13.756  0.00  0.00    +0.000 A 
ATOM     15  C   UNL     1       4.526   4.052  13.111  0.00  0.00    +0.000 A 
ATOM     16  C   UNL     1       4.297   3.466  11.861  0.00  0.00    +0.000 A 
ATOM     17  C   UNL     1       5.328   2.798  11.213  0.00  0.00    +0.000 A 
ATOM     18  C   UNL     1       6.586   2.747  11.812  0.00  0.00    +0.000 A 
ATOM     19 CL   UNL     1       7.869   1.944  10.989  0.00  0.00    +0.000 Cl
ATOM     20  C   UNL     1       6.815   3.325  13.068  0.00  0.00    +0.000 A 
ENDBRANCH  11  14
BRANCH  12  21
ATOM     21  N   UNL     1       6.113   6.725  16.568  0.00  0.00    +0.000 NA
ATOM     22  C   UNL     1       7.081   6.672  17.432  0.00  0.00    +0.000 C 
BRANCH  22  23
ATOM     23  C   UNL     1       8.095   7.752  17.629  0.00  0.00    +0.000 C 
ATOM     24  C   UNL     1       7.804   9.059  17.764  0.00  0.00    +0.000 C 
BRANCH  24  25
ATOM     25  C   UNL     1       8.731  10.065  18.350  0.00  0.00    +0.000 A 
ATOM     26  C   UNL     1       9.503  10.949  17.578  0.00  0.00    +0.000 A 
ATOM     27  C   UNL     1      10.562  11.671  18.145  0.00  0.00    +0.000 A 
ATOM     28  C   UNL     1      10.844  11.552  19.501  0.00  0.00    +0.000 A 
ATOM     29  C   UNL     1      10.026  10.761  20.302  0.00  0.00    +0.000 A 
ATOM     30  C   UNL     1       8.973  10.032  19.733  0.00  0.00    +0.000 A 
ENDBRANCH  24  25
ENDBRANCH  22  23
ENDBRANCH  12  21
TORSDOF 4
ENDMDL
