MODEL 1
REMARK VINA RESULT:      -8.4      0.000      0.000
REMARK  Name = 
REMARK  5 active torsions:
REMARK  status: ('A' for Active; 'I' for Inactive)
REMARK    1  A    between atoms: N_4  and  N_5
REMARK    2  A    between atoms: C_6  and  C_7
REMARK    3  A    between atoms: C_6  and  C_15
REMARK    4  A    between atoms: C_8  and  C_9
REMARK    5  A    between atoms: C_19  and  O_20
REMARK                            x       y       z     vdW  Elec       q    Type
REMARK                         _______ _______ _______ _____ _____    ______ ____
ROOT
ATOM      1  N   UNL     1       2.939   4.151  17.964  0.00  0.00    +0.000 NA
ATOM      2  C   UNL     1       3.500   5.319  18.136  0.00  0.00    +0.000 C 
ENDROOT
BRANCH   1   6
ATOM      3  N   UNL     1       4.112   0.762  18.219  0.00  0.00    +0.000 NA
ATOM      4  C   UNL     1       3.328   1.783  18.303  0.00  0.00    +0.000 C 
ATOM      5  N   UNL     1       2.054   1.699  18.746  0.00  0.00    +0.000 N 
ATOM      6  N   UNL     1       3.718   3.034  17.934  0.00  0.00    +0.000 N 
ATOM      7  H   UNL     1       3.572  -0.066  18.491  0.00  0.00    +0.000 HD
ATOM      8  H   UNL     1       1.878   0.999  19.449  0.00  0.00    +0.000 HD
ATOM      9  H   UNL     1       1.726   2.627  19.008  0.00  0.00    +0.000 HD
ATOM     10  H   UNL     1       4.671   3.073  17.578  0.00  0.00    +0.000 HD
ENDBRANCH   1   6
BRANCH   2  11
ATOM     11  C   UNL     1       4.969   5.639  18.169  0.00  0.00    +0.000 A 
ATOM     12  C   UNL     1       5.586   6.246  17.060  0.00  0.00    +0.000 A 
ATOM     13  C   UNL     1       6.954   6.536  17.074  0.00  0.00    +0.000 A 
ATOM     14  C   UNL     1       7.716   6.256  18.206  0.00  0.00    +0.000 A 
ATOM     15  C   UNL     1       7.108   5.656  19.303  0.00  0.00    +0.000 A 
ATOM     16  C   UNL     1       5.757   5.319  19.281  0.00  0.00    +0.000 A 
BRANCH  15  17
ATOM     17  O   UNL     1       7.809   5.379  20.438  0.00  0.00    +0.000 OA
ATOM     18  H   UNL     1       7.716   6.120  21.058  0.00  0.00    +0.000 HD
ENDBRANCH  15  17
ENDBRANCH   2  11
BRANCH   2  19
ATOM     19  C   UNL     1       2.610   6.523  18.232  0.00  0.00    +0.000 C 
ATOM     20  C   UNL     1       2.480   7.197  19.386  0.00  0.00    +0.000 C 
BRANCH  20  21
ATOM     21  C   UNL     1       1.624   8.383  19.552  0.00  0.00    +0.000 A 
ATOM     22  C   UNL     1       1.372   9.200  18.441  0.00  0.00    +0.000 A 
ATOM     23  C   UNL     1       0.565  10.337  18.558  0.00  0.00    +0.000 A 
ATOM     24  C   UNL     1      -0.010  10.661  19.784  0.00  0.00    +0.000 A 
ATOM     25  C   UNL     1       0.209   9.843  20.889  0.00  0.00    +0.000 A 
ATOM     26  C   UNL     1       1.013   8.706  20.773  0.00  0.00    +0.000 A 
ENDBRANCH  20  21
ENDBRANCH   2  19
TORSDOF 5
ENDMDL
MODEL 2
REMARK VINA RESULT:      -8.2      3.664      4.904
REMARK  Name = 
REMARK  5 active torsions:
REMARK  status: ('A' for Active; 'I' for Inactive)
REMARK    1  A    between atoms: N_4  and  N_5
REMARK    2  A    between atoms: C_6  and  C_7
REMARK    3  A    between atoms: C_6  and  C_15
REMARK    4  A    between atoms: C_8  and  C_9
REMARK    5  A    between atoms: C_19  and  O_20
REMARK                            x       y       z     vdW  Elec       q    Type
REMARK                         _______ _______ _______ _____ _____    ______ ____
ROOT
ATOM      1  N   UNL     1       5.597   4.737  15.035  0.00  0.00    +0.000 NA
ATOM      2  C   UNL     1       5.602   4.833  16.339  0.00  0.00    +0.000 C 
ENDROOT
BRANCH   1   6
ATOM      3  N   UNL     1       8.095   5.430  12.543  0.00  0.00    +0.000 NA
ATOM      4  C   UNL     1       7.165   4.810  13.189  0.00  0.00    +0.000 C 
ATOM      5  N   UNL     1       6.661   3.620  12.794  0.00  0.00    +0.000 N 
ATOM      6  N   UNL     1       6.601   5.316  14.320  0.00  0.00    +0.000 N 
ATOM      7  H   UNL     1       8.305   4.882  11.701  0.00  0.00    +0.000 HD
ATOM      8  H   UNL     1       7.307   3.002  12.328  0.00  0.00    +0.000 HD
ATOM      9  H   UNL     1       6.176   3.183  13.576  0.00  0.00    +0.000 HD
ATOM     10  H   UNL     1       6.974   6.226  14.586  0.00  0.00    +0.000 HD
ENDBRANCH   1   6
BRANCH   2  11
ATOM     11  C   UNL     1       6.527   5.649  17.198  0.00  0.00    +0.000 A 
ATOM     12  C   UNL     1       6.787   6.995  16.879  0.00  0.00    +0.000 A 
ATOM     13  C   UNL     1       7.657   7.760  17.664  0.00  0.00    +0.000 A 
ATOM     14  C   UNL     1       8.250   7.203  18.795  0.00  0.00    +0.000 A 
ATOM     15  C   UNL     1       7.993   5.874  19.112  0.00  0.00    +0.000 A 
ATOM     16  C   UNL     1       7.168   5.089  18.310  0.00  0.00    +0.000 A 
BRANCH  15  17
ATOM     17  O   UNL     1       8.537   5.293  20.218  0.00  0.00    +0.000 OA
ATOM     18  H   UNL     1       8.040   4.485  20.429  0.00  0.00    +0.000 HD
ENDBRANCH  15  17
ENDBRANCH   2  11
BRANCH   2  19
ATOM     19  C   UNL     1       4.520   4.128  17.103  0.00  0.00    +0.000 C 
ATOM     20  C   UNL     1       3.659   4.811  17.874  0.00  0.00    +0.000 C 
BRANCH  20  21
ATOM     21  C   UNL     1       2.578   4.185  18.651  0.00  0.00    +0.000 A 
ATOM     22  C   UNL     1       2.243   4.720  19.903  0.00  0.00    +0.000 A 
ATOM     23  C   UNL     1       1.224   4.152  20.674  0.00  0.00    +0.000 A 
ATOM     24  C   UNL     1       0.518   3.051  20.196  0.00  0.00    +0.000 A 
ATOM     25  C   UNL     1       0.821   2.526  18.942  0.00  0.00    +0.000 A 
ATOM     26  C   UNL     1       1.838   3.095  18.171  0.00  0.00    +0.000 A 
ENDBRANCH  20  21
ENDBRANCH   2  19
TORSDOF 5
ENDMDL
MODEL 3
REMARK VINA RESULT:      -8.2      3.971      6.180
REMARK  Name = 
REMARK  5 active torsions:
REMARK  status: ('A' for Active; 'I' for Inactive)
REMARK    1  A    between atoms: N_4  and  N_5
REMARK    2  A    between atoms: C_6  and  C_7
REMARK    3  A    between atoms: C_6  and  C_15
REMARK    4  A    between atoms: C_8  and  C_9
REMARK    5  A    between atoms: C_19  and  O_20
REMARK                            x       y       z     vdW  Elec       q    Type
REMARK                         _______ _______ _______ _____ _____    ______ ____
ROOT
ATOM      1  N   UNL     1       7.551   6.175  15.984  0.00  0.00    +0.000 NA
ATOM      2  C   UNL     1       7.039   6.477  17.149  0.00  0.00    +0.000 C 
ENDROOT
BRANCH   1   6
ATOM      3  N   UNL     1       6.625   4.060  13.228  0.00  0.00    +0.000 NA
ATOM      4  C   UNL     1       7.243   4.968  13.906  0.00  0.00    +0.000 C 
ATOM      5  N   UNL     1       8.265   5.695  13.403  0.00  0.00    +0.000 N 
ATOM      6  N   UNL     1       6.924   5.256  15.197  0.00  0.00    +0.000 N 
ATOM      7  H   UNL     1       7.087   3.988  12.315  0.00  0.00    +0.000 HD
ATOM      8  H   UNL     1       8.219   5.892  12.415  0.00  0.00    +0.000 HD
ATOM      9  H   UNL     1       8.401   6.527  13.975  0.00  0.00    +0.000 HD
ATOM     10  H   UNL     1       6.172   4.680  15.568  0.00  0.00    +0.000 HD
ENDBRANCH   1   6
BRANCH   2  11
ATOM     11  C   UNL     1       5.875   5.822  17.840  0.00  0.00    +0.000 A 
ATOM     12  C   UNL     1       4.610   6.437  17.832  0.00  0.00    +0.000 A 
ATOM     13  C   UNL     1       3.523   5.844  18.483  0.00  0.00    +0.000 A 
ATOM     14  C   UNL     1       3.677   4.615  19.120  0.00  0.00    +0.000 A 
ATOM     15  C   UNL     1       4.926   4.006  19.129  0.00  0.00    +0.000 A 
ATOM     16  C   UNL     1       6.026   4.611  18.526  0.00  0.00    +0.000 A 
BRANCH  15  17
ATOM     17  O   UNL     1       5.120   2.795  19.724  0.00  0.00    +0.000 OA
ATOM     18  H   UNL     1       6.049   2.719  19.996  0.00  0.00    +0.000 HD
ENDBRANCH  15  17
ENDBRANCH   2  11
BRANCH   2  19
ATOM     19  C   UNL     1       7.714   7.541  17.963  0.00  0.00    +0.000 C 
ATOM     20  C   UNL     1       7.885   8.780  17.477  0.00  0.00    +0.000 C 
BRANCH  20  21
ATOM     21  C   UNL     1       8.539   9.870  18.218  0.00  0.00    +0.000 A 
ATOM     22  C   UNL     1       8.509  11.167  17.688  0.00  0.00    +0.000 A 
ATOM     23  C   UNL     1       9.120  12.230  18.361  0.00  0.00    +0.000 A 
ATOM     24  C   UNL     1       9.758  12.010  19.579  0.00  0.00    +0.000 A 
ATOM     25  C   UNL     1       9.771  10.732  20.132  0.00  0.00    +0.000 A 
ATOM     26  C   UNL     1       9.159   9.670  19.461  0.00  0.00    +0.000 A 
ENDBRANCH  20  21
ENDBRANCH   2  19
TORSDOF 5
ENDMDL
MODEL 4
REMARK VINA RESULT:      -8.2      2.557      3.866
REMARK  Name = 
REMARK  5 active torsions:
REMARK  status: ('A' for Active; 'I' for Inactive)
REMARK    1  A    between atoms: N_4  and  N_5
REMARK    2  A    between atoms: C_6  and  C_7
REMARK    3  A    between atoms: C_6  and  C_15
REMARK    4  A    between atoms: C_8  and  C_9
REMARK    5  A    between atoms: C_19  and  O_20
REMARK                            x       y       z     vdW  Elec       q    Type
REMARK                         _______ _______ _______ _____ _____    ______ ____
ROOT
ATOM      1  N   UNL     1       4.676   6.485  16.913  0.00  0.00    +0.000 NA
ATOM      2  C   UNL     1       3.818   5.956  17.746  0.00  0.00    +0.000 C 
ENDROOT
BRANCH   1   6
ATOM      3  N   UNL     1       7.400   4.835  15.245  0.00  0.00    +0.000 NA
ATOM      4  C   UNL     1       6.767   5.658  16.011  0.00  0.00    +0.000 C 
ATOM      5  N   UNL     1       7.393   6.563  16.796  0.00  0.00    +0.000 N 
ATOM      6  N   UNL     1       5.409   5.670  16.104  0.00  0.00    +0.000 N 
ATOM      7  H   UNL     1       8.404   4.978  15.399  0.00  0.00    +0.000 HD
ATOM      8  H   UNL     1       8.258   6.933  16.435  0.00  0.00    +0.000 HD
ATOM      9  H   UNL     1       6.729   7.283  17.075  0.00  0.00    +0.000 HD
ATOM     10  H   UNL     1       4.957   4.964  15.527  0.00  0.00    +0.000 HD
ENDBRANCH   1   6
BRANCH   2  11
ATOM     11  C   UNL     1       3.613   4.499  18.055  0.00  0.00    +0.000 A 
ATOM     12  C   UNL     1       2.567   3.786  17.441  0.00  0.00    +0.000 A 
ATOM     13  C   UNL     1       2.358   2.433  17.730  0.00  0.00    +0.000 A 
ATOM     14  C   UNL     1       3.210   1.767  18.609  0.00  0.00    +0.000 A 
ATOM     15  C   UNL     1       4.244   2.470  19.216  0.00  0.00    +0.000 A 
ATOM     16  C   UNL     1       4.431   3.829  18.972  0.00  0.00    +0.000 A 
BRANCH  15  17
ATOM     17  O   UNL     1       5.113   1.857  20.068  0.00  0.00    +0.000 OA
ATOM     18  H   UNL     1       4.654   1.656  20.900  0.00  0.00    +0.000 HD
ENDBRANCH  15  17
ENDBRANCH   2  11
BRANCH   2  19
ATOM     19  C   UNL     1       2.976   6.881  18.575  0.00  0.00    +0.000 C 
ATOM     20  C   UNL     1       2.306   7.898  18.012  0.00  0.00    +0.000 C 
BRANCH  20  21
ATOM     21  C   UNL     1       1.465   8.844  18.764  0.00  0.00    +0.000 A 
ATOM     22  C   UNL     1       1.333   8.681  20.150  0.00  0.00    +0.000 A 
ATOM     23  C   UNL     1       0.542   9.557  20.900  0.00  0.00    +0.000 A 
ATOM     24  C   UNL     1      -0.115  10.614  20.275  0.00  0.00    +0.000 A 
ATOM     25  C   UNL     1       0.030  10.804  18.903  0.00  0.00    +0.000 A 
ATOM     26  C   UNL     1       0.822   9.931  18.153  0.00  0.00    +0.000 A 
ENDBRANCH  20  21
ENDBRANCH   2  19
TORSDOF 5
ENDMDL
MODEL 5
REMARK VINA RESULT:      -8.2      0.396      1.123
REMARK  Name = 
REMARK  5 active torsions:
REMARK  status: ('A' for Active; 'I' for Inactive)
REMARK    1  A    between atoms: N_4  and  N_5
REMARK    2  A    between atoms: C_6  and  C_7
REMARK    3  A    between atoms: C_6  and  C_15
REMARK    4  A    between atoms: C_8  and  C_9
REMARK    5  A    between atoms: C_19  and  O_20
REMARK                            x       y       z     vdW  Elec       q    Type
REMARK                         _______ _______ _______ _____ _____    ______ ____
ROOT
ATOM      1  N   UNL     1       2.850   4.265  17.978  0.00  0.00    +0.000 NA
ATOM      2  C   UNL     1       3.473   5.390  18.215  0.00  0.00    +0.000 C 
ENDROOT
BRANCH   1   6
ATOM      3  N   UNL     1       4.008   0.869  18.208  0.00  0.00    +0.000 NA
ATOM      4  C   UNL     1       3.296   1.924  18.418  0.00  0.00    +0.000 C 
ATOM      5  N   UNL     1       2.209   1.932  19.222  0.00  0.00    +0.000 N 
ATOM      6  N   UNL     1       3.573   3.120  17.830  0.00  0.00    +0.000 N 
ATOM      7  H   UNL     1       3.563   0.091  18.707  0.00  0.00    +0.000 HD
ATOM      8  H   UNL     1       2.243   1.305  20.011  0.00  0.00    +0.000 HD
ATOM      9  H   UNL     1       1.985   2.892  19.477  0.00  0.00    +0.000 HD
ATOM     10  H   UNL     1       4.377   3.088  17.207  0.00  0.00    +0.000 HD
ENDBRANCH   1   6
BRANCH   2  11
ATOM     11  C   UNL     1       4.956   5.639  18.211  0.00  0.00    +0.000 A 
ATOM     12  C   UNL     1       5.585   6.149  17.060  0.00  0.00    +0.000 A 
ATOM     13  C   UNL     1       6.965   6.372  17.040  0.00  0.00    +0.000 A 
ATOM     14  C   UNL     1       7.730   6.122  18.178  0.00  0.00    +0.000 A 
ATOM     15  C   UNL     1       7.110   5.619  19.315  0.00  0.00    +0.000 A 
ATOM     16  C   UNL     1       5.744   5.347  19.331  0.00  0.00    +0.000 A 
BRANCH  15  17
ATOM     17  O   UNL     1       7.814   5.376  20.456  0.00  0.00    +0.000 OA
ATOM     18  H   UNL     1       7.495   4.552  20.858  0.00  0.00    +0.000 HD
ENDBRANCH  15  17
ENDBRANCH   2  11
BRANCH   2  19
ATOM     19  C   UNL     1       2.647   6.621  18.441  0.00  0.00    +0.000 C 
ATOM     20  C   UNL     1       2.348   7.036  19.683  0.00  0.00    +0.000 C 
BRANCH  20  21
ATOM     21  C   UNL     1       1.541   8.231  19.977  0.00  0.00    +0.000 A 
ATOM     22  C   UNL     1       1.047   8.415  21.276  0.00  0.00    +0.000 A 
ATOM     23  C   UNL     1       0.275   9.537  21.595  0.00  0.00    +0.000 A 
ATOM     24  C   UNL     1       0.000  10.495  20.623  0.00  0.00    +0.000 A 
ATOM     25  C   UNL     1       0.508  10.340  19.335  0.00  0.00    +0.000 A 
ATOM     26  C   UNL     1       1.281   9.220  19.016  0.00  0.00    +0.000 A 
ENDBRANCH  20  21
ENDBRANCH   2  19
TORSDOF 5
ENDMDL
MODEL 6
REMARK VINA RESULT:      -8.2      3.664      4.901
REMARK  Name = 
REMARK  5 active torsions:
REMARK  status: ('A' for Active; 'I' for Inactive)
REMARK    1  A    between atoms: N_4  and  N_5
REMARK    2  A    between atoms: C_6  and  C_7
REMARK    3  A    between atoms: C_6  and  C_15
REMARK    4  A    between atoms: C_8  and  C_9
REMARK    5  A    between atoms: C_19  and  O_20
REMARK                            x       y       z     vdW  Elec       q    Type
REMARK                         _______ _______ _______ _____ _____    ______ ____
ROOT
ATOM      1  N   UNL     1       5.698   4.792  14.975  0.00  0.00    +0.000 NA
ATOM      2  C   UNL     1       5.660   4.885  16.278  0.00  0.00    +0.000 C 
ENDROOT
BRANCH   1   6
ATOM      3  N   UNL     1       8.206   5.527  12.505  0.00  0.00    +0.000 NA
ATOM      4  C   UNL     1       7.241   4.920  13.111  0.00  0.00    +0.000 C 
ATOM      5  N   UNL     1       6.644   3.812  12.619  0.00  0.00    +0.000 N 
ATOM      6  N   UNL     1       6.733   5.360  14.295  0.00  0.00    +0.000 N 
ATOM      7  H   UNL     1       8.362   5.045  11.613  0.00  0.00    +0.000 HD
ATOM      8  H   UNL     1       7.235   3.195  12.085  0.00  0.00    +0.000 HD
ATOM      9  H   UNL     1       6.138   3.341  13.368  0.00  0.00    +0.000 HD
ATOM     10  H   UNL     1       7.176   6.210  14.636  0.00  0.00    +0.000 HD
ENDBRANCH   1   6
BRANCH   2  11
ATOM     11  C   UNL     1       6.567   5.687  17.171  0.00  0.00    +0.000 A 
ATOM     12  C   UNL     1       6.806   7.046  16.899  0.00  0.00    +0.000 A 
ATOM     13  C   UNL     1       7.658   7.799  17.714  0.00  0.00    +0.000 A 
ATOM     14  C   UNL     1       8.255   7.214  18.829  0.00  0.00    +0.000 A 
ATOM     15  C   UNL     1       8.020   5.870  19.098  0.00  0.00    +0.000 A 
ATOM     16  C   UNL     1       7.212   5.100  18.266  0.00  0.00    +0.000 A 
BRANCH  15  17
ATOM     17  O   UNL     1       8.568   5.260  20.187  0.00  0.00    +0.000 OA
ATOM     18  H   UNL     1       9.014   4.446  19.904  0.00  0.00    +0.000 HD
ENDBRANCH  15  17
ENDBRANCH   2  11
BRANCH   2  19
ATOM     19  C   UNL     1       4.545   4.192  17.004  0.00  0.00    +0.000 C 
ATOM     20  C   UNL     1       3.749   4.863  17.852  0.00  0.00    +0.000 C 
BRANCH  20  21
ATOM     21  C   UNL     1       2.640   4.247  18.598  0.00  0.00    +0.000 A 
ATOM     22  C   UNL     1       2.050   3.078  18.098  0.00  0.00    +0.000 A 
ATOM     23  C   UNL     1       0.993   2.464  18.776  0.00  0.00    +0.000 A 
ATOM     24  C   UNL     1       0.522   3.004  19.970  0.00  0.00    +0.000 A 
ATOM     25  C   UNL     1       1.117   4.149  20.494  0.00  0.00    +0.000 A 
ATOM     26  C   UNL     1       2.175   4.762  19.817  0.00  0.00    +0.000 A 
ENDBRANCH  20  21
ENDBRANCH   2  19
TORSDOF 5
ENDMDL
MODEL 7
REMARK VINA RESULT:      -8.1      2.490      3.668
REMARK  Name = 
REMARK  5 active torsions:
REMARK  status: ('A' for Active; 'I' for Inactive)
REMARK    1  A    between atoms: N_4  and  N_5
REMARK    2  A    between atoms: C_6  and  C_7
REMARK    3  A    between atoms: C_6  and  C_15
REMARK    4  A    between atoms: C_8  and  C_9
REMARK    5  A    between atoms: C_19  and  O_20
REMARK                            x       y       z     vdW  Elec       q    Type
REMARK                         _______ _______ _______ _____ _____    ______ ____
ROOT
ATOM      1  N   UNL     1       4.586   6.495  17.006  0.00  0.00    +0.000 NA
ATOM      2  C   UNL     1       3.705   5.899  17.766  0.00  0.00    +0.000 C 
ENDROOT
BRANCH   1   6
ATOM      3  N   UNL     1       7.534   4.867  15.745  0.00  0.00    +0.000 NA
ATOM      4  C   UNL     1       6.784   5.625  16.473  0.00  0.00    +0.000 C 
ATOM      5  N   UNL     1       7.256   6.349  17.511  0.00  0.00    +0.000 N 
ATOM      6  N   UNL     1       5.444   5.743  16.262  0.00  0.00    +0.000 N 
ATOM      7  H   UNL     1       8.480   4.898  16.140  0.00  0.00    +0.000 HD
ATOM      8  H   UNL     1       8.200   6.690  17.416  0.00  0.00    +0.000 HD
ATOM      9  H   UNL     1       6.585   7.078  17.746  0.00  0.00    +0.000 HD
ATOM     10  H   UNL     1       5.102   5.169  15.494  0.00  0.00    +0.000 HD
ENDBRANCH   1   6
BRANCH   2  11
ATOM     11  C   UNL     1       3.587   4.429  18.058  0.00  0.00    +0.000 A 
ATOM     12  C   UNL     1       2.630   3.648  17.383  0.00  0.00    +0.000 A 
ATOM     13  C   UNL     1       2.502   2.282  17.656  0.00  0.00    +0.000 A 
ATOM     14  C   UNL     1       3.348   1.672  18.580  0.00  0.00    +0.000 A 
ATOM     15  C   UNL     1       4.293   2.442  19.247  0.00  0.00    +0.000 A 
ATOM     16  C   UNL     1       4.397   3.812  19.019  0.00  0.00    +0.000 A 
BRANCH  15  17
ATOM     17  O   UNL     1       5.153   1.885  20.146  0.00  0.00    +0.000 OA
ATOM     18  H   UNL     1       5.298   2.509  20.876  0.00  0.00    +0.000 HD
ENDBRANCH  15  17
ENDBRANCH   2  11
BRANCH   2  19
ATOM     19  C   UNL     1       2.730   6.753  18.522  0.00  0.00    +0.000 C 
ATOM     20  C   UNL     1       2.421   7.989  18.100  0.00  0.00    +0.000 C 
BRANCH  20  21
ATOM     21  C   UNL     1       1.476   8.880  18.792  0.00  0.00    +0.000 A 
ATOM     22  C   UNL     1       0.728   9.795  18.038  0.00  0.00    +0.000 A 
ATOM     23  C   UNL     1      -0.178  10.661  18.658  0.00  0.00    +0.000 A 
ATOM     24  C   UNL     1      -0.357  10.612  20.039  0.00  0.00    +0.000 A 
ATOM     25  C   UNL     1       0.359   9.689  20.797  0.00  0.00    +0.000 A 
ATOM     26  C   UNL     1       1.263   8.823  20.177  0.00  0.00    +0.000 A 
ENDBRANCH  20  21
ENDBRANCH   2  19
TORSDOF 5
ENDMDL
MODEL 8
REMARK VINA RESULT:      -8.0      3.876      6.191
REMARK  Name = 
REMARK  5 active torsions:
REMARK  status: ('A' for Active; 'I' for Inactive)
REMARK    1  A    between atoms: N_4  and  N_5
REMARK    2  A    between atoms: C_6  and  C_7
REMARK    3  A    between atoms: C_6  and  C_15
REMARK    4  A    between atoms: C_8  and  C_9
REMARK    5  A    between atoms: C_19  and  O_20
REMARK                            x       y       z     vdW  Elec       q    Type
REMARK                         _______ _______ _______ _____ _____    ______ ____
ROOT
ATOM      1  N   UNL     1       7.651   5.821  16.315  0.00  0.00    +0.000 NA
ATOM      2  C   UNL     1       7.017   6.469  17.258  0.00  0.00    +0.000 C 
ENDROOT
BRANCH   1   6
ATOM      3  N   UNL     1       6.442   3.748  13.638  0.00  0.00    +0.000 NA
ATOM      4  C   UNL     1       7.075   4.691  14.251  0.00  0.00    +0.000 C 
ATOM      5  N   UNL     1       7.887   5.566  13.617  0.00  0.00    +0.000 N 
ATOM      6  N   UNL     1       6.989   4.872  15.597  0.00  0.00    +0.000 N 
ATOM      7  H   UNL     1       6.718   3.780  12.651  0.00  0.00    +0.000 HD
ATOM      8  H   UNL     1       7.624   5.804  12.673  0.00  0.00    +0.000 HD
ATOM      9  H   UNL     1       8.039   6.377  14.213  0.00  0.00    +0.000 HD
ATOM     10  H   UNL     1       6.395   4.187  16.061  0.00  0.00    +0.000 HD
ENDBRANCH   1   6
BRANCH   2  11
ATOM     11  C   UNL     1       5.633   6.207  17.784  0.00  0.00    +0.000 A 
ATOM     12  C   UNL     1       4.554   7.009  17.368  0.00  0.00    +0.000 A 
ATOM     13  C   UNL     1       3.265   6.783  17.861  0.00  0.00    +0.000 A 
ATOM     14  C   UNL     1       3.029   5.735  18.747  0.00  0.00    +0.000 A 
ATOM     15  C   UNL     1       4.094   4.942  19.159  0.00  0.00    +0.000 A 
ATOM     16  C   UNL     1       5.390   5.188  18.713  0.00  0.00    +0.000 A 
BRANCH  15  17
ATOM     17  O   UNL     1       3.909   3.895  20.011  0.00  0.00    +0.000 OA
ATOM     18  H   UNL     1       4.489   3.162  19.746  0.00  0.00    +0.000 HD
ENDBRANCH  15  17
ENDBRANCH   2  11
BRANCH   2  19
ATOM     19  C   UNL     1       7.752   7.556  17.986  0.00  0.00    +0.000 C 
ATOM     20  C   UNL     1       7.762   8.815  17.521  0.00  0.00    +0.000 C 
BRANCH  20  21
ATOM     21  C   UNL     1       8.463   9.928  18.182  0.00  0.00    +0.000 A 
ATOM     22  C   UNL     1       9.144   9.685  19.383  0.00  0.00    +0.000 A 
ATOM     23  C   UNL     1       9.821  10.716  20.042  0.00  0.00    +0.000 A 
ATOM     24  C   UNL     1       9.835  12.000  19.501  0.00  0.00    +0.000 A 
ATOM     25  C   UNL     1       9.187  12.249  18.294  0.00  0.00    +0.000 A 
ATOM     26  C   UNL     1       8.512  11.219  17.634  0.00  0.00    +0.000 A 
ENDBRANCH  20  21
ENDBRANCH   2  19
TORSDOF 5
ENDMDL
MODEL 9
REMARK VINA RESULT:      -8.0      4.047      6.281
REMARK  Name = 
REMARK  5 active torsions:
REMARK  status: ('A' for Active; 'I' for Inactive)
REMARK    1  A    between atoms: N_4  and  N_5
REMARK    2  A    between atoms: C_6  and  C_7
REMARK    3  A    between atoms: C_6  and  C_15
REMARK    4  A    between atoms: C_8  and  C_9
REMARK    5  A    between atoms: C_19  and  O_20
REMARK                            x       y       z     vdW  Elec       q    Type
REMARK                         _______ _______ _______ _____ _____    ______ ____
ROOT
ATOM      1  N   UNL     1       7.602   5.883  16.327  0.00  0.00    +0.000 NA
ATOM      2  C   UNL     1       7.036   6.516  17.322  0.00  0.00    +0.000 C 
ENDROOT
BRANCH   1   6
ATOM      3  N   UNL     1       6.304   3.745  13.745  0.00  0.00    +0.000 NA
ATOM      4  C   UNL     1       6.982   4.683  14.316  0.00  0.00    +0.000 C 
ATOM      5  N   UNL     1       7.845   5.480  13.648  0.00  0.00    +0.000 N 
ATOM      6  N   UNL     1       6.895   4.936  15.651  0.00  0.00    +0.000 N 
ATOM      7  H   UNL     1       6.589   3.713  12.760  0.00  0.00    +0.000 HD
ATOM      8  H   UNL     1       7.603   5.685  12.691  0.00  0.00    +0.000 HD
ATOM      9  H   UNL     1       8.036   6.311  14.204  0.00  0.00    +0.000 HD
ATOM     10  H   UNL     1       6.262   4.308  16.142  0.00  0.00    +0.000 HD
ENDBRANCH   1   6
BRANCH   2  11
ATOM     11  C   UNL     1       5.697   6.238  17.946  0.00  0.00    +0.000 A 
ATOM     12  C   UNL     1       5.569   5.246  18.936  0.00  0.00    +0.000 A 
ATOM     13  C   UNL     1       4.326   4.970  19.515  0.00  0.00    +0.000 A 
ATOM     14  C   UNL     1       3.202   5.702  19.138  0.00  0.00    +0.000 A 
ATOM     15  C   UNL     1       3.326   6.682  18.161  0.00  0.00    +0.000 A 
ATOM     16  C   UNL     1       4.549   6.933  17.543  0.00  0.00    +0.000 A 
BRANCH  15  17
ATOM     17  O   UNL     1       2.259   7.435  17.773  0.00  0.00    +0.000 OA
ATOM     18  H   UNL     1       1.915   7.919  18.542  0.00  0.00    +0.000 HD
ENDBRANCH  15  17
ENDBRANCH   2  11
BRANCH   2  19
ATOM     19  C   UNL     1       7.815   7.602  18.004  0.00  0.00    +0.000 C 
ATOM     20  C   UNL     1       7.763   8.870  17.567  0.00  0.00    +0.000 C 
BRANCH  20  21
ATOM     21  C   UNL     1       8.502   9.982  18.186  0.00  0.00    +0.000 A 
ATOM     22  C   UNL     1       8.406  11.261  17.620  0.00  0.00    +0.000 A 
ATOM     23  C   UNL     1       9.094  12.343  18.177  0.00  0.00    +0.000 A 
ATOM     24  C   UNL     1       9.876  12.162  19.314  0.00  0.00    +0.000 A 
ATOM     25  C   UNL     1       9.959  10.904  19.904  0.00  0.00    +0.000 A 
ATOM     26  C   UNL     1       9.270   9.822  19.349  0.00  0.00    +0.000 A 
ENDBRANCH  20  21
ENDBRANCH   2  19
TORSDOF 5
ENDMDL
