MODEL 1
REMARK VINA RESULT:      -6.8      0.000      0.000
REMARK  Name = 
REMARK  6 active torsions:
REMARK  status: ('A' for Active; 'I' for Inactive)
REMARK    1  A    between atoms: N_1  and  C_2
REMARK    2  A    between atoms: C_2  and  C_3
REMARK    3  A    between atoms: C_3  and  C_4
REMARK    4  A    between atoms: C_4  and  N_5
REMARK    5  A    between atoms: C_17  and  C_18
REMARK    6  A    between atoms: C_20  and  C_21
REMARK                            x       y       z     vdW  Elec       q    Type
REMARK                         _______ _______ _______ _____ _____    ______ ____
ROOT
ATOM      1  N   UNL     1       0.337  13.208  20.171  0.00  0.00    +0.000 N 
ATOM      2  C   UNL     1       0.540  11.938  20.623  0.00  0.00    +0.000 C 
ATOM      3  O   UNL     1       1.527  11.505  21.199  0.00  0.00    +0.000 OA
ATOM      4  C   UNL     1      -0.690  11.121  20.347  0.00  0.00    +0.000 C 
ATOM      5  C   UNL     1      -1.754  12.177  20.032  0.00  0.00    +0.000 C 
ATOM      6  C   UNL     1      -0.987  13.463  19.998  0.00  0.00    +0.000 C 
ATOM      7  O   UNL     1      -1.517  14.561  19.852  0.00  0.00    +0.000 OA
ATOM      8  C   UNL     1      -2.261  11.863  18.636  0.00  0.00    +0.000 C 
ATOM      9  C   UNL     1      -3.470  10.938  18.583  0.00  0.00    +0.000 C 
ATOM     10  C   UNL     1      -3.251  10.103  17.328  0.00  0.00    +0.000 C 
ATOM     11  C   UNL     1      -1.798  10.329  16.930  0.00  0.00    +0.000 C 
ATOM     12  N   UNL     1      -1.174  11.090  18.017  0.00  0.00    +0.000 NA
ATOM     13  C   UNL     1      -0.603  10.252  19.094  0.00  0.00    +0.000 C 
ENDROOT
BRANCH  13  14
ATOM     14  C   UNL     1       0.742   9.674  18.767  0.00  0.00    +0.000 A 
ATOM     15  C   UNL     1       1.356   8.598  19.447  0.00  0.00    +0.000 A 
ATOM     16  C   UNL     1       2.293   8.112  18.563  0.00  0.00    +0.000 A 
ATOM     17  O   UNL     1       2.413   9.023  17.547  0.00  0.00    +0.000 OA
ATOM     18  N   UNL     1       1.441  10.000  17.673  0.00  0.00    +0.000 NA
BRANCH  16  19
ATOM     19  C   UNL     1       2.952   6.840  18.551  0.00  0.00    +0.000 A 
ATOM     20  C   UNL     1       3.813   6.360  17.582  0.00  0.00    +0.000 A 
ATOM     21  C   UNL     1       4.165   4.993  17.795  0.00  0.00    +0.000 A 
ATOM     22  C   UNL     1       3.567   4.501  18.924  0.00  0.00    +0.000 A 
ATOM     23 CL   UNL     1       3.686   2.904  19.541  0.00  0.00    +0.000 Cl
ATOM     24  S   UNL     1       2.617   5.636  19.733  0.00  0.00    +0.000 S 
ENDBRANCH  16  19
ENDBRANCH  13  14
BRANCH   1  25
ATOM     25  C   UNL     1       1.360  14.234  20.178  0.00  0.00    +0.000 C 
BRANCH  25  26
ATOM     26  C   UNL     1       1.789  14.598  18.753  0.00  0.00    +0.000 C 
BRANCH  26  27
ATOM     27  C   UNL     1       3.031  13.838  18.301  0.00  0.00    +0.000 C 
BRANCH  27  28
ATOM     28  N   UNL     1       2.674  12.626  17.575  0.00  0.00    +0.000 NA
ATOM     29  H   UNL     1       2.816  11.814  18.174  0.00  0.00    +0.000 HD
ATOM     30  H   UNL     1       3.304  12.506  16.780  0.00  0.00    +0.000 HD
ENDBRANCH  27  28
ENDBRANCH  26  27
ENDBRANCH  25  26
ENDBRANCH   1  25
TORSDOF 6
ENDMDL
MODEL 2
REMARK VINA RESULT:      -6.8      1.177      1.418
REMARK  Name = 
REMARK  6 active torsions:
REMARK  status: ('A' for Active; 'I' for Inactive)
REMARK    1  A    between atoms: N_1  and  C_2
REMARK    2  A    between atoms: C_2  and  C_3
REMARK    3  A    between atoms: C_3  and  C_4
REMARK    4  A    between atoms: C_4  and  N_5
REMARK    5  A    between atoms: C_17  and  C_18
REMARK    6  A    between atoms: C_20  and  C_21
REMARK                            x       y       z     vdW  Elec       q    Type
REMARK                         _______ _______ _______ _____ _____    ______ ____
ROOT
ATOM      1  N   UNL     1       0.868  13.372  19.846  0.00  0.00    +0.000 N 
ATOM      2  C   UNL     1       0.818  12.253  20.622  0.00  0.00    +0.000 C 
ATOM      3  O   UNL     1       1.685  11.834  21.376  0.00  0.00    +0.000 OA
ATOM      4  C   UNL     1      -0.526  11.604  20.454  0.00  0.00    +0.000 C 
ATOM      5  C   UNL     1      -1.366  12.697  19.787  0.00  0.00    +0.000 C 
ATOM      6  C   UNL     1      -0.379  13.785  19.495  0.00  0.00    +0.000 C 
ATOM      7  O   UNL     1      -0.694  14.875  19.028  0.00  0.00    +0.000 OA
ATOM      8  C   UNL     1      -1.860  12.110  18.477  0.00  0.00    +0.000 C 
ATOM      9  C   UNL     1      -3.214  11.414  18.553  0.00  0.00    +0.000 C 
ATOM     10  C   UNL     1      -3.095  10.251  17.577  0.00  0.00    +0.000 C 
ATOM     11  C   UNL     1      -1.609  10.122  17.267  0.00  0.00    +0.000 C 
ATOM     12  N   UNL     1      -0.905  11.033  18.175  0.00  0.00    +0.000 NA
ATOM     13  C   UNL     1      -0.543  10.431  19.477  0.00  0.00    +0.000 C 
ENDROOT
BRANCH  13  14
ATOM     14  C   UNL     1       0.688   9.575  19.430  0.00  0.00    +0.000 A 
ATOM     15  C   UNL     1       0.956   8.482  20.284  0.00  0.00    +0.000 A 
ATOM     16  C   UNL     1       1.897   7.734  19.613  0.00  0.00    +0.000 A 
ATOM     17  O   UNL     1       2.356   8.490  18.568  0.00  0.00    +0.000 OA
ATOM     18  N   UNL     1       1.598   9.642  18.451  0.00  0.00    +0.000 NA
BRANCH  16  19
ATOM     19  C   UNL     1       2.274   6.366  19.810  0.00  0.00    +0.000 A 
ATOM     20  C   UNL     1       1.763   5.489  20.748  0.00  0.00    +0.000 A 
ATOM     21  C   UNL     1       2.473   4.251  20.781  0.00  0.00    +0.000 A 
ATOM     22  C   UNL     1       3.483   4.239  19.857  0.00  0.00    +0.000 A 
ATOM     23 CL   UNL     1       4.605   2.971  19.573  0.00  0.00    +0.000 Cl
ATOM     24  S   UNL     1       3.585   5.657  18.950  0.00  0.00    +0.000 S 
ENDBRANCH  16  19
ENDBRANCH  13  14
BRANCH   1  25
ATOM     25  C   UNL     1       2.059  14.182  19.683  0.00  0.00    +0.000 C 
BRANCH  25  26
ATOM     26  C   UNL     1       2.968  13.617  18.587  0.00  0.00    +0.000 C 
BRANCH  26  27
ATOM     27  C   UNL     1       4.097  14.569  18.209  0.00  0.00    +0.000 C 
BRANCH  27  28
ATOM     28  N   UNL     1       3.753  15.357  17.033  0.00  0.00    +0.000 NA
ATOM     29  H   UNL     1       2.840  15.790  17.165  0.00  0.00    +0.000 HD
ATOM     30  H   UNL     1       3.662  14.741  16.224  0.00  0.00    +0.000 HD
ENDBRANCH  27  28
ENDBRANCH  26  27
ENDBRANCH  25  26
ENDBRANCH   1  25
TORSDOF 6
ENDMDL
MODEL 3
REMARK VINA RESULT:      -6.8      1.430      1.780
REMARK  Name = 
REMARK  6 active torsions:
REMARK  status: ('A' for Active; 'I' for Inactive)
REMARK    1  A    between atoms: N_1  and  C_2
REMARK    2  A    between atoms: C_2  and  C_3
REMARK    3  A    between atoms: C_3  and  C_4
REMARK    4  A    between atoms: C_4  and  N_5
REMARK    5  A    between atoms: C_17  and  C_18
REMARK    6  A    between atoms: C_20  and  C_21
REMARK                            x       y       z     vdW  Elec       q    Type
REMARK                         _______ _______ _______ _____ _____    ______ ____
ROOT
ATOM      1  N   UNL     1       1.116  13.412  19.426  0.00  0.00    +0.000 N 
ATOM      2  C   UNL     1       1.085  12.368  20.301  0.00  0.00    +0.000 C 
ATOM      3  O   UNL     1       1.985  11.990  21.037  0.00  0.00    +0.000 OA
ATOM      4  C   UNL     1      -0.283  11.748  20.271  0.00  0.00    +0.000 C 
ATOM      5  C   UNL     1      -1.135  12.804  19.559  0.00  0.00    +0.000 C 
ATOM      6  C   UNL     1      -0.139  13.830  19.113  0.00  0.00    +0.000 C 
ATOM      7  O   UNL     1      -0.454  14.885  18.569  0.00  0.00    +0.000 OA
ATOM      8  C   UNL     1      -1.722  12.119  18.338  0.00  0.00    +0.000 C 
ATOM      9  C   UNL     1      -3.086  11.475  18.556  0.00  0.00    +0.000 C 
ATOM     10  C   UNL     1      -3.058  10.227  17.683  0.00  0.00    +0.000 C 
ATOM     11  C   UNL     1      -1.597  10.026  17.299  0.00  0.00    +0.000 C 
ATOM     12  N   UNL     1      -0.816  10.991  18.079  0.00  0.00    +0.000 NA
ATOM     13  C   UNL     1      -0.391  10.495  19.406  0.00  0.00    +0.000 C 
ENDROOT
BRANCH  13  14
ATOM     14  C   UNL     1       0.813   9.601  19.364  0.00  0.00    +0.000 A 
ATOM     15  C   UNL     1       1.057   8.517  20.238  0.00  0.00    +0.000 A 
ATOM     16  C   UNL     1       1.967   7.726  19.573  0.00  0.00    +0.000 A 
ATOM     17  O   UNL     1       2.437   8.446  18.507  0.00  0.00    +0.000 OA
ATOM     18  N   UNL     1       1.714   9.619  18.374  0.00  0.00    +0.000 NA
BRANCH  16  19
ATOM     19  C   UNL     1       2.304   6.352  19.794  0.00  0.00    +0.000 A 
ATOM     20  C   UNL     1       1.741   5.497  20.723  0.00  0.00    +0.000 A 
ATOM     21  C   UNL     1       2.419   4.242  20.791  0.00  0.00    +0.000 A 
ATOM     22  C   UNL     1       3.458   4.197  19.900  0.00  0.00    +0.000 A 
ATOM     23 CL   UNL     1       4.558   2.899  19.665  0.00  0.00    +0.000 Cl
ATOM     24  S   UNL     1       3.625   5.603  18.984  0.00  0.00    +0.000 S 
ENDBRANCH  16  19
ENDBRANCH  13  14
BRANCH   1  25
ATOM     25  C   UNL     1       2.316  14.167  19.121  0.00  0.00    +0.000 C 
BRANCH  25  26
ATOM     26  C   UNL     1       2.539  15.287  20.142  0.00  0.00    +0.000 C 
BRANCH  26  27
ATOM     27  C   UNL     1       3.728  15.019  21.057  0.00  0.00    +0.000 C 
BRANCH  27  28
ATOM     28  N   UNL     1       3.295  14.518  22.355  0.00  0.00    +0.000 NA
ATOM     29  H   UNL     1       3.154  13.510  22.303  0.00  0.00    +0.000 HD
ATOM     30  H   UNL     1       2.387  14.921  22.591  0.00  0.00    +0.000 HD
ENDBRANCH  27  28
ENDBRANCH  26  27
ENDBRANCH  25  26
ENDBRANCH   1  25
TORSDOF 6
ENDMDL
MODEL 4
REMARK VINA RESULT:      -6.8      4.127      8.023
REMARK  Name = 
REMARK  6 active torsions:
REMARK  status: ('A' for Active; 'I' for Inactive)
REMARK    1  A    between atoms: N_1  and  C_2
REMARK    2  A    between atoms: C_2  and  C_3
REMARK    3  A    between atoms: C_3  and  C_4
REMARK    4  A    between atoms: C_4  and  N_5
REMARK    5  A    between atoms: C_17  and  C_18
REMARK    6  A    between atoms: C_20  and  C_21
REMARK                            x       y       z     vdW  Elec       q    Type
REMARK                         _______ _______ _______ _____ _____    ______ ____
ROOT
ATOM      1  N   UNL     1       5.428   5.552  18.404  0.00  0.00    +0.000 N 
ATOM      2  C   UNL     1       4.469   6.289  17.776  0.00  0.00    +0.000 C 
ATOM      3  O   UNL     1       4.576   7.425  17.337  0.00  0.00    +0.000 OA
ATOM      4  C   UNL     1       3.224   5.459  17.647  0.00  0.00    +0.000 C 
ATOM      5  C   UNL     1       3.715   4.036  17.932  0.00  0.00    +0.000 C 
ATOM      6  C   UNL     1       5.140   4.224  18.354  0.00  0.00    +0.000 C 
ATOM      7  O   UNL     1       5.903   3.291  18.592  0.00  0.00    +0.000 OA
ATOM      8  C   UNL     1       2.908   3.541  19.118  0.00  0.00    +0.000 C 
ATOM      9  C   UNL     1       1.627   2.797  18.759  0.00  0.00    +0.000 C 
ATOM     10  C   UNL     1       0.645   3.184  19.857  0.00  0.00    +0.000 C 
ATOM     11  C   UNL     1       1.272   4.376  20.570  0.00  0.00    +0.000 C 
ATOM     12  N   UNL     1       2.450   4.766  19.788  0.00  0.00    +0.000 NA
ATOM     13  C   UNL     1       2.165   5.739  18.710  0.00  0.00    +0.000 C 
ENDROOT
BRANCH  13  14
ATOM     14  C   UNL     1       2.047   7.157  19.185  0.00  0.00    +0.000 A 
ATOM     15  C   UNL     1       1.697   8.263  18.378  0.00  0.00    +0.000 A 
ATOM     16  C   UNL     1       1.256   9.220  19.265  0.00  0.00    +0.000 A 
ATOM     17  O   UNL     1       1.595   8.802  20.524  0.00  0.00    +0.000 OA
ATOM     18  N   UNL     1       2.088   7.510  20.476  0.00  0.00    +0.000 NA
BRANCH  16  19
ATOM     19  C   UNL     1       0.457  10.383  19.018  0.00  0.00    +0.000 A 
ATOM     20  C   UNL     1      -0.785  10.424  18.413  0.00  0.00    +0.000 A 
ATOM     21  C   UNL     1      -1.232  11.760  18.177  0.00  0.00    +0.000 A 
ATOM     22  C   UNL     1      -0.315  12.672  18.627  0.00  0.00    +0.000 A 
ATOM     23 CL   UNL     1      -0.424  14.382  18.521  0.00  0.00    +0.000 Cl
ATOM     24  S   UNL     1       1.046  11.969  19.333  0.00  0.00    +0.000 S 
ENDBRANCH  16  19
ENDBRANCH  13  14
BRANCH   1  25
ATOM     25  C   UNL     1       6.722   6.081  18.789  0.00  0.00    +0.000 C 
BRANCH  25  26
ATOM     26  C   UNL     1       7.507   6.569  17.568  0.00  0.00    +0.000 C 
BRANCH  26  27
ATOM     27  C   UNL     1       7.902   8.038  17.672  0.00  0.00    +0.000 C 
BRANCH  27  28
ATOM     28  N   UNL     1       8.680   8.292  18.877  0.00  0.00    +0.000 NA
ATOM     29  H   UNL     1       8.078   8.697  19.594  0.00  0.00    +0.000 HD
ATOM     30  H   UNL     1       9.397   8.992  18.679  0.00  0.00    +0.000 HD
ENDBRANCH  27  28
ENDBRANCH  26  27
ENDBRANCH  25  26
ENDBRANCH   1  25
TORSDOF 6
ENDMDL
MODEL 5
REMARK VINA RESULT:      -6.6      2.909      5.005
REMARK  Name = 
REMARK  6 active torsions:
REMARK  status: ('A' for Active; 'I' for Inactive)
REMARK    1  A    between atoms: N_1  and  C_2
REMARK    2  A    between atoms: C_2  and  C_3
REMARK    3  A    between atoms: C_3  and  C_4
REMARK    4  A    between atoms: C_4  and  N_5
REMARK    5  A    between atoms: C_17  and  C_18
REMARK    6  A    between atoms: C_20  and  C_21
REMARK                            x       y       z     vdW  Elec       q    Type
REMARK                         _______ _______ _______ _____ _____    ______ ____
ROOT
ATOM      1  N   UNL     1      -3.708  11.852  19.162  0.00  0.00    +0.000 N 
ATOM      2  C   UNL     1      -2.584  12.584  19.407  0.00  0.00    +0.000 C 
ATOM      3  O   UNL     1      -1.529  12.550  18.790  0.00  0.00    +0.000 OA
ATOM      4  C   UNL     1      -2.847  13.512  20.557  0.00  0.00    +0.000 C 
ATOM      5  C   UNL     1      -4.374  13.491  20.687  0.00  0.00    +0.000 C 
ATOM      6  C   UNL     1      -4.804  12.435  19.716  0.00  0.00    +0.000 C 
ATOM      7  O   UNL     1      -5.981  12.180  19.473  0.00  0.00    +0.000 OA
ATOM      8  C   UNL     1      -4.671  13.018  22.099  0.00  0.00    +0.000 C 
ATOM      9  C   UNL     1      -4.813  14.129  23.133  0.00  0.00    +0.000 C 
ATOM     10  C   UNL     1      -4.225  13.535  24.406  0.00  0.00    +0.000 C 
ATOM     11  C   UNL     1      -3.469  12.286  23.969  0.00  0.00    +0.000 C 
ATOM     12  N   UNL     1      -3.462  12.286  22.503  0.00  0.00    +0.000 NA
ATOM     13  C   UNL     1      -2.323  13.015  21.903  0.00  0.00    +0.000 C 
ENDROOT
BRANCH  13  14
ATOM     14  C   UNL     1      -1.044  12.232  21.879  0.00  0.00    +0.000 A 
ATOM     15  C   UNL     1      -0.947  10.829  21.746  0.00  0.00    +0.000 A 
ATOM     16  C   UNL     1       0.338  10.605  21.306  0.00  0.00    +0.000 A 
ATOM     17  O   UNL     1       1.032  11.778  21.446  0.00  0.00    +0.000 OA
ATOM     18  N   UNL     1       0.168  12.797  21.803  0.00  0.00    +0.000 NA
BRANCH  16  19
ATOM     19  C   UNL     1       0.889   9.446  20.668  0.00  0.00    +0.000 A 
ATOM     20  C   UNL     1       1.202   8.240  21.266  0.00  0.00    +0.000 A 
ATOM     21  C   UNL     1       1.884   7.353  20.378  0.00  0.00    +0.000 A 
ATOM     22  C   UNL     1       2.045   7.922  19.143  0.00  0.00    +0.000 A 
ATOM     23 CL   UNL     1       2.833   7.229  17.784  0.00  0.00    +0.000 Cl
ATOM     24  S   UNL     1       1.388   9.470  19.022  0.00  0.00    +0.000 S 
ENDBRANCH  16  19
ENDBRANCH  13  14
BRANCH   1  25
ATOM     25  C   UNL     1      -3.771  10.781  18.188  0.00  0.00    +0.000 C 
BRANCH  25  26
ATOM     26  C   UNL     1      -3.930  11.332  16.768  0.00  0.00    +0.000 C 
BRANCH  26  27
ATOM     27  C   UNL     1      -2.794  10.910  15.843  0.00  0.00    +0.000 C 
BRANCH  27  28
ATOM     28  N   UNL     1      -1.688  10.329  16.594  0.00  0.00    +0.000 NA
ATOM     29  H   UNL     1      -1.831  10.486  17.591  0.00  0.00    +0.000 HD
ATOM     30  H   UNL     1      -0.820  10.811  16.352  0.00  0.00    +0.000 HD
ENDBRANCH  27  28
ENDBRANCH  26  27
ENDBRANCH  25  26
ENDBRANCH   1  25
TORSDOF 6
ENDMDL
MODEL 6
REMARK VINA RESULT:      -6.6      4.187      8.206
REMARK  Name = 
REMARK  6 active torsions:
REMARK  status: ('A' for Active; 'I' for Inactive)
REMARK    1  A    between atoms: N_1  and  C_2
REMARK    2  A    between atoms: C_2  and  C_3
REMARK    3  A    between atoms: C_3  and  C_4
REMARK    4  A    between atoms: C_4  and  N_5
REMARK    5  A    between atoms: C_17  and  C_18
REMARK    6  A    between atoms: C_20  and  C_21
REMARK                            x       y       z     vdW  Elec       q    Type
REMARK                         _______ _______ _______ _____ _____    ______ ____
ROOT
ATOM      1  N   UNL     1       5.341   5.296  18.689  0.00  0.00    +0.000 N 
ATOM      2  C   UNL     1       4.480   6.080  17.983  0.00  0.00    +0.000 C 
ATOM      3  O   UNL     1       4.684   7.208  17.556  0.00  0.00    +0.000 OA
ATOM      4  C   UNL     1       3.208   5.318  17.748  0.00  0.00    +0.000 C 
ATOM      5  C   UNL     1       3.596   3.872  18.072  0.00  0.00    +0.000 C 
ATOM      6  C   UNL     1       4.988   3.985  18.614  0.00  0.00    +0.000 C 
ATOM      7  O   UNL     1       5.676   3.014  18.915  0.00  0.00    +0.000 OA
ATOM      8  C   UNL     1       2.665   3.424  19.185  0.00  0.00    +0.000 C 
ATOM      9  C   UNL     1       1.382   2.749  18.717  0.00  0.00    +0.000 C 
ATOM     10  C   UNL     1       0.332   3.192  19.728  0.00  0.00    +0.000 C 
ATOM     11  C   UNL     1       0.959   4.351  20.493  0.00  0.00    +0.000 C 
ATOM     12  N   UNL     1       2.218   4.676  19.814  0.00  0.00    +0.000 NA
ATOM     13  C   UNL     1       2.079   5.658  18.717  0.00  0.00    +0.000 C 
ENDROOT
BRANCH  13  14
ATOM     14  C   UNL     1       1.997   7.082  19.182  0.00  0.00    +0.000 A 
ATOM     15  C   UNL     1       1.656   8.189  18.371  0.00  0.00    +0.000 A 
ATOM     16  C   UNL     1       1.249   9.161  19.256  0.00  0.00    +0.000 A 
ATOM     17  O   UNL     1       1.599   8.747  20.514  0.00  0.00    +0.000 OA
ATOM     18  N   UNL     1       2.065   7.445  20.469  0.00  0.00    +0.000 NA
BRANCH  16  19
ATOM     19  C   UNL     1       0.469  10.338  19.013  0.00  0.00    +0.000 A 
ATOM     20  C   UNL     1      -0.761  10.404  18.387  0.00  0.00    +0.000 A 
ATOM     21  C   UNL     1      -1.187  11.749  18.163  0.00  0.00    +0.000 A 
ATOM     22  C   UNL     1      -0.266  12.642  18.641  0.00  0.00    +0.000 A 
ATOM     23 CL   UNL     1      -0.351  14.355  18.557  0.00  0.00    +0.000 Cl
ATOM     24  S   UNL     1       1.073  11.911  19.360  0.00  0.00    +0.000 S 
ENDBRANCH  16  19
ENDBRANCH  13  14
BRANCH   1  25
ATOM     25  C   UNL     1       6.624   5.756  19.184  0.00  0.00    +0.000 C 
BRANCH  25  26
ATOM     26  C   UNL     1       7.754   5.391  18.217  0.00  0.00    +0.000 C 
BRANCH  26  27
ATOM     27  C   UNL     1       7.494   5.884  16.798  0.00  0.00    +0.000 C 
BRANCH  27  28
ATOM     28  N   UNL     1       7.476   4.779  15.849  0.00  0.00    +0.000 NA
ATOM     29  H   UNL     1       6.593   4.275  15.926  0.00  0.00    +0.000 HD
ATOM     30  H   UNL     1       8.208   4.108  16.091  0.00  0.00    +0.000 HD
ENDBRANCH  27  28
ENDBRANCH  26  27
ENDBRANCH  25  26
ENDBRANCH   1  25
TORSDOF 6
ENDMDL
MODEL 7
REMARK VINA RESULT:      -6.6      4.022      8.171
REMARK  Name = 
REMARK  6 active torsions:
REMARK  status: ('A' for Active; 'I' for Inactive)
REMARK    1  A    between atoms: N_1  and  C_2
REMARK    2  A    between atoms: C_2  and  C_3
REMARK    3  A    between atoms: C_3  and  C_4
REMARK    4  A    between atoms: C_4  and  N_5
REMARK    5  A    between atoms: C_17  and  C_18
REMARK    6  A    between atoms: C_20  and  C_21
REMARK                            x       y       z     vdW  Elec       q    Type
REMARK                         _______ _______ _______ _____ _____    ______ ____
ROOT
ATOM      1  N   UNL     1       6.391   6.027  17.148  0.00  0.00    +0.000 N 
ATOM      2  C   UNL     1       5.218   6.175  16.469  0.00  0.00    +0.000 C 
ATOM      3  O   UNL     1       4.987   6.944  15.547  0.00  0.00    +0.000 OA
ATOM      4  C   UNL     1       4.221   5.185  16.998  0.00  0.00    +0.000 C 
ATOM      5  C   UNL     1       5.085   4.202  17.794  0.00  0.00    +0.000 C 
ATOM      6  C   UNL     1       6.448   4.822  17.774  0.00  0.00    +0.000 C 
ATOM      7  O   UNL     1       7.444   4.280  18.246  0.00  0.00    +0.000 OA
ATOM      8  C   UNL     1       4.551   4.223  19.214  0.00  0.00    +0.000 C 
ATOM      9  C   UNL     1       3.475   3.186  19.513  0.00  0.00    +0.000 C 
ATOM     10  C   UNL     1       2.538   3.885  20.490  0.00  0.00    +0.000 C 
ATOM     11  C   UNL     1       2.906   5.363  20.428  0.00  0.00    +0.000 C 
ATOM     12  N   UNL     1       3.862   5.517  19.327  0.00  0.00    +0.000 NA
ATOM     13  C   UNL     1       3.234   5.761  18.010  0.00  0.00    +0.000 C 
ENDROOT
BRANCH  13  14
ATOM     14  C   UNL     1       2.804   7.183  17.796  0.00  0.00    +0.000 A 
ATOM     15  C   UNL     1       1.470   7.615  17.619  0.00  0.00    +0.000 A 
ATOM     16  C   UNL     1       1.490   8.956  17.930  0.00  0.00    +0.000 A 
ATOM     17  O   UNL     1       2.802   9.341  18.007  0.00  0.00    +0.000 OA
ATOM     18  N   UNL     1       3.625   8.232  17.925  0.00  0.00    +0.000 NA
BRANCH  16  19
ATOM     19  C   UNL     1       0.403   9.823  18.274  0.00  0.00    +0.000 A 
ATOM     20  C   UNL     1      -0.861   9.831  17.714  0.00  0.00    +0.000 A 
ATOM     21  C   UNL     1      -1.652  10.928  18.171  0.00  0.00    +0.000 A 
ATOM     22  C   UNL     1      -0.957  11.695  19.068  0.00  0.00    +0.000 A 
ATOM     23 CL   UNL     1      -1.506  13.124  19.845  0.00  0.00    +0.000 Cl
ATOM     24  S   UNL     1       0.598  11.124  19.382  0.00  0.00    +0.000 S 
ENDBRANCH  16  19
ENDBRANCH  13  14
BRANCH   1  25
ATOM     25  C   UNL     1       7.537   6.897  16.968  0.00  0.00    +0.000 C 
BRANCH  25  26
ATOM     26  C   UNL     1       7.910   7.598  18.277  0.00  0.00    +0.000 C 
BRANCH  26  27
ATOM     27  C   UNL     1       8.285   9.062  18.073  0.00  0.00    +0.000 C 
BRANCH  27  28
ATOM     28  N   UNL     1       9.126   9.549  19.158  0.00  0.00    +0.000 NA
ATOM     29  H   UNL     1       8.982  10.550  19.281  0.00  0.00    +0.000 HD
ATOM     30  H   UNL     1      10.110   9.432  18.907  0.00  0.00    +0.000 HD
ENDBRANCH  27  28
ENDBRANCH  26  27
ENDBRANCH  25  26
ENDBRANCH   1  25
TORSDOF 6
ENDMDL
MODEL 8
REMARK VINA RESULT:      -6.6      1.045      1.140
REMARK  Name = 
REMARK  6 active torsions:
REMARK  status: ('A' for Active; 'I' for Inactive)
REMARK    1  A    between atoms: N_1  and  C_2
REMARK    2  A    between atoms: C_2  and  C_3
REMARK    3  A    between atoms: C_3  and  C_4
REMARK    4  A    between atoms: C_4  and  N_5
REMARK    5  A    between atoms: C_17  and  C_18
REMARK    6  A    between atoms: C_20  and  C_21
REMARK                            x       y       z     vdW  Elec       q    Type
REMARK                         _______ _______ _______ _____ _____    ______ ____
ROOT
ATOM      1  N   UNL     1       0.304  13.076  20.632  0.00  0.00    +0.000 N 
ATOM      2  C   UNL     1       0.472  11.758  20.937  0.00  0.00    +0.000 C 
ATOM      3  O   UNL     1       1.429  11.242  21.496  0.00  0.00    +0.000 OA
ATOM      4  C   UNL     1      -0.755  11.001  20.518  0.00  0.00    +0.000 C 
ATOM      5  C   UNL     1      -1.792  12.105  20.289  0.00  0.00    +0.000 C 
ATOM      6  C   UNL     1      -1.008  13.373  20.438  0.00  0.00    +0.000 C 
ATOM      7  O   UNL     1      -1.517  14.489  20.403  0.00  0.00    +0.000 OA
ATOM      8  C   UNL     1      -2.244  11.968  18.847  0.00  0.00    +0.000 C 
ATOM      9  C   UNL     1      -3.462  11.077  18.636  0.00  0.00    +0.000 C 
ATOM     10  C   UNL     1      -3.203  10.392  17.300  0.00  0.00    +0.000 C 
ATOM     11  C   UNL     1      -1.731  10.637  16.990  0.00  0.00    +0.000 C 
ATOM     12  N   UNL     1      -1.143  11.254  18.183  0.00  0.00    +0.000 NA
ATOM     13  C   UNL     1      -0.628  10.285  19.175  0.00  0.00    +0.000 C 
ENDROOT
BRANCH  13  14
ATOM     14  C   UNL     1       0.722   9.726  18.835  0.00  0.00    +0.000 A 
ATOM     15  C   UNL     1       1.213   8.467  19.248  0.00  0.00    +0.000 A 
ATOM     16  C   UNL     1       2.224   8.175  18.361  0.00  0.00    +0.000 A 
ATOM     17  O   UNL     1       2.494   9.316  17.654  0.00  0.00    +0.000 OA
ATOM     18  N   UNL     1       1.553  10.287  17.948  0.00  0.00    +0.000 NA
BRANCH  16  19
ATOM     19  C   UNL     1       2.831   6.912  18.062  0.00  0.00    +0.000 A 
ATOM     20  C   UNL     1       2.366   5.661  18.423  0.00  0.00    +0.000 A 
ATOM     21  C   UNL     1       3.293   4.623  18.107  0.00  0.00    +0.000 A 
ATOM     22  C   UNL     1       4.415   5.131  17.508  0.00  0.00    +0.000 A 
ATOM     23 CL   UNL     1       5.796   4.252  16.991  0.00  0.00    +0.000 Cl
ATOM     24  S   UNL     1       4.372   6.805  17.304  0.00  0.00    +0.000 S 
ENDBRANCH  16  19
ENDBRANCH  13  14
BRANCH   1  25
ATOM     25  C   UNL     1       1.340  14.076  20.801  0.00  0.00    +0.000 C 
BRANCH  25  26
ATOM     26  C   UNL     1       2.449  13.906  19.758  0.00  0.00    +0.000 C 
BRANCH  26  27
ATOM     27  C   UNL     1       1.924  13.952  18.328  0.00  0.00    +0.000 C 
BRANCH  27  28
ATOM     28  N   UNL     1       2.586  12.962  17.489  0.00  0.00    +0.000 NA
ATOM     29  H   UNL     1       2.093  12.880  16.601  0.00  0.00    +0.000 HD
ATOM     30  H   UNL     1       2.528  12.044  17.933  0.00  0.00    +0.000 HD
ENDBRANCH  27  28
ENDBRANCH  26  27
ENDBRANCH  25  26
ENDBRANCH   1  25
TORSDOF 6
ENDMDL
MODEL 9
REMARK VINA RESULT:      -6.4      2.680      4.868
REMARK  Name = 
REMARK  6 active torsions:
REMARK  status: ('A' for Active; 'I' for Inactive)
REMARK    1  A    between atoms: N_1  and  C_2
REMARK    2  A    between atoms: C_2  and  C_3
REMARK    3  A    between atoms: C_3  and  C_4
REMARK    4  A    between atoms: C_4  and  N_5
REMARK    5  A    between atoms: C_17  and  C_18
REMARK    6  A    between atoms: C_20  and  C_21
REMARK                            x       y       z     vdW  Elec       q    Type
REMARK                         _______ _______ _______ _____ _____    ______ ____
ROOT
ATOM      1  N   UNL     1      -3.671  11.797  19.016  0.00  0.00    +0.000 N 
ATOM      2  C   UNL     1      -2.547  12.541  19.213  0.00  0.00    +0.000 C 
ATOM      3  O   UNL     1      -1.534  12.549  18.528  0.00  0.00    +0.000 OA
ATOM      4  C   UNL     1      -2.750  13.425  20.409  0.00  0.00    +0.000 C 
ATOM      5  C   UNL     1      -4.265  13.370  20.636  0.00  0.00    +0.000 C 
ATOM      6  C   UNL     1      -4.739  12.339  19.659  0.00  0.00    +0.000 C 
ATOM      7  O   UNL     1      -5.924  12.070  19.484  0.00  0.00    +0.000 OA
ATOM      8  C   UNL     1      -4.462  12.845  22.047  0.00  0.00    +0.000 C 
ATOM      9  C   UNL     1      -4.554  13.917  23.126  0.00  0.00    +0.000 C 
ATOM     10  C   UNL     1      -3.874  13.293  24.338  0.00  0.00    +0.000 C 
ATOM     11  C   UNL     1      -3.128  12.074  23.809  0.00  0.00    +0.000 C 
ATOM     12  N   UNL     1      -3.216  12.124  22.346  0.00  0.00    +0.000 NA
ATOM     13  C   UNL     1      -2.132  12.894  21.700  0.00  0.00    +0.000 C 
ENDROOT
BRANCH  13  14
ATOM     14  C   UNL     1      -0.843  12.137  21.567  0.00  0.00    +0.000 A 
ATOM     15  C   UNL     1      -0.719  10.811  21.094  0.00  0.00    +0.000 A 
ATOM     16  C   UNL     1       0.595  10.700  20.699  0.00  0.00    +0.000 A 
ATOM     17  O   UNL     1       1.263  11.798  21.173  0.00  0.00    +0.000 OA
ATOM     18  N   UNL     1       0.363  12.699  21.715  0.00  0.00    +0.000 NA
BRANCH  16  19
ATOM     19  C   UNL     1       1.201   9.735  19.830  0.00  0.00    +0.000 A 
ATOM     20  C   UNL     1       1.411   9.859  18.470  0.00  0.00    +0.000 A 
ATOM     21  C   UNL     1       1.890   8.649  17.880  0.00  0.00    +0.000 A 
ATOM     22  C   UNL     1       2.033   7.666  18.823  0.00  0.00    +0.000 A 
ATOM     23 CL   UNL     1       2.549   6.051  18.557  0.00  0.00    +0.000 Cl
ATOM     24  S   UNL     1       1.629   8.163  20.383  0.00  0.00    +0.000 S 
ENDBRANCH  16  19
ENDBRANCH  13  14
BRANCH   1  25
ATOM     25  C   UNL     1      -3.780  10.757  18.011  0.00  0.00    +0.000 C 
BRANCH  25  26
ATOM     26  C   UNL     1      -4.403  11.298  16.721  0.00  0.00    +0.000 C 
BRANCH  26  27
ATOM     27  C   UNL     1      -3.534  11.038  15.495  0.00  0.00    +0.000 C 
BRANCH  27  28
ATOM     28  N   UNL     1      -2.121  11.221  15.800  0.00  0.00    +0.000 NA
ATOM     29  H   UNL     1      -1.892  10.738  16.668  0.00  0.00    +0.000 HD
ATOM     30  H   UNL     1      -1.932  12.211  15.968  0.00  0.00    +0.000 HD
ENDBRANCH  27  28
ENDBRANCH  26  27
ENDBRANCH  25  26
ENDBRANCH   1  25
TORSDOF 6
ENDMDL
