MODEL 1
REMARK VINA RESULT:      -7.8      0.000      0.000
REMARK  Name = 
REMARK  5 active torsions:
REMARK  status: ('A' for Active; 'I' for Inactive)
REMARK    1  A    between atoms: C_1  and  O_2
REMARK    2  A    between atoms: O_2  and  C_3
REMARK    3  A    between atoms: C_3  and  C_4
REMARK    4  A    between atoms: C_7  and  C_8
REMARK    5  A    between atoms: C_8  and  C_9
REMARK                            x       y       z     vdW  Elec       q    Type
REMARK                         _______ _______ _______ _____ _____    ______ ____
ROOT
ATOM      1  C   UNL     1       3.036   4.841  19.114  0.00  0.00    +0.000 C 
ATOM      2  C   UNL     1       2.858   4.134  20.493  0.00  0.00    +0.000 C 
ATOM      3  C   UNL     1       1.409   3.760  20.757  0.00  0.00    +0.000 C 
ATOM      4  O   UNL     1       0.941   2.877  19.741  0.00  0.00    +0.000 OA
ATOM      5  C   UNL     1       0.940   3.494  18.457  0.00  0.00    +0.000 C 
ATOM      6  C   UNL     1       2.352   3.920  18.058  0.00  0.00    +0.000 C 
ENDROOT
BRANCH   1   7
ATOM      7  C   UNL     1       2.449   6.280  19.170  0.00  0.00    +0.000 A 
ATOM      8  C   UNL     1       2.416   7.081  18.010  0.00  0.00    +0.000 A 
ATOM      9  C   UNL     1       1.977   8.410  18.050  0.00  0.00    +0.000 A 
ATOM     10  C   UNL     1       1.571   8.979  19.251  0.00  0.00    +0.000 A 
ATOM     11  C   UNL     1       1.563   8.202  20.401  0.00  0.00    +0.000 A 
ATOM     12 CL   UNL     1       1.089   8.897  21.904  0.00  0.00    +0.000 Cl
ATOM     13  C   UNL     1       1.962   6.863  20.357  0.00  0.00    +0.000 A 
ENDBRANCH   1   7
BRANCH   1  17
ATOM     14  C   UNL     1       6.445   4.791  17.954  0.00  0.00    +0.000 A 
ATOM     15  N   UNL     1       6.667   5.195  19.213  0.00  0.00    +0.000 NA
ATOM     16  O   UNL     1       5.385   5.266  19.758  0.00  0.00    +0.000 OA
ATOM     17  C   UNL     1       4.513   4.899  18.769  0.00  0.00    +0.000 A 
ATOM     18  N   UNL     1       5.120   4.620  17.631  0.00  0.00    +0.000 NA
BRANCH  14  19
ATOM     19  C   UNL     1       7.543   4.596  16.965  0.00  0.00    +0.000 C 
BRANCH  19  21
ATOM     20  C   UNL     1       7.023   4.843  14.675  0.00  0.00    +0.000 C 
ATOM     21  O   UNL     1       7.448   5.504  15.859  0.00  0.00    +0.000 OA
ENDBRANCH  19  21
ENDBRANCH  14  19
ENDBRANCH   1  17
TORSDOF 4
ENDMDL
MODEL 2
REMARK VINA RESULT:      -7.6      3.304      5.590
REMARK  Name = 
REMARK  5 active torsions:
REMARK  status: ('A' for Active; 'I' for Inactive)
REMARK    1  A    between atoms: C_1  and  O_2
REMARK    2  A    between atoms: O_2  and  C_3
REMARK    3  A    between atoms: C_3  and  C_4
REMARK    4  A    between atoms: C_7  and  C_8
REMARK    5  A    between atoms: C_8  and  C_9
REMARK                            x       y       z     vdW  Elec       q    Type
REMARK                         _______ _______ _______ _____ _____    ______ ____
ROOT
ATOM      1  C   UNL     1       3.203   4.535  18.534  0.00  0.00    +0.000 C 
ATOM      2  C   UNL     1       2.162   3.755  17.673  0.00  0.00    +0.000 C 
ATOM      3  C   UNL     1       2.381   2.252  17.741  0.00  0.00    +0.000 C 
ATOM      4  O   UNL     1       2.268   1.805  19.089  0.00  0.00    +0.000 OA
ATOM      5  C   UNL     1       3.276   2.367  19.925  0.00  0.00    +0.000 C 
ATOM      6  C   UNL     1       3.169   3.891  19.954  0.00  0.00    +0.000 C 
ENDROOT
BRANCH   1   7
ATOM      7  C   UNL     1       4.601   4.490  17.855  0.00  0.00    +0.000 A 
ATOM      8  C   UNL     1       5.760   4.808  18.592  0.00  0.00    +0.000 A 
ATOM      9  C   UNL     1       7.021   4.863  17.985  0.00  0.00    +0.000 A 
ATOM     10  C   UNL     1       7.157   4.615  16.624  0.00  0.00    +0.000 A 
ATOM     11  C   UNL     1       6.036   4.268  15.884  0.00  0.00    +0.000 A 
ATOM     12 CL   UNL     1       6.179   3.983  14.192  0.00  0.00    +0.000 Cl
ATOM     13  C   UNL     1       4.782   4.172  16.494  0.00  0.00    +0.000 A 
ENDBRANCH   1   7
BRANCH   1  17
ATOM     14  C   UNL     1       2.256   8.009  18.518  0.00  0.00    +0.000 A 
ATOM     15  N   UNL     1       2.072   7.757  19.822  0.00  0.00    +0.000 NA
ATOM     16  O   UNL     1       2.400   6.406  19.936  0.00  0.00    +0.000 OA
ATOM     17  C   UNL     1       2.748   5.975  18.685  0.00  0.00    +0.000 A 
ATOM     18  N   UNL     1       2.651   6.925  17.773  0.00  0.00    +0.000 NA
BRANCH  14  19
ATOM     19  C   UNL     1       1.998   9.347  17.913  0.00  0.00    +0.000 C 
BRANCH  19  21
ATOM     20  C   UNL     1       0.294  10.758  18.739  0.00  0.00    +0.000 C 
ATOM     21  O   UNL     1       0.601   9.670  17.878  0.00  0.00    +0.000 OA
ENDBRANCH  19  21
ENDBRANCH  14  19
ENDBRANCH   1  17
TORSDOF 4
ENDMDL
MODEL 3
REMARK VINA RESULT:      -7.5      1.033      1.463
REMARK  Name = 
REMARK  5 active torsions:
REMARK  status: ('A' for Active; 'I' for Inactive)
REMARK    1  A    between atoms: C_1  and  O_2
REMARK    2  A    between atoms: O_2  and  C_3
REMARK    3  A    between atoms: C_3  and  C_4
REMARK    4  A    between atoms: C_7  and  C_8
REMARK    5  A    between atoms: C_8  and  C_9
REMARK                            x       y       z     vdW  Elec       q    Type
REMARK                         _______ _______ _______ _____ _____    ______ ____
ROOT
ATOM      1  C   UNL     1       3.013   4.775  19.174  0.00  0.00    +0.000 C 
ATOM      2  C   UNL     1       2.836   3.838  20.409  0.00  0.00    +0.000 C 
ATOM      3  C   UNL     1       1.382   3.455  20.627  0.00  0.00    +0.000 C 
ATOM      4  O   UNL     1       0.879   2.778  19.479  0.00  0.00    +0.000 OA
ATOM      5  C   UNL     1       0.876   3.613  18.325  0.00  0.00    +0.000 C 
ATOM      6  C   UNL     1       2.293   4.071  17.983  0.00  0.00    +0.000 C 
ENDROOT
BRANCH   1   7
ATOM      7  C   UNL     1       2.464   6.193  19.495  0.00  0.00    +0.000 A 
ATOM      8  C   UNL     1       1.826   6.447  20.727  0.00  0.00    +0.000 A 
ATOM      9  C   UNL     1       1.243   7.690  21.006  0.00  0.00    +0.000 A 
ATOM     10  C   UNL     1       1.270   8.707  20.059  0.00  0.00    +0.000 A 
ATOM     11  C   UNL     1       1.920   8.492  18.853  0.00  0.00    +0.000 A 
ATOM     12 CL   UNL     1       1.940   9.730  17.656  0.00  0.00    +0.000 Cl
ATOM     13  C   UNL     1       2.539   7.267  18.586  0.00  0.00    +0.000 A 
ENDBRANCH   1   7
BRANCH   1  17
ATOM     14  C   UNL     1       6.413   4.799  17.985  0.00  0.00    +0.000 A 
ATOM     15  N   UNL     1       6.641   5.167  19.255  0.00  0.00    +0.000 NA
ATOM     16  O   UNL     1       5.363   5.207  19.811  0.00  0.00    +0.000 OA
ATOM     17  C   UNL     1       4.486   4.860  18.819  0.00  0.00    +0.000 A 
ATOM     18  N   UNL     1       5.087   4.622  17.668  0.00  0.00    +0.000 NA
BRANCH  14  19
ATOM     19  C   UNL     1       7.505   4.647  16.982  0.00  0.00    +0.000 C 
BRANCH  19  21
ATOM     20  C   UNL     1       7.018   4.853  14.681  0.00  0.00    +0.000 C 
ATOM     21  O   UNL     1       7.356   5.546  15.874  0.00  0.00    +0.000 OA
ENDBRANCH  19  21
ENDBRANCH  14  19
ENDBRANCH   1  17
TORSDOF 4
ENDMDL
MODEL 4
REMARK VINA RESULT:      -7.4      1.022      1.176
REMARK  Name = 
REMARK  5 active torsions:
REMARK  status: ('A' for Active; 'I' for Inactive)
REMARK    1  A    between atoms: C_1  and  O_2
REMARK    2  A    between atoms: O_2  and  C_3
REMARK    3  A    between atoms: C_3  and  C_4
REMARK    4  A    between atoms: C_7  and  C_8
REMARK    5  A    between atoms: C_8  and  C_9
REMARK                            x       y       z     vdW  Elec       q    Type
REMARK                         _______ _______ _______ _____ _____    ______ ____
ROOT
ATOM      1  C   UNL     1       2.994   5.251  19.073  0.00  0.00    +0.000 C 
ATOM      2  C   UNL     1       2.690   4.492  20.402  0.00  0.00    +0.000 C 
ATOM      3  C   UNL     1       1.236   4.060  20.489  0.00  0.00    +0.000 C 
ATOM      4  O   UNL     1       0.918   3.197  19.401  0.00  0.00    +0.000 OA
ATOM      5  C   UNL     1       1.036   3.857  18.144  0.00  0.00    +0.000 C 
ATOM      6  C   UNL     1       2.467   4.344  17.919  0.00  0.00    +0.000 C 
ENDROOT
BRANCH   1   7
ATOM      7  C   UNL     1       2.351   6.666  19.106  0.00  0.00    +0.000 A 
ATOM      8  C   UNL     1       2.253   7.431  17.925  0.00  0.00    +0.000 A 
ATOM      9  C   UNL     1       1.762   8.742  17.941  0.00  0.00    +0.000 A 
ATOM     10  C   UNL     1       1.366   9.329  19.137  0.00  0.00    +0.000 A 
ATOM     11  C   UNL     1       1.421   8.586  20.307  0.00  0.00    +0.000 A 
ATOM     12 CL   UNL     1       0.961   9.305  21.803  0.00  0.00    +0.000 Cl
ATOM     13  C   UNL     1       1.873   7.263  20.290  0.00  0.00    +0.000 A 
ENDBRANCH   1   7
BRANCH   1  17
ATOM     14  C   UNL     1       6.491   5.535  18.264  0.00  0.00    +0.000 A 
ATOM     15  N   UNL     1       6.608   5.288  19.577  0.00  0.00    +0.000 NA
ATOM     16  O   UNL     1       5.285   5.177  20.001  0.00  0.00    +0.000 OA
ATOM     17  C   UNL     1       4.497   5.371  18.898  0.00  0.00    +0.000 A 
ATOM     18  N   UNL     1       5.198   5.619  17.808  0.00  0.00    +0.000 NA
BRANCH  14  19
ATOM     19  C   UNL     1       7.670   5.757  17.378  0.00  0.00    +0.000 C 
BRANCH  19  21
ATOM     20  C   UNL     1       7.812   8.103  17.613  0.00  0.00    +0.000 C 
ATOM     21  O   UNL     1       7.617   7.025  16.708  0.00  0.00    +0.000 OA
ENDBRANCH  19  21
ENDBRANCH  14  19
ENDBRANCH   1  17
TORSDOF 4
ENDMDL
MODEL 5
REMARK VINA RESULT:      -7.4      3.083      5.396
REMARK  Name = 
REMARK  5 active torsions:
REMARK  status: ('A' for Active; 'I' for Inactive)
REMARK    1  A    between atoms: C_1  and  O_2
REMARK    2  A    between atoms: O_2  and  C_3
REMARK    3  A    between atoms: C_3  and  C_4
REMARK    4  A    between atoms: C_7  and  C_8
REMARK    5  A    between atoms: C_8  and  C_9
REMARK                            x       y       z     vdW  Elec       q    Type
REMARK                         _______ _______ _______ _____ _____    ______ ____
ROOT
ATOM      1  C   UNL     1       3.027   4.851  18.697  0.00  0.00    +0.000 C 
ATOM      2  C   UNL     1       2.063   4.076  17.748  0.00  0.00    +0.000 C 
ATOM      3  C   UNL     1       2.312   2.577  17.786  0.00  0.00    +0.000 C 
ATOM      4  O   UNL     1       2.123   2.086  19.110  0.00  0.00    +0.000 OA
ATOM      5  C   UNL     1       3.061   2.644  20.025  0.00  0.00    +0.000 C 
ATOM      6  C   UNL     1       2.917   4.163  20.092  0.00  0.00    +0.000 C 
ENDROOT
BRANCH   1   7
ATOM      7  C   UNL     1       4.466   4.858  18.109  0.00  0.00    +0.000 A 
ATOM      8  C   UNL     1       4.706   4.367  16.809  0.00  0.00    +0.000 A 
ATOM      9  C   UNL     1       6.003   4.277  16.288  0.00  0.00    +0.000 A 
ATOM     10  C   UNL     1       7.096   4.663  17.056  0.00  0.00    +0.000 A 
ATOM     11  C   UNL     1       6.884   5.180  18.326  0.00  0.00    +0.000 A 
ATOM     12 CL   UNL     1       8.226   5.638  19.302  0.00  0.00    +0.000 Cl
ATOM     13  C   UNL     1       5.588   5.309  18.833  0.00  0.00    +0.000 A 
ENDBRANCH   1   7
BRANCH   1  17
ATOM     14  C   UNL     1       1.971   8.294  18.708  0.00  0.00    +0.000 A 
ATOM     15  N   UNL     1       1.817   8.032  20.014  0.00  0.00    +0.000 NA
ATOM     16  O   UNL     1       2.189   6.693  20.118  0.00  0.00    +0.000 OA
ATOM     17  C   UNL     1       2.530   6.276  18.860  0.00  0.00    +0.000 A 
ATOM     18  N   UNL     1       2.388   7.225  17.953  0.00  0.00    +0.000 NA
BRANCH  14  19
ATOM     19  C   UNL     1       1.662   9.625  18.111  0.00  0.00    +0.000 C 
BRANCH  19  21
ATOM     20  C   UNL     1      -0.332  10.732  18.724  0.00  0.00    +0.000 C 
ATOM     21  O   UNL     1       0.262   9.789  17.842  0.00  0.00    +0.000 OA
ENDBRANCH  19  21
ENDBRANCH  14  19
ENDBRANCH   1  17
TORSDOF 4
ENDMDL
MODEL 6
REMARK VINA RESULT:      -7.4      3.219      5.822
REMARK  Name = 
REMARK  5 active torsions:
REMARK  status: ('A' for Active; 'I' for Inactive)
REMARK    1  A    between atoms: C_1  and  O_2
REMARK    2  A    between atoms: O_2  and  C_3
REMARK    3  A    between atoms: C_3  and  C_4
REMARK    4  A    between atoms: C_7  and  C_8
REMARK    5  A    between atoms: C_8  and  C_9
REMARK                            x       y       z     vdW  Elec       q    Type
REMARK                         _______ _______ _______ _____ _____    ______ ____
ROOT
ATOM      1  C   UNL     1       3.142   4.667  18.708  0.00  0.00    +0.000 C 
ATOM      2  C   UNL     1       2.120   3.948  17.775  0.00  0.00    +0.000 C 
ATOM      3  C   UNL     1       2.299   2.438  17.792  0.00  0.00    +0.000 C 
ATOM      4  O   UNL     1       2.119   1.941  19.115  0.00  0.00    +0.000 OA
ATOM      5  C   UNL     1       3.105   2.445  20.013  0.00  0.00    +0.000 C 
ATOM      6  C   UNL     1       3.033   3.969  20.098  0.00  0.00    +0.000 C 
ENDROOT
BRANCH   1   7
ATOM      7  C   UNL     1       4.565   4.612  18.085  0.00  0.00    +0.000 A 
ATOM      8  C   UNL     1       5.688   5.014  18.839  0.00  0.00    +0.000 A 
ATOM      9  C   UNL     1       6.969   5.061  18.276  0.00  0.00    +0.000 A 
ATOM     10  C   UNL     1       7.163   4.720  16.942  0.00  0.00    +0.000 A 
ATOM     11  C   UNL     1       6.080   4.289  16.189  0.00  0.00    +0.000 A 
ATOM     12 CL   UNL     1       6.295   3.889  14.528  0.00  0.00    +0.000 Cl
ATOM     13  C   UNL     1       4.806   4.202  16.759  0.00  0.00    +0.000 A 
ENDBRANCH   1   7
BRANCH   1  17
ATOM     14  C   UNL     1       1.939   7.971  19.485  0.00  0.00    +0.000 A 
ATOM     15  N   UNL     1       2.414   8.214  18.255  0.00  0.00    +0.000 NA
ATOM     16  O   UNL     1       2.930   6.980  17.861  0.00  0.00    +0.000 OA
ATOM     17  C   UNL     1       2.716   6.111  18.897  0.00  0.00    +0.000 A 
ATOM     18  N   UNL     1       2.128   6.684  19.930  0.00  0.00    +0.000 NA
BRANCH  14  19
ATOM     19  C   UNL     1       1.305   9.025  20.327  0.00  0.00    +0.000 C 
BRANCH  19  21
ATOM     20  C   UNL     1       0.244   9.248  22.425  0.00  0.00    +0.000 C 
ATOM     21  O   UNL     1       1.359   8.712  21.726  0.00  0.00    +0.000 OA
ENDBRANCH  19  21
ENDBRANCH  14  19
ENDBRANCH   1  17
TORSDOF 4
ENDMDL
MODEL 7
REMARK VINA RESULT:      -7.3      3.314      5.731
REMARK  Name = 
REMARK  5 active torsions:
REMARK  status: ('A' for Active; 'I' for Inactive)
REMARK    1  A    between atoms: C_1  and  O_2
REMARK    2  A    between atoms: O_2  and  C_3
REMARK    3  A    between atoms: C_3  and  C_4
REMARK    4  A    between atoms: C_7  and  C_8
REMARK    5  A    between atoms: C_8  and  C_9
REMARK                            x       y       z     vdW  Elec       q    Type
REMARK                         _______ _______ _______ _____ _____    ______ ____
ROOT
ATOM      1  C   UNL     1       3.324   4.608  18.430  0.00  0.00    +0.000 C 
ATOM      2  C   UNL     1       2.251   3.845  17.593  0.00  0.00    +0.000 C 
ATOM      3  C   UNL     1       2.415   2.338  17.697  0.00  0.00    +0.000 C 
ATOM      4  O   UNL     1       2.294   1.927  19.056  0.00  0.00    +0.000 OA
ATOM      5  C   UNL     1       3.326   2.473  19.873  0.00  0.00    +0.000 C 
ATOM      6  C   UNL     1       3.274   4.000  19.865  0.00  0.00    +0.000 C 
ENDROOT
BRANCH   1   7
ATOM      7  C   UNL     1       4.715   4.496  17.746  0.00  0.00    +0.000 A 
ATOM      8  C   UNL     1       5.890   4.775  18.474  0.00  0.00    +0.000 A 
ATOM      9  C   UNL     1       7.150   4.770  17.861  0.00  0.00    +0.000 A 
ATOM     10  C   UNL     1       7.269   4.498  16.503  0.00  0.00    +0.000 A 
ATOM     11  C   UNL     1       6.131   4.187  15.772  0.00  0.00    +0.000 A 
ATOM     12 CL   UNL     1       6.254   3.874  14.083  0.00  0.00    +0.000 Cl
ATOM     13  C   UNL     1       4.877   4.151  16.389  0.00  0.00    +0.000 A 
ENDBRANCH   1   7
BRANCH   1  17
ATOM     14  C   UNL     1       2.124   7.955  19.002  0.00  0.00    +0.000 A 
ATOM     15  N   UNL     1       2.799   8.175  17.864  0.00  0.00    +0.000 NA
ATOM     16  O   UNL     1       3.328   6.922  17.558  0.00  0.00    +0.000 OA
ATOM     17  C   UNL     1       2.922   6.067  18.547  0.00  0.00    +0.000 A 
ATOM     18  N   UNL     1       2.196   6.665  19.473  0.00  0.00    +0.000 NA
BRANCH  14  19
ATOM     19  C   UNL     1       1.400   9.035  19.731  0.00  0.00    +0.000 C 
BRANCH  19  21
ATOM     20  C   UNL     1      -0.288  10.186  18.547  0.00  0.00    +0.000 C 
ATOM     21  O   UNL     1       1.092  10.151  18.884  0.00  0.00    +0.000 OA
ENDBRANCH  19  21
ENDBRANCH  14  19
ENDBRANCH   1  17
TORSDOF 4
ENDMDL
MODEL 8
REMARK VINA RESULT:      -7.3      1.377      1.479
REMARK  Name = 
REMARK  5 active torsions:
REMARK  status: ('A' for Active; 'I' for Inactive)
REMARK    1  A    between atoms: C_1  and  O_2
REMARK    2  A    between atoms: O_2  and  C_3
REMARK    3  A    between atoms: C_3  and  C_4
REMARK    4  A    between atoms: C_7  and  C_8
REMARK    5  A    between atoms: C_8  and  C_9
REMARK                            x       y       z     vdW  Elec       q    Type
REMARK                         _______ _______ _______ _____ _____    ______ ____
ROOT
ATOM      1  C   UNL     1       3.065   4.784  19.112  0.00  0.00    +0.000 C 
ATOM      2  C   UNL     1       2.826   4.068  20.477  0.00  0.00    +0.000 C 
ATOM      3  C   UNL     1       1.365   3.695  20.674  0.00  0.00    +0.000 C 
ATOM      4  O   UNL     1       0.942   2.819  19.633  0.00  0.00    +0.000 OA
ATOM      5  C   UNL     1       0.999   3.444  18.353  0.00  0.00    +0.000 C 
ATOM      6  C   UNL     1       2.428   3.870  18.020  0.00  0.00    +0.000 C 
ENDROOT
BRANCH   1   7
ATOM      7  C   UNL     1       2.479   6.223  19.151  0.00  0.00    +0.000 A 
ATOM      8  C   UNL     1       2.443   7.008  17.980  0.00  0.00    +0.000 A 
ATOM      9  C   UNL     1       2.004   8.338  18.004  0.00  0.00    +0.000 A 
ATOM     10  C   UNL     1       1.601   8.923  19.199  0.00  0.00    +0.000 A 
ATOM     11  C   UNL     1       1.596   8.161  20.359  0.00  0.00    +0.000 A 
ATOM     12 CL   UNL     1       1.126   8.875  21.854  0.00  0.00    +0.000 Cl
ATOM     13  C   UNL     1       1.994   6.821  20.331  0.00  0.00    +0.000 A 
ENDBRANCH   1   7
BRANCH   1  17
ATOM     14  C   UNL     1       6.621   5.206  18.728  0.00  0.00    +0.000 A 
ATOM     15  N   UNL     1       6.396   4.417  17.667  0.00  0.00    +0.000 NA
ATOM     16  O   UNL     1       5.025   4.174  17.733  0.00  0.00    +0.000 OA
ATOM     17  C   UNL     1       4.556   4.841  18.833  0.00  0.00    +0.000 A 
ATOM     18  N   UNL     1       5.510   5.472  19.491  0.00  0.00    +0.000 NA
BRANCH  14  19
ATOM     19  C   UNL     1       7.978   5.710  19.084  0.00  0.00    +0.000 C 
BRANCH  19  21
ATOM     20  C   UNL     1       7.577   7.410  17.495  0.00  0.00    +0.000 C 
ATOM     21  O   UNL     1       8.147   7.097  18.759  0.00  0.00    +0.000 OA
ENDBRANCH  19  21
ENDBRANCH  14  19
ENDBRANCH   1  17
TORSDOF 4
ENDMDL
MODEL 9
REMARK VINA RESULT:      -7.3      3.083      5.086
REMARK  Name = 
REMARK  5 active torsions:
REMARK  status: ('A' for Active; 'I' for Inactive)
REMARK    1  A    between atoms: C_1  and  O_2
REMARK    2  A    between atoms: O_2  and  C_3
REMARK    3  A    between atoms: C_3  and  C_4
REMARK    4  A    between atoms: C_7  and  C_8
REMARK    5  A    between atoms: C_8  and  C_9
REMARK                            x       y       z     vdW  Elec       q    Type
REMARK                         _______ _______ _______ _____ _____    ______ ____
ROOT
ATOM      1  C   UNL     1       6.633   5.699  16.854  0.00  0.00    +0.000 C 
ATOM      2  C   UNL     1       7.411   7.048  16.939  0.00  0.00    +0.000 C 
ATOM      3  C   UNL     1       7.681   7.458  18.377  0.00  0.00    +0.000 C 
ATOM      4  O   UNL     1       8.456   6.457  19.032  0.00  0.00    +0.000 OA
ATOM      5  C   UNL     1       7.758   5.217  19.122  0.00  0.00    +0.000 C 
ATOM      6  C   UNL     1       7.425   4.680  17.731  0.00  0.00    +0.000 C 
ENDROOT
BRANCH   1   7
ATOM      7  C   UNL     1       5.158   5.902  17.300  0.00  0.00    +0.000 A 
ATOM      8  C   UNL     1       4.533   7.156  17.142  0.00  0.00    +0.000 A 
ATOM      9  C   UNL     1       3.237   7.393  17.616  0.00  0.00    +0.000 A 
ATOM     10  C   UNL     1       2.535   6.389  18.272  0.00  0.00    +0.000 A 
ATOM     11  C   UNL     1       3.115   5.136  18.411  0.00  0.00    +0.000 A 
ATOM     12 CL   UNL     1       2.272   3.887  19.245  0.00  0.00    +0.000 Cl
ATOM     13  C   UNL     1       4.393   4.884  17.903  0.00  0.00    +0.000 A 
ENDBRANCH   1   7
BRANCH   1  17
ATOM     14  C   UNL     1       6.456   4.217  13.577  0.00  0.00    +0.000 A 
ATOM     15  N   UNL     1       7.534   4.991  13.389  0.00  0.00    +0.000 NA
ATOM     16  O   UNL     1       7.683   5.636  14.616  0.00  0.00    +0.000 OA
ATOM     17  C   UNL     1       6.675   5.187  15.426  0.00  0.00    +0.000 A 
ATOM     18  N   UNL     1       5.878   4.327  14.819  0.00  0.00    +0.000 NA
BRANCH  14  19
ATOM     19  C   UNL     1       5.893   3.346  12.506  0.00  0.00    +0.000 C 
BRANCH  19  21
ATOM     20  C   UNL     1       4.068   3.053  11.037  0.00  0.00    +0.000 C 
ATOM     21  O   UNL     1       4.498   3.591  12.280  0.00  0.00    +0.000 OA
ENDBRANCH  19  21
ENDBRANCH  14  19
ENDBRANCH   1  17
TORSDOF 4
ENDMDL
