MODEL 1
REMARK VINA RESULT:      -8.4      0.000      0.000
REMARK  Name = 
REMARK  4 active torsions:
REMARK  status: ('A' for Active; 'I' for Inactive)
REMARK    1  A    between atoms: S_2  and  C_4
REMARK    2  A    between atoms: S_2  and  C_13
REMARK    3  A    between atoms: C_4  and  C_5
REMARK    4  A    between atoms: C_5  and  C_7
REMARK                            x       y       z     vdW  Elec       q    Type
REMARK                         _______ _______ _______ _____ _____    ______ ____
ROOT
ATOM      1  O   UNL     1       6.713   6.757  18.094  0.00  0.00    +0.000 OA
ATOM      2  S   UNL     1       6.892   5.320  18.048  0.00  0.00    +0.000 S 
ATOM      3  O   UNL     1       8.079   4.670  18.573  0.00  0.00    +0.000 OA
ENDROOT
BRANCH   2   4
ATOM      4  C   UNL     1       6.821   4.903  16.326  0.00  0.00    +0.000 A 
ATOM      5  N   UNL     1       7.590   5.418  15.388  0.00  0.00    +0.000 NA
ATOM      6  C   UNL     1       7.235   4.871  14.165  0.00  0.00    +0.000 A 
ATOM      7  C   UNL     1       7.812   5.196  12.920  0.00  0.00    +0.000 A 
ATOM      8  C   UNL     1       7.330   4.595  11.752  0.00  0.00    +0.000 A 
ATOM      9  C   UNL     1       6.298   3.664  11.813  0.00  0.00    +0.000 A 
ATOM     10  C   UNL     1       5.725   3.307  13.038  0.00  0.00    +0.000 A 
ATOM     11  C   UNL     1       6.202   3.930  14.203  0.00  0.00    +0.000 A 
ATOM     12  S   UNL     1       5.684   3.731  15.837  0.00  0.00    +0.000 S 
ENDBRANCH   2   4
BRANCH   2  13
ATOM     13  C   UNL     1       5.457   4.493  18.693  0.00  0.00    +0.000 C 
BRANCH  13  14
ATOM     14  C   UNL     1       4.291   5.434  18.946  0.00  0.00    +0.000 C 
ATOM     15 CL   UNL     1       3.909   6.460  17.524  0.00  0.00    +0.000 Cl
BRANCH  14  16
ATOM     16  C   UNL     1       3.032   4.649  19.291  0.00  0.00    +0.000 A 
ATOM     17  C   UNL     1       2.286   4.019  18.284  0.00  0.00    +0.000 A 
ATOM     18  C   UNL     1       1.133   3.294  18.602  0.00  0.00    +0.000 A 
ATOM     19  C   UNL     1       0.711   3.186  19.925  0.00  0.00    +0.000 A 
ATOM     20  C   UNL     1       1.445   3.798  20.937  0.00  0.00    +0.000 A 
ATOM     21  C   UNL     1       2.596   4.520  20.624  0.00  0.00    +0.000 A 
ENDBRANCH  14  16
ENDBRANCH  13  14
ENDBRANCH   2  13
TORSDOF 4
ENDMDL
MODEL 2
REMARK VINA RESULT:      -8.3      0.109      1.052
REMARK  Name = 
REMARK  4 active torsions:
REMARK  status: ('A' for Active; 'I' for Inactive)
REMARK    1  A    between atoms: S_2  and  C_4
REMARK    2  A    between atoms: S_2  and  C_13
REMARK    3  A    between atoms: C_4  and  C_5
REMARK    4  A    between atoms: C_5  and  C_7
REMARK                            x       y       z     vdW  Elec       q    Type
REMARK                         _______ _______ _______ _____ _____    ______ ____
ROOT
ATOM      1  O   UNL     1       6.634   6.835  18.084  0.00  0.00    +0.000 OA
ATOM      2  S   UNL     1       6.849   5.404  18.040  0.00  0.00    +0.000 S 
ATOM      3  O   UNL     1       8.045   4.783  18.578  0.00  0.00    +0.000 OA
ENDROOT
BRANCH   2   4
ATOM      4  C   UNL     1       6.806   4.984  16.318  0.00  0.00    +0.000 A 
ATOM      5  N   UNL     1       7.591   5.498  15.392  0.00  0.00    +0.000 NA
ATOM      6  C   UNL     1       7.255   4.950  14.164  0.00  0.00    +0.000 A 
ATOM      7  C   UNL     1       7.853   5.272  12.928  0.00  0.00    +0.000 A 
ATOM      8  C   UNL     1       7.390   4.671  11.753  0.00  0.00    +0.000 A 
ATOM      9  C   UNL     1       6.357   3.740  11.798  0.00  0.00    +0.000 A 
ATOM     10  C   UNL     1       5.763   3.385  13.014  0.00  0.00    +0.000 A 
ATOM     11  C   UNL     1       6.221   4.009  14.186  0.00  0.00    +0.000 A 
ATOM     12  S   UNL     1       5.676   3.812  15.811  0.00  0.00    +0.000 S 
ENDBRANCH   2   4
BRANCH   2  13
ATOM     13  C   UNL     1       5.428   4.542  18.671  0.00  0.00    +0.000 C 
BRANCH  13  14
ATOM     14  C   UNL     1       4.245   5.459  18.939  0.00  0.00    +0.000 C 
ATOM     15 CL   UNL     1       3.843   6.496  17.532  0.00  0.00    +0.000 Cl
BRANCH  14  16
ATOM     16  C   UNL     1       3.002   4.646  19.276  0.00  0.00    +0.000 A 
ATOM     17  C   UNL     1       2.467   4.666  20.573  0.00  0.00    +0.000 A 
ATOM     18  C   UNL     1       1.323   3.924  20.881  0.00  0.00    +0.000 A 
ATOM     19  C   UNL     1       0.696   3.156  19.902  0.00  0.00    +0.000 A 
ATOM     20  C   UNL     1       1.209   3.132  18.608  0.00  0.00    +0.000 A 
ATOM     21  C   UNL     1       2.349   3.873  18.297  0.00  0.00    +0.000 A 
ENDBRANCH  14  16
ENDBRANCH  13  14
ENDBRANCH   2  13
TORSDOF 4
ENDMDL
MODEL 3
REMARK VINA RESULT:      -8.1      1.046      1.476
REMARK  Name = 
REMARK  4 active torsions:
REMARK  status: ('A' for Active; 'I' for Inactive)
REMARK    1  A    between atoms: S_2  and  C_4
REMARK    2  A    between atoms: S_2  and  C_13
REMARK    3  A    between atoms: C_4  and  C_5
REMARK    4  A    between atoms: C_5  and  C_7
REMARK                            x       y       z     vdW  Elec       q    Type
REMARK                         _______ _______ _______ _____ _____    ______ ____
ROOT
ATOM      1  O   UNL     1       6.691   6.799  18.213  0.00  0.00    +0.000 OA
ATOM      2  S   UNL     1       5.853   5.634  18.016  0.00  0.00    +0.000 S 
ATOM      3  O   UNL     1       5.986   4.439  18.827  0.00  0.00    +0.000 OA
ENDROOT
BRANCH   2   4
ATOM      4  C   UNL     1       6.151   5.131  16.342  0.00  0.00    +0.000 A 
ATOM      5  N   UNL     1       7.104   5.607  15.565  0.00  0.00    +0.000 NA
ATOM      6  C   UNL     1       7.018   4.997  14.324  0.00  0.00    +0.000 A 
ATOM      7  C   UNL     1       7.848   5.264  13.216  0.00  0.00    +0.000 A 
ATOM      8  C   UNL     1       7.627   4.602  12.004  0.00  0.00    +0.000 A 
ATOM      9  C   UNL     1       6.605   3.665  11.890  0.00  0.00    +0.000 A 
ATOM     10  C   UNL     1       5.782   3.364  12.980  0.00  0.00    +0.000 A 
ATOM     11  C   UNL     1       5.999   4.048  14.188  0.00  0.00    +0.000 A 
ATOM     12  S   UNL     1       5.144   3.926  15.680  0.00  0.00    +0.000 S 
ENDBRANCH   2   4
BRANCH   2  13
ATOM     13  C   UNL     1       4.139   6.102  17.966  0.00  0.00    +0.000 C 
BRANCH  13  14
ATOM     14  C   UNL     1       3.459   6.021  19.323  0.00  0.00    +0.000 C 
ATOM     15 CL   UNL     1       2.472   7.473  19.690  0.00  0.00    +0.000 Cl
BRANCH  14  16
ATOM     16  C   UNL     1       2.533   4.813  19.389  0.00  0.00    +0.000 A 
ATOM     17  C   UNL     1       2.071   4.336  20.624  0.00  0.00    +0.000 A 
ATOM     18  C   UNL     1       1.217   3.230  20.684  0.00  0.00    +0.000 A 
ATOM     19  C   UNL     1       0.813   2.588  19.515  0.00  0.00    +0.000 A 
ATOM     20  C   UNL     1       1.257   3.054  18.281  0.00  0.00    +0.000 A 
ATOM     21  C   UNL     1       2.106   4.159  18.218  0.00  0.00    +0.000 A 
ENDBRANCH  14  16
ENDBRANCH  13  14
ENDBRANCH   2  13
TORSDOF 4
ENDMDL
MODEL 4
REMARK VINA RESULT:      -8.0      1.115      1.187
REMARK  Name = 
REMARK  4 active torsions:
REMARK  status: ('A' for Active; 'I' for Inactive)
REMARK    1  A    between atoms: S_2  and  C_4
REMARK    2  A    between atoms: S_2  and  C_13
REMARK    3  A    between atoms: C_4  and  C_5
REMARK    4  A    between atoms: C_5  and  C_7
REMARK                            x       y       z     vdW  Elec       q    Type
REMARK                         _______ _______ _______ _____ _____    ______ ____
ROOT
ATOM      1  O   UNL     1       6.757   6.118  18.769  0.00  0.00    +0.000 OA
ATOM      2  S   UNL     1       5.716   5.221  18.311  0.00  0.00    +0.000 S 
ATOM      3  O   UNL     1       5.486   3.925  18.921  0.00  0.00    +0.000 OA
ENDROOT
BRANCH   2   4
ATOM      4  C   UNL     1       6.096   4.906  16.608  0.00  0.00    +0.000 A 
ATOM      5  N   UNL     1       7.012   5.542  15.905  0.00  0.00    +0.000 NA
ATOM      6  C   UNL     1       7.012   5.043  14.612  0.00  0.00    +0.000 A 
ATOM      7  C   UNL     1       7.833   5.491  13.557  0.00  0.00    +0.000 A 
ATOM      8  C   UNL     1       7.704   4.925  12.285  0.00  0.00    +0.000 A 
ATOM      9  C   UNL     1       6.783   3.907  12.057  0.00  0.00    +0.000 A 
ATOM     10  C   UNL     1       5.973   3.428  13.092  0.00  0.00    +0.000 A 
ATOM     11  C   UNL     1       6.096   4.016  14.362  0.00  0.00    +0.000 A 
ATOM     12  S   UNL     1       5.228   3.674  15.812  0.00  0.00    +0.000 S 
ENDBRANCH   2   4
BRANCH   2  13
ATOM     13  C   UNL     1       4.164   6.080  18.195  0.00  0.00    +0.000 C 
BRANCH  13  14
ATOM     14  C   UNL     1       3.353   6.022  19.479  0.00  0.00    +0.000 C 
ATOM     15 CL   UNL     1       2.329   7.476  19.716  0.00  0.00    +0.000 Cl
BRANCH  14  16
ATOM     16  C   UNL     1       2.430   4.810  19.478  0.00  0.00    +0.000 A 
ATOM     17  C   UNL     1       1.981   4.258  18.269  0.00  0.00    +0.000 A 
ATOM     18  C   UNL     1       1.138   3.142  18.269  0.00  0.00    +0.000 A 
ATOM     19  C   UNL     1       0.734   2.564  19.470  0.00  0.00    +0.000 A 
ATOM     20  C   UNL     1       1.176   3.095  20.677  0.00  0.00    +0.000 A 
ATOM     21  C   UNL     1       2.020   4.207  20.682  0.00  0.00    +0.000 A 
ENDBRANCH  14  16
ENDBRANCH  13  14
ENDBRANCH   2  13
TORSDOF 4
ENDMDL
MODEL 5
REMARK VINA RESULT:      -7.9      1.691      6.861
REMARK  Name = 
REMARK  4 active torsions:
REMARK  status: ('A' for Active; 'I' for Inactive)
REMARK    1  A    between atoms: S_2  and  C_4
REMARK    2  A    between atoms: S_2  and  C_13
REMARK    3  A    between atoms: C_4  and  C_5
REMARK    4  A    between atoms: C_5  and  C_7
REMARK                            x       y       z     vdW  Elec       q    Type
REMARK                         _______ _______ _______ _____ _____    ______ ____
ROOT
ATOM      1  O   UNL     1       7.980   4.254  18.350  0.00  0.00    +0.000 OA
ATOM      2  S   UNL     1       7.111   5.401  18.186  0.00  0.00    +0.000 S 
ATOM      3  O   UNL     1       7.431   6.702  18.741  0.00  0.00    +0.000 OA
ENDROOT
BRANCH   2   4
ATOM      4  C   UNL     1       5.569   4.918  18.917  0.00  0.00    +0.000 A 
ATOM      5  N   UNL     1       5.300   3.720  19.397  0.00  0.00    +0.000 NA
ATOM      6  C   UNL     1       3.996   3.708  19.866  0.00  0.00    +0.000 A 
ATOM      7  C   UNL     1       3.334   2.596  20.428  0.00  0.00    +0.000 A 
ATOM      8  C   UNL     1       1.998   2.709  20.827  0.00  0.00    +0.000 A 
ATOM      9  C   UNL     1       1.323   3.919  20.693  0.00  0.00    +0.000 A 
ATOM     10  C   UNL     1       1.964   5.043  20.161  0.00  0.00    +0.000 A 
ATOM     11  C   UNL     1       3.299   4.914  19.744  0.00  0.00    +0.000 A 
ATOM     12  S   UNL     1       4.337   6.091  19.028  0.00  0.00    +0.000 S 
ENDBRANCH   2   4
BRANCH   2  13
ATOM     13  C   UNL     1       6.666   5.605  16.476  0.00  0.00    +0.000 C 
BRANCH  13  14
ATOM     14  C   UNL     1       6.225   4.308  15.817  0.00  0.00    +0.000 C 
ATOM     15 CL   UNL     1       4.460   4.025  15.961  0.00  0.00    +0.000 Cl
BRANCH  14  16
ATOM     16  C   UNL     1       6.565   4.319  14.331  0.00  0.00    +0.000 A 
ATOM     17  C   UNL     1       5.910   3.452  13.444  0.00  0.00    +0.000 A 
ATOM     18  C   UNL     1       6.218   3.466  12.080  0.00  0.00    +0.000 A 
ATOM     19  C   UNL     1       7.179   4.344  11.584  0.00  0.00    +0.000 A 
ATOM     20  C   UNL     1       7.832   5.217  12.450  0.00  0.00    +0.000 A 
ATOM     21  C   UNL     1       7.525   5.207  13.811  0.00  0.00    +0.000 A 
ENDBRANCH  14  16
ENDBRANCH  13  14
ENDBRANCH   2  13
TORSDOF 4
ENDMDL
MODEL 6
REMARK VINA RESULT:      -7.9      1.690      6.902
REMARK  Name = 
REMARK  4 active torsions:
REMARK  status: ('A' for Active; 'I' for Inactive)
REMARK    1  A    between atoms: S_2  and  C_4
REMARK    2  A    between atoms: S_2  and  C_13
REMARK    3  A    between atoms: C_4  and  C_5
REMARK    4  A    between atoms: C_5  and  C_7
REMARK                            x       y       z     vdW  Elec       q    Type
REMARK                         _______ _______ _______ _____ _____    ______ ____
ROOT
ATOM      1  O   UNL     1       7.964   4.273  18.343  0.00  0.00    +0.000 OA
ATOM      2  S   UNL     1       7.097   5.422  18.181  0.00  0.00    +0.000 S 
ATOM      3  O   UNL     1       7.421   6.721  18.740  0.00  0.00    +0.000 OA
ENDROOT
BRANCH   2   4
ATOM      4  C   UNL     1       5.554   4.941  18.909  0.00  0.00    +0.000 A 
ATOM      5  N   UNL     1       5.277   3.740  19.377  0.00  0.00    +0.000 NA
ATOM      6  C   UNL     1       3.974   3.731  19.848  0.00  0.00    +0.000 A 
ATOM      7  C   UNL     1       3.305   2.618  20.398  0.00  0.00    +0.000 A 
ATOM      8  C   UNL     1       1.971   2.736  20.800  0.00  0.00    +0.000 A 
ATOM      9  C   UNL     1       1.304   3.951  20.680  0.00  0.00    +0.000 A 
ATOM     10  C   UNL     1       1.951   5.076  20.159  0.00  0.00    +0.000 A 
ATOM     11  C   UNL     1       3.285   4.943  19.739  0.00  0.00    +0.000 A 
ATOM     12  S   UNL     1       4.330   6.121  19.034  0.00  0.00    +0.000 S 
ENDBRANCH   2   4
BRANCH   2  13
ATOM     13  C   UNL     1       6.656   5.631  16.471  0.00  0.00    +0.000 C 
BRANCH  13  14
ATOM     14  C   UNL     1       6.232   4.333  15.803  0.00  0.00    +0.000 C 
ATOM     15 CL   UNL     1       4.469   4.031  15.936  0.00  0.00    +0.000 Cl
BRANCH  14  16
ATOM     16  C   UNL     1       6.578   4.355  14.320  0.00  0.00    +0.000 A 
ATOM     17  C   UNL     1       7.561   5.229  13.830  0.00  0.00    +0.000 A 
ATOM     18  C   UNL     1       7.882   5.246  12.469  0.00  0.00    +0.000 A 
ATOM     19  C   UNL     1       7.231   4.392  11.581  0.00  0.00    +0.000 A 
ATOM     20  C   UNL     1       6.260   3.514  12.052  0.00  0.00    +0.000 A 
ATOM     21  C   UNL     1       5.938   3.493  13.409  0.00  0.00    +0.000 A 
ENDBRANCH  14  16
ENDBRANCH  13  14
ENDBRANCH   2  13
TORSDOF 4
ENDMDL
MODEL 7
REMARK VINA RESULT:      -7.7      2.109      6.801
REMARK  Name = 
REMARK  4 active torsions:
REMARK  status: ('A' for Active; 'I' for Inactive)
REMARK    1  A    between atoms: S_2  and  C_4
REMARK    2  A    between atoms: S_2  and  C_13
REMARK    3  A    between atoms: C_4  and  C_5
REMARK    4  A    between atoms: C_5  and  C_7
REMARK                            x       y       z     vdW  Elec       q    Type
REMARK                         _______ _______ _______ _____ _____    ______ ____
ROOT
ATOM      1  O   UNL     1       7.743   4.654  17.486  0.00  0.00    +0.000 OA
ATOM      2  S   UNL     1       6.678   5.002  16.567  0.00  0.00    +0.000 S 
ATOM      3  O   UNL     1       6.468   6.361  16.105  0.00  0.00    +0.000 OA
ENDROOT
BRANCH   2   4
ATOM      4  C   UNL     1       5.184   4.525  17.393  0.00  0.00    +0.000 A 
ATOM      5  N   UNL     1       4.391   3.539  17.019  0.00  0.00    +0.000 NA
ATOM      6  C   UNL     1       3.313   3.476  17.888  0.00  0.00    +0.000 A 
ATOM      7  C   UNL     1       2.237   2.570  17.798  0.00  0.00    +0.000 A 
ATOM      8  C   UNL     1       1.189   2.639  18.721  0.00  0.00    +0.000 A 
ATOM      9  C   UNL     1       1.211   3.585  19.742  0.00  0.00    +0.000 A 
ATOM     10  C   UNL     1       2.279   4.480  19.868  0.00  0.00    +0.000 A 
ATOM     11  C   UNL     1       3.317   4.415  18.924  0.00  0.00    +0.000 A 
ATOM     12  S   UNL     1       4.734   5.390  18.792  0.00  0.00    +0.000 S 
ENDBRANCH   2   4
BRANCH   2  13
ATOM     13  C   UNL     1       6.691   3.916  15.160  0.00  0.00    +0.000 C 
BRANCH  13  14
ATOM     14  C   UNL     1       6.512   4.649  13.841  0.00  0.00    +0.000 C 
ATOM     15 CL   UNL     1       8.044   5.351  13.227  0.00  0.00    +0.000 Cl
BRANCH  14  16
ATOM     16  C   UNL     1       5.983   3.704  12.769  0.00  0.00    +0.000 A 
ATOM     17  C   UNL     1       4.649   3.785  12.342  0.00  0.00    +0.000 A 
ATOM     18  C   UNL     1       4.165   2.921  11.355  0.00  0.00    +0.000 A 
ATOM     19  C   UNL     1       5.003   1.967  10.781  0.00  0.00    +0.000 A 
ATOM     20  C   UNL     1       6.331   1.878  11.188  0.00  0.00    +0.000 A 
ATOM     21  C   UNL     1       6.818   2.741  12.171  0.00  0.00    +0.000 A 
ENDBRANCH  14  16
ENDBRANCH  13  14
ENDBRANCH   2  13
TORSDOF 4
ENDMDL
MODEL 8
REMARK VINA RESULT:      -7.6      1.410      1.842
REMARK  Name = 
REMARK  4 active torsions:
REMARK  status: ('A' for Active; 'I' for Inactive)
REMARK    1  A    between atoms: S_2  and  C_4
REMARK    2  A    between atoms: S_2  and  C_13
REMARK    3  A    between atoms: C_4  and  C_5
REMARK    4  A    between atoms: C_5  and  C_7
REMARK                            x       y       z     vdW  Elec       q    Type
REMARK                         _______ _______ _______ _____ _____    ______ ____
ROOT
ATOM      1  O   UNL     1       6.629   5.730  18.971  0.00  0.00    +0.000 OA
ATOM      2  S   UNL     1       5.543   4.947  18.419  0.00  0.00    +0.000 S 
ATOM      3  O   UNL     1       5.222   3.618  18.904  0.00  0.00    +0.000 OA
ENDROOT
BRANCH   2   4
ATOM      4  C   UNL     1       5.934   4.765  16.699  0.00  0.00    +0.000 A 
ATOM      5  N   UNL     1       5.258   4.027  15.842  0.00  0.00    +0.000 NA
ATOM      6  C   UNL     1       5.867   4.110  14.600  0.00  0.00    +0.000 A 
ATOM      7  C   UNL     1       5.453   3.436  13.433  0.00  0.00    +0.000 A 
ATOM      8  C   UNL     1       6.184   3.578  12.249  0.00  0.00    +0.000 A 
ATOM      9  C   UNL     1       7.307   4.399  12.209  0.00  0.00    +0.000 A 
ATOM     10  C   UNL     1       7.726   5.098  13.347  0.00  0.00    +0.000 A 
ATOM     11  C   UNL     1       6.997   4.932  14.536  0.00  0.00    +0.000 A 
ATOM     12  S   UNL     1       7.277   5.622  16.092  0.00  0.00    +0.000 S 
ENDBRANCH   2   4
BRANCH   2  13
ATOM     13  C   UNL     1       4.049   5.910  18.363  0.00  0.00    +0.000 C 
BRANCH  13  14
ATOM     14  C   UNL     1       3.262   5.864  19.662  0.00  0.00    +0.000 C 
ATOM     15 CL   UNL     1       2.236   7.316  19.900  0.00  0.00    +0.000 Cl
BRANCH  14  16
ATOM     16  C   UNL     1       2.344   4.649  19.691  0.00  0.00    +0.000 A 
ATOM     17  C   UNL     1       1.802   4.136  18.503  0.00  0.00    +0.000 A 
ATOM     18  C   UNL     1       0.964   3.017  18.529  0.00  0.00    +0.000 A 
ATOM     19  C   UNL     1       0.656   2.396  19.737  0.00  0.00    +0.000 A 
ATOM     20  C   UNL     1       1.191   2.887  20.924  0.00  0.00    +0.000 A 
ATOM     21  C   UNL     1       2.030   4.001  20.902  0.00  0.00    +0.000 A 
ENDBRANCH  14  16
ENDBRANCH  13  14
ENDBRANCH   2  13
TORSDOF 4
ENDMDL
MODEL 9
REMARK VINA RESULT:      -7.6      0.861      1.171
REMARK  Name = 
REMARK  4 active torsions:
REMARK  status: ('A' for Active; 'I' for Inactive)
REMARK    1  A    between atoms: S_2  and  C_4
REMARK    2  A    between atoms: S_2  and  C_13
REMARK    3  A    between atoms: C_4  and  C_5
REMARK    4  A    between atoms: C_5  and  C_7
REMARK                            x       y       z     vdW  Elec       q    Type
REMARK                         _______ _______ _______ _____ _____    ______ ____
ROOT
ATOM      1  O   UNL     1       6.440   6.750  17.851  0.00  0.00    +0.000 OA
ATOM      2  S   UNL     1       6.408   5.304  17.777  0.00  0.00    +0.000 S 
ATOM      3  O   UNL     1       7.366   4.471  18.480  0.00  0.00    +0.000 OA
ENDROOT
BRANCH   2   4
ATOM      4  C   UNL     1       6.598   4.927  16.054  0.00  0.00    +0.000 A 
ATOM      5  N   UNL     1       7.414   5.549  15.227  0.00  0.00    +0.000 NA
ATOM      6  C   UNL     1       7.277   5.000  13.962  0.00  0.00    +0.000 A 
ATOM      7  C   UNL     1       7.963   5.418  12.804  0.00  0.00    +0.000 A 
ATOM      8  C   UNL     1       7.700   4.801  11.577  0.00  0.00    +0.000 A 
ATOM      9  C   UNL     1       6.780   3.760  11.495  0.00  0.00    +0.000 A 
ATOM     10  C   UNL     1       6.103   3.309  12.634  0.00  0.00    +0.000 A 
ATOM     11  C   UNL     1       6.359   3.950  13.858  0.00  0.00    +0.000 A 
ATOM     12  S   UNL     1       5.669   3.651  15.410  0.00  0.00    +0.000 S 
ENDBRANCH   2   4
BRANCH   2  13
ATOM     13  C   UNL     1       4.771   4.699  18.113  0.00  0.00    +0.000 C 
BRANCH  13  14
ATOM     14  C   UNL     1       4.089   5.432  19.258  0.00  0.00    +0.000 C 
ATOM     15 CL   UNL     1       3.193   6.886  18.711  0.00  0.00    +0.000 Cl
BRANCH  14  16
ATOM     16  C   UNL     1       3.091   4.520  19.960  0.00  0.00    +0.000 A 
ATOM     17  C   UNL     1       3.537   3.445  20.744  0.00  0.00    +0.000 A 
ATOM     18  C   UNL     1       2.621   2.612  21.393  0.00  0.00    +0.000 A 
ATOM     19  C   UNL     1       1.252   2.838  21.270  0.00  0.00    +0.000 A 
ATOM     20  C   UNL     1       0.793   3.905  20.502  0.00  0.00    +0.000 A 
ATOM     21  C   UNL     1       1.705   4.740  19.855  0.00  0.00    +0.000 A 
ENDBRANCH  14  16
ENDBRANCH  13  14
ENDBRANCH   2  13
TORSDOF 4
ENDMDL
