MODEL 1
REMARK VINA RESULT:      -7.1      0.000      0.000
REMARK  Name = 
REMARK  7 active torsions:
REMARK  status: ('A' for Active; 'I' for Inactive)
REMARK    1  A    between atoms: C_1  and  O_2
REMARK    2  A    between atoms: O_2  and  C_3
REMARK    3  A    between atoms: C_6  and  C_7
REMARK    4  A    between atoms: CA_9  and  C_10
REMARK    5  A    between atoms: C_10  and  O_11
REMARK    6  A    between atoms: C_16  and  O_17
REMARK    7  A    between atoms: O_17  and  C_18
REMARK                            x       y       z     vdW  Elec       q    Type
REMARK                         _______ _______ _______ _____ _____    ______ ____
ROOT
ATOM      1  C   UNL     1       7.031   4.981  15.287  0.00  0.00    +0.000 A 
ATOM      2  C   UNL     1       5.770   4.668  14.834  0.00  0.00    +0.000 A 
ATOM      3  C   UNL     1       4.812   4.290  15.776  0.00  0.00    +0.000 A 
ATOM      4  C   UNL     1       5.114   4.208  17.151  0.00  0.00    +0.000 A 
ATOM      5  C   UNL     1       6.440   4.550  17.480  0.00  0.00    +0.000 A 
ATOM      6  N   UNL     1       7.380   4.927  16.579  0.00  0.00    +0.000 NA
ENDROOT
BRANCH   4   7
ATOM      7  C   UNL     1       4.055   3.820  18.127  0.00  0.00    +0.000 A 
ATOM      8  C   UNL     1       3.424   4.756  18.967  0.00  0.00    +0.000 A 
ATOM      9  CA  UNL     1       2.396   4.365  19.835  0.00  0.00    +0.000 A 
ATOM     10  N   UNL     1       1.938   3.092  19.903  0.00  0.00    +0.000 NA
ATOM     11  C   UNL     1       2.540   2.193  19.093  0.00  0.00    +0.000 A 
ATOM     12  C   UNL     1       3.582   2.501  18.230  0.00  0.00    +0.000 A 
ATOM     13  F   UNL     1       4.112   1.509  17.502  0.00  0.00    +0.000 F 
BRANCH   9  14
ATOM     14  C   UNL     1       1.723   5.377  20.734  0.00  0.00    +0.000 C 
BRANCH  14  15
ATOM     15  O   UNL     1       2.243   6.683  20.496  0.00  0.00    +0.000 OA
ATOM     16  H   UNL     1       1.505   7.183  20.095  0.00  0.00    +0.000 HD
ENDBRANCH  14  15
ENDBRANCH   9  14
ENDBRANCH   4   7
BRANCH   1  18
ATOM     17  C   UNL     1       7.586   4.996  13.022  0.00  0.00    +0.000 C 
ATOM     18  O   UNL     1       7.961   5.369  14.345  0.00  0.00    +0.000 OA
ENDBRANCH   1  18
BRANCH   5  19
ATOM     19  O   UNL     1       6.835   4.521  18.804  0.00  0.00    +0.000 OA
ATOM     20  C   UNL     1       7.573   5.677  19.205  0.00  0.00    +0.000 C 
ENDBRANCH   5  19
TORSDOF 5
ENDMDL
MODEL 2
REMARK VINA RESULT:      -6.8      2.088      2.432
REMARK  Name = 
REMARK  7 active torsions:
REMARK  status: ('A' for Active; 'I' for Inactive)
REMARK    1  A    between atoms: C_1  and  O_2
REMARK    2  A    between atoms: O_2  and  C_3
REMARK    3  A    between atoms: C_6  and  C_7
REMARK    4  A    between atoms: CA_9  and  C_10
REMARK    5  A    between atoms: C_10  and  O_11
REMARK    6  A    between atoms: C_16  and  O_17
REMARK    7  A    between atoms: O_17  and  C_18
REMARK                            x       y       z     vdW  Elec       q    Type
REMARK                         _______ _______ _______ _____ _____    ______ ____
ROOT
ATOM      1  C   UNL     1       7.076   5.193  14.615  0.00  0.00    +0.000 A 
ATOM      2  C   UNL     1       5.905   4.484  14.485  0.00  0.00    +0.000 A 
ATOM      3  C   UNL     1       5.055   4.416  15.590  0.00  0.00    +0.000 A 
ATOM      4  C   UNL     1       5.378   5.035  16.815  0.00  0.00    +0.000 A 
ATOM      5  C   UNL     1       6.607   5.724  16.815  0.00  0.00    +0.000 A 
ATOM      6  N   UNL     1       7.440   5.806  15.749  0.00  0.00    +0.000 NA
ENDROOT
BRANCH   4   7
ATOM      7  C   UNL     1       4.432   4.955  17.966  0.00  0.00    +0.000 A 
ATOM      8  C   UNL     1       4.321   3.805  18.770  0.00  0.00    +0.000 A 
ATOM      9  CA  UNL     1       3.460   3.783  19.876  0.00  0.00    +0.000 A 
ATOM     10  N   UNL     1       2.714   4.852  20.246  0.00  0.00    +0.000 NA
ATOM     11  C   UNL     1       2.824   5.957  19.477  0.00  0.00    +0.000 A 
ATOM     12  C   UNL     1       3.634   6.043  18.353  0.00  0.00    +0.000 A 
ATOM     13  F   UNL     1       3.629   7.190  17.659  0.00  0.00    +0.000 F 
BRANCH   9  14
ATOM     14  C   UNL     1       3.345   2.545  20.735  0.00  0.00    +0.000 C 
BRANCH  14  15
ATOM     15  O   UNL     1       2.660   2.840  21.949  0.00  0.00    +0.000 OA
ATOM     16  H   UNL     1       1.734   2.569  21.794  0.00  0.00    +0.000 HD
ENDBRANCH  14  15
ENDBRANCH   9  14
ENDBRANCH   4   7
BRANCH   1  18
ATOM     17  C   UNL     1       7.350   4.589  12.380  0.00  0.00    +0.000 C 
ATOM     18  O   UNL     1       7.896   5.265  13.509  0.00  0.00    +0.000 OA
ENDBRANCH   1  18
BRANCH   5  19
ATOM     19  O   UNL     1       7.010   6.380  17.963  0.00  0.00    +0.000 OA
ATOM     20  C   UNL     1       7.603   7.656  17.711  0.00  0.00    +0.000 C 
ENDBRANCH   5  19
TORSDOF 5
ENDMDL
MODEL 3
REMARK VINA RESULT:      -6.8      1.990      2.372
REMARK  Name = 
REMARK  7 active torsions:
REMARK  status: ('A' for Active; 'I' for Inactive)
REMARK    1  A    between atoms: C_1  and  O_2
REMARK    2  A    between atoms: O_2  and  C_3
REMARK    3  A    between atoms: C_6  and  C_7
REMARK    4  A    between atoms: CA_9  and  C_10
REMARK    5  A    between atoms: C_10  and  O_11
REMARK    6  A    between atoms: C_16  and  O_17
REMARK    7  A    between atoms: O_17  and  C_18
REMARK                            x       y       z     vdW  Elec       q    Type
REMARK                         _______ _______ _______ _____ _____    ______ ____
ROOT
ATOM      1  C   UNL     1       6.919   5.156  15.640  0.00  0.00    +0.000 A 
ATOM      2  C   UNL     1       5.610   5.200  15.220  0.00  0.00    +0.000 A 
ATOM      3  C   UNL     1       4.610   5.164  16.193  0.00  0.00    +0.000 A 
ATOM      4  C   UNL     1       4.912   5.066  17.567  0.00  0.00    +0.000 A 
ATOM      5  C   UNL     1       6.289   5.024  17.860  0.00  0.00    +0.000 A 
ATOM      6  N   UNL     1       7.274   5.067  16.929  0.00  0.00    +0.000 NA
ENDROOT
BRANCH   4   7
ATOM      7  C   UNL     1       3.813   5.050  18.576  0.00  0.00    +0.000 A 
ATOM      8  C   UNL     1       3.410   3.871  19.231  0.00  0.00    +0.000 A 
ATOM      9  CA  UNL     1       2.410   3.901  20.212  0.00  0.00    +0.000 A 
ATOM     10  N   UNL     1       1.796   5.046  20.599  0.00  0.00    +0.000 NA
ATOM     11  C   UNL     1       2.186   6.178  19.974  0.00  0.00    +0.000 A 
ATOM     12  C   UNL     1       3.149   6.221  18.975  0.00  0.00    +0.000 A 
ATOM     13  F   UNL     1       3.423   7.407  18.414  0.00  0.00    +0.000 F 
BRANCH   9  14
ATOM     14  C   UNL     1       1.982   2.631  20.911  0.00  0.00    +0.000 C 
BRANCH  14  15
ATOM     15  O   UNL     1       2.688   2.474  22.139  0.00  0.00    +0.000 OA
ATOM     16  H   UNL     1       2.216   3.039  22.781  0.00  0.00    +0.000 HD
ENDBRANCH  14  15
ENDBRANCH   9  14
ENDBRANCH   4   7
BRANCH   1  18
ATOM     17  C   UNL     1       7.393   4.898  13.372  0.00  0.00    +0.000 C 
ATOM     18  O   UNL     1       7.896   5.211  14.668  0.00  0.00    +0.000 OA
ENDBRANCH   1  18
BRANCH   5  19
ATOM     19  O   UNL     1       6.695   4.946  19.180  0.00  0.00    +0.000 OA
ATOM     20  C   UNL     1       7.851   5.734  19.468  0.00  0.00    +0.000 C 
ENDBRANCH   5  19
TORSDOF 5
ENDMDL
MODEL 4
REMARK VINA RESULT:      -6.7      2.112      6.315
REMARK  Name = 
REMARK  7 active torsions:
REMARK  status: ('A' for Active; 'I' for Inactive)
REMARK    1  A    between atoms: C_1  and  O_2
REMARK    2  A    between atoms: O_2  and  C_3
REMARK    3  A    between atoms: C_6  and  C_7
REMARK    4  A    between atoms: CA_9  and  C_10
REMARK    5  A    between atoms: C_10  and  O_11
REMARK    6  A    between atoms: C_16  and  O_17
REMARK    7  A    between atoms: O_17  and  C_18
REMARK                            x       y       z     vdW  Elec       q    Type
REMARK                         _______ _______ _______ _____ _____    ______ ____
ROOT
ATOM      1  C   UNL     1       2.104   3.094  19.728  0.00  0.00    +0.000 A 
ATOM      2  C   UNL     1       3.290   2.399  19.686  0.00  0.00    +0.000 A 
ATOM      3  C   UNL     1       4.337   2.937  18.935  0.00  0.00    +0.000 A 
ATOM      4  C   UNL     1       4.194   4.143  18.219  0.00  0.00    +0.000 A 
ATOM      5  C   UNL     1       2.929   4.750  18.342  0.00  0.00    +0.000 A 
ATOM      6  N   UNL     1       1.905   4.246  19.074  0.00  0.00    +0.000 NA
ENDROOT
BRANCH   4   7
ATOM      7  C   UNL     1       5.344   4.693  17.444  0.00  0.00    +0.000 A 
ATOM      8  C   UNL     1       5.535   4.410  16.079  0.00  0.00    +0.000 A 
ATOM      9  CA  UNL     1       6.597   4.986  15.368  0.00  0.00    +0.000 A 
ATOM     10  N   UNL     1       7.474   5.851  15.933  0.00  0.00    +0.000 NA
ATOM     11  C   UNL     1       7.288   6.126  17.242  0.00  0.00    +0.000 A 
ATOM     12  C   UNL     1       6.278   5.572  18.016  0.00  0.00    +0.000 A 
ATOM     13  F   UNL     1       6.222   5.906  19.312  0.00  0.00    +0.000 F 
BRANCH   9  14
ATOM     14  C   UNL     1       6.796   4.678  13.901  0.00  0.00    +0.000 C 
BRANCH  14  15
ATOM     15  O   UNL     1       7.818   5.504  13.350  0.00  0.00    +0.000 OA
ATOM     16  H   UNL     1       7.382   6.357  13.157  0.00  0.00    +0.000 HD
ENDBRANCH  14  15
ENDBRANCH   9  14
ENDBRANCH   4   7
BRANCH   1  18
ATOM     17  C   UNL     1       1.415   2.497  21.874  0.00  0.00    +0.000 C 
ATOM     18  O   UNL     1       1.086   2.559  20.489  0.00  0.00    +0.000 OA
ENDBRANCH   1  18
BRANCH   5  19
ATOM     19  O   UNL     1       2.690   5.947  17.694  0.00  0.00    +0.000 OA
ATOM     20  C   UNL     1       2.709   7.080  18.564  0.00  0.00    +0.000 C 
ENDBRANCH   5  19
TORSDOF 5
ENDMDL
MODEL 5
REMARK VINA RESULT:      -6.7      2.141      6.273
REMARK  Name = 
REMARK  7 active torsions:
REMARK  status: ('A' for Active; 'I' for Inactive)
REMARK    1  A    between atoms: C_1  and  O_2
REMARK    2  A    between atoms: O_2  and  C_3
REMARK    3  A    between atoms: C_6  and  C_7
REMARK    4  A    between atoms: CA_9  and  C_10
REMARK    5  A    between atoms: C_10  and  O_11
REMARK    6  A    between atoms: C_16  and  O_17
REMARK    7  A    between atoms: O_17  and  C_18
REMARK                            x       y       z     vdW  Elec       q    Type
REMARK                         _______ _______ _______ _____ _____    ______ ____
ROOT
ATOM      1  C   UNL     1       1.974   3.002  19.100  0.00  0.00    +0.000 A 
ATOM      2  C   UNL     1       2.882   2.069  18.656  0.00  0.00    +0.000 A 
ATOM      3  C   UNL     1       3.935   2.513  17.854  0.00  0.00    +0.000 A 
ATOM      4  C   UNL     1       4.070   3.867  17.486  0.00  0.00    +0.000 A 
ATOM      5  C   UNL     1       3.072   4.715  18.003  0.00  0.00    +0.000 A 
ATOM      6  N   UNL     1       2.047   4.303  18.790  0.00  0.00    +0.000 NA
ENDROOT
BRANCH   4   7
ATOM      7  C   UNL     1       5.222   4.302  16.644  0.00  0.00    +0.000 A 
ATOM      8  C   UNL     1       5.295   4.022  15.267  0.00  0.00    +0.000 A 
ATOM      9  CA  UNL     1       6.366   4.491  14.494  0.00  0.00    +0.000 A 
ATOM     10  N   UNL     1       7.366   5.247  15.009  0.00  0.00    +0.000 NA
ATOM     11  C   UNL     1       7.293   5.520  16.330  0.00  0.00    +0.000 A 
ATOM     12  C   UNL     1       6.279   5.067  17.162  0.00  0.00    +0.000 A 
ATOM     13  F   UNL     1       6.341   5.384  18.463  0.00  0.00    +0.000 F 
BRANCH   9  14
ATOM     14  C   UNL     1       6.439   4.186  13.015  0.00  0.00    +0.000 C 
BRANCH  14  15
ATOM     15  O   UNL     1       6.367   2.781  12.789  0.00  0.00    +0.000 OA
ATOM     16  H   UNL     1       7.288   2.501  12.622  0.00  0.00    +0.000 HD
ENDBRANCH  14  15
ENDBRANCH   9  14
ENDBRANCH   4   7
BRANCH   1  18
ATOM     17  C   UNL     1       1.233   2.716  21.293  0.00  0.00    +0.000 C 
ATOM     18  O   UNL     1       0.949   2.551  19.906  0.00  0.00    +0.000 OA
ENDBRANCH   1  18
BRANCH   5  19
ATOM     19  O   UNL     1       3.121   6.067  17.717  0.00  0.00    +0.000 OA
ATOM     20  C   UNL     1       2.861   6.900  18.848  0.00  0.00    +0.000 C 
ENDBRANCH   5  19
TORSDOF 5
ENDMDL
MODEL 6
REMARK VINA RESULT:      -6.7      2.126      5.946
REMARK  Name = 
REMARK  7 active torsions:
REMARK  status: ('A' for Active; 'I' for Inactive)
REMARK    1  A    between atoms: C_1  and  O_2
REMARK    2  A    between atoms: O_2  and  C_3
REMARK    3  A    between atoms: C_6  and  C_7
REMARK    4  A    between atoms: CA_9  and  C_10
REMARK    5  A    between atoms: C_10  and  O_11
REMARK    6  A    between atoms: C_16  and  O_17
REMARK    7  A    between atoms: O_17  and  C_18
REMARK                            x       y       z     vdW  Elec       q    Type
REMARK                         _______ _______ _______ _____ _____    ______ ____
ROOT
ATOM      1  C   UNL     1       2.070   3.456  19.817  0.00  0.00    +0.000 A 
ATOM      2  C   UNL     1       3.238   2.744  19.666  0.00  0.00    +0.000 A 
ATOM      3  C   UNL     1       4.258   3.315  18.903  0.00  0.00    +0.000 A 
ATOM      4  C   UNL     1       4.108   4.573  18.283  0.00  0.00    +0.000 A 
ATOM      5  C   UNL     1       2.864   5.192  18.513  0.00  0.00    +0.000 A 
ATOM      6  N   UNL     1       1.866   4.656  19.258  0.00  0.00    +0.000 NA
ENDROOT
BRANCH   4   7
ATOM      7  C   UNL     1       5.230   5.155  17.493  0.00  0.00    +0.000 A 
ATOM      8  C   UNL     1       6.012   6.223  17.970  0.00  0.00    +0.000 A 
ATOM      9  CA  UNL     1       7.093   6.712  17.224  0.00  0.00    +0.000 A 
ATOM     10  N   UNL     1       7.460   6.183  16.031  0.00  0.00    +0.000 NA
ATOM     11  C   UNL     1       6.713   5.154  15.575  0.00  0.00    +0.000 A 
ATOM     12  C   UNL     1       5.612   4.637  16.245  0.00  0.00    +0.000 A 
ATOM     13  F   UNL     1       4.938   3.633  15.667  0.00  0.00    +0.000 F 
BRANCH   9  14
ATOM     14  C   UNL     1       7.929   7.860  17.743  0.00  0.00    +0.000 C 
BRANCH  14  15
ATOM     15  O   UNL     1       8.585   7.494  18.954  0.00  0.00    +0.000 OA
ATOM     16  H   UNL     1       8.093   7.955  19.661  0.00  0.00    +0.000 HD
ENDBRANCH  14  15
ENDBRANCH   9  14
ENDBRANCH   4   7
BRANCH   1  18
ATOM     17  C   UNL     1       1.547   2.497  21.877  0.00  0.00    +0.000 C 
ATOM     18  O   UNL     1       1.079   2.887  20.588  0.00  0.00    +0.000 OA
ENDBRANCH   1  18
BRANCH   5  19
ATOM     19  O   UNL     1       2.620   6.437  17.964  0.00  0.00    +0.000 OA
ATOM     20  C   UNL     1       2.386   7.455  18.940  0.00  0.00    +0.000 C 
ENDBRANCH   5  19
TORSDOF 5
ENDMDL
MODEL 7
REMARK VINA RESULT:      -6.6      2.013      2.405
REMARK  Name = 
REMARK  7 active torsions:
REMARK  status: ('A' for Active; 'I' for Inactive)
REMARK    1  A    between atoms: C_1  and  O_2
REMARK    2  A    between atoms: O_2  and  C_3
REMARK    3  A    between atoms: C_6  and  C_7
REMARK    4  A    between atoms: CA_9  and  C_10
REMARK    5  A    between atoms: C_10  and  O_11
REMARK    6  A    between atoms: C_16  and  O_17
REMARK    7  A    between atoms: O_17  and  C_18
REMARK                            x       y       z     vdW  Elec       q    Type
REMARK                         _______ _______ _______ _____ _____    ______ ____
ROOT
ATOM      1  C   UNL     1       7.125   5.114  15.087  0.00  0.00    +0.000 A 
ATOM      2  C   UNL     1       5.824   5.252  14.662  0.00  0.00    +0.000 A 
ATOM      3  C   UNL     1       4.811   5.159  15.617  0.00  0.00    +0.000 A 
ATOM      4  C   UNL     1       5.092   4.914  16.977  0.00  0.00    +0.000 A 
ATOM      5  C   UNL     1       6.462   4.789  17.277  0.00  0.00    +0.000 A 
ATOM      6  N   UNL     1       7.459   4.884  16.363  0.00  0.00    +0.000 NA
ENDROOT
BRANCH   4   7
ATOM      7  C   UNL     1       3.980   4.842  17.969  0.00  0.00    +0.000 A 
ATOM      8  C   UNL     1       3.418   3.620  18.382  0.00  0.00    +0.000 A 
ATOM      9  CA  UNL     1       2.410   3.586  19.356  0.00  0.00    +0.000 A 
ATOM     10  N   UNL     1       1.940   4.702  19.965  0.00  0.00    +0.000 NA
ATOM     11  C   UNL     1       2.484   5.874  19.572  0.00  0.00    +0.000 A 
ATOM     12  C   UNL     1       3.463   5.988  18.595  0.00  0.00    +0.000 A 
ATOM     13  F   UNL     1       3.897   7.216  18.277  0.00  0.00    +0.000 F 
BRANCH   9  14
ATOM     14  C   UNL     1       1.811   2.269  19.794  0.00  0.00    +0.000 C 
BRANCH  14  15
ATOM     15  O   UNL     1       1.721   1.369  18.694  0.00  0.00    +0.000 OA
ATOM     16  H   UNL     1       1.768   1.932  17.897  0.00  0.00    +0.000 HD
ENDBRANCH  14  15
ENDBRANCH   9  14
ENDBRANCH   4   7
BRANCH   1  18
ATOM     17  C   UNL     1       7.624   5.022  12.811  0.00  0.00    +0.000 C 
ATOM     18  O   UNL     1       8.115   5.226  14.133  0.00  0.00    +0.000 OA
ENDBRANCH   1  18
BRANCH   5  19
ATOM     19  O   UNL     1       6.848   4.564  18.585  0.00  0.00    +0.000 OA
ATOM     20  C   UNL     1       7.434   5.708  19.211  0.00  0.00    +0.000 C 
ENDBRANCH   5  19
TORSDOF 5
ENDMDL
MODEL 8
REMARK VINA RESULT:      -6.5      1.392      1.544
REMARK  Name = 
REMARK  7 active torsions:
REMARK  status: ('A' for Active; 'I' for Inactive)
REMARK    1  A    between atoms: C_1  and  O_2
REMARK    2  A    between atoms: O_2  and  C_3
REMARK    3  A    between atoms: C_6  and  C_7
REMARK    4  A    between atoms: CA_9  and  C_10
REMARK    5  A    between atoms: C_10  and  O_11
REMARK    6  A    between atoms: C_16  and  O_17
REMARK    7  A    between atoms: O_17  and  C_18
REMARK                            x       y       z     vdW  Elec       q    Type
REMARK                         _______ _______ _______ _____ _____    ______ ____
ROOT
ATOM      1  C   UNL     1       7.008   5.183  14.856  0.00  0.00    +0.000 A 
ATOM      2  C   UNL     1       5.818   4.500  14.762  0.00  0.00    +0.000 A 
ATOM      3  C   UNL     1       4.955   4.535  15.859  0.00  0.00    +0.000 A 
ATOM      4  C   UNL     1       5.286   5.230  17.041  0.00  0.00    +0.000 A 
ATOM      5  C   UNL     1       6.534   5.881  17.007  0.00  0.00    +0.000 A 
ATOM      6  N   UNL     1       7.379   5.864  15.947  0.00  0.00    +0.000 NA
ENDROOT
BRANCH   4   7
ATOM      7  C   UNL     1       4.327   5.259  18.183  0.00  0.00    +0.000 A 
ATOM      8  C   UNL     1       3.594   6.412  18.521  0.00  0.00    +0.000 A 
ATOM      9  CA  UNL     1       2.662   6.390  19.568  0.00  0.00    +0.000 A 
ATOM     10  N   UNL     1       2.397   5.274  20.290  0.00  0.00    +0.000 NA
ATOM     11  C   UNL     1       3.097   4.166  19.963  0.00  0.00    +0.000 A 
ATOM     12  C   UNL     1       4.054   4.121  18.959  0.00  0.00    +0.000 A 
ATOM     13  F   UNL     1       4.700   2.964  18.755  0.00  0.00    +0.000 F 
BRANCH   9  14
ATOM     14  C   UNL     1       1.878   7.632  19.925  0.00  0.00    +0.000 C 
BRANCH  14  15
ATOM     15  O   UNL     1       1.693   7.719  21.336  0.00  0.00    +0.000 OA
ATOM     16  H   UNL     1       2.243   8.475  21.620  0.00  0.00    +0.000 HD
ENDBRANCH  14  15
ENDBRANCH   9  14
ENDBRANCH   4   7
BRANCH   1  18
ATOM     17  C   UNL     1       7.214   4.576  12.613  0.00  0.00    +0.000 C 
ATOM     18  O   UNL     1       7.841   5.152  13.756  0.00  0.00    +0.000 OA
ENDBRANCH   1  18
BRANCH   5  19
ATOM     19  O   UNL     1       6.945   6.606  18.110  0.00  0.00    +0.000 OA
ATOM     20  C   UNL     1       7.797   5.870  18.990  0.00  0.00    +0.000 C 
ENDBRANCH   5  19
TORSDOF 5
ENDMDL
MODEL 9
REMARK VINA RESULT:      -6.4      2.148      6.157
REMARK  Name = 
REMARK  7 active torsions:
REMARK  status: ('A' for Active; 'I' for Inactive)
REMARK    1  A    between atoms: C_1  and  O_2
REMARK    2  A    between atoms: O_2  and  C_3
REMARK    3  A    between atoms: C_6  and  C_7
REMARK    4  A    between atoms: CA_9  and  C_10
REMARK    5  A    between atoms: C_10  and  O_11
REMARK    6  A    between atoms: C_16  and  O_17
REMARK    7  A    between atoms: O_17  and  C_18
REMARK                            x       y       z     vdW  Elec       q    Type
REMARK                         _______ _______ _______ _____ _____    ______ ____
ROOT
ATOM      1  C   UNL     1       1.821   3.707  19.568  0.00  0.00    +0.000 A 
ATOM      2  C   UNL     1       1.673   4.622  18.552  0.00  0.00    +0.000 A 
ATOM      3  C   UNL     1       2.807   4.972  17.817  0.00  0.00    +0.000 A 
ATOM      4  C   UNL     1       4.076   4.429  18.106  0.00  0.00    +0.000 A 
ATOM      5  C   UNL     1       4.089   3.509  19.172  0.00  0.00    +0.000 A 
ATOM      6  N   UNL     1       2.997   3.152  19.890  0.00  0.00    +0.000 NA
ENDROOT
BRANCH   4   7
ATOM      7  C   UNL     1       5.259   4.815  17.283  0.00  0.00    +0.000 A 
ATOM      8  C   UNL     1       5.408   4.412  15.943  0.00  0.00    +0.000 A 
ATOM      9  CA  UNL     1       6.506   4.837  15.183  0.00  0.00    +0.000 A 
ATOM     10  N   UNL     1       7.462   5.664  15.673  0.00  0.00    +0.000 NA
ATOM     11  C   UNL     1       7.317   6.055  16.958  0.00  0.00    +0.000 A 
ATOM     12  C   UNL     1       6.272   5.652  17.779  0.00  0.00    +0.000 A 
ATOM     13  F   UNL     1       6.261   6.089  19.046  0.00  0.00    +0.000 F 
BRANCH   9  14
ATOM     14  C   UNL     1       6.660   4.400  13.744  0.00  0.00    +0.000 C 
BRANCH  14  15
ATOM     15  O   UNL     1       6.159   3.078  13.566  0.00  0.00    +0.000 OA
ATOM     16  H   UNL     1       5.303   3.062  14.036  0.00  0.00    +0.000 HD
ENDBRANCH  14  15
ENDBRANCH   9  14
ENDBRANCH   4   7
BRANCH   1  18
ATOM     17  C   UNL     1       0.989   2.733  21.517  0.00  0.00    +0.000 C 
ATOM     18  O   UNL     1       0.688   3.358  20.273  0.00  0.00    +0.000 OA
ENDBRANCH   1  18
BRANCH   5  19
ATOM     19  O   UNL     1       5.282   2.905  19.525  0.00  0.00    +0.000 OA
ATOM     20  C   UNL     1       5.121   1.818  20.439  0.00  0.00    +0.000 C 
ENDBRANCH   5  19
TORSDOF 5
ENDMDL
