MODEL 1
REMARK VINA RESULT:      -8.5      0.000      0.000
REMARK  Name = 
REMARK  8 active torsions:
REMARK  status: ('A' for Active; 'I' for Inactive)
REMARK    1  A    between atoms: N_1  and  C_2
REMARK    2  A    between atoms: C_2  and  C_3
REMARK    3  A    between atoms: N_5  and  C_6
REMARK    4  A    between atoms: C_13  and  C_14
REMARK    5  A    between atoms: C_14  and  O_16
REMARK    6  A    between atoms: N_18  and  C_19
REMARK    7  A    between atoms: C_26  and  C_27
REMARK    8  A    between atoms: C_30  and  N_31
REMARK                            x       y       z     vdW  Elec       q    Type
REMARK                         _______ _______ _______ _____ _____    ______ ____
ROOT
ATOM      1  C   UNL     1       1.367   9.264  19.000  0.00  0.00    +0.000 A 
ATOM      2  C   UNL     1       2.243   9.595  17.949  0.00  0.00    +0.000 A 
ATOM      3  F   UNL     1       2.196  10.801  17.359  0.00  0.00    +0.000 F 
ATOM      4  C   UNL     1       3.182   8.706  17.446  0.00  0.00    +0.000 A 
ATOM      5  C   UNL     1       3.300   7.437  18.007  0.00  0.00    +0.000 A 
ATOM      6  C   UNL     1       4.299   6.506  17.440  0.00  0.00    +0.000 A 
ATOM      7  O   UNL     1       5.022   6.833  16.502  0.00  0.00    +0.000 OA
ATOM      8  C   UNL     1       4.404   5.154  18.020  0.00  0.00    +0.000 A 
ATOM      9  C   UNL     1       3.582   4.864  19.039  0.00  0.00    +0.000 A 
ATOM     10  N   UNL     1       2.667   5.722  19.624  0.00  0.00    +0.000 N 
ATOM     11  C   UNL     1       2.497   7.038  19.086  0.00  0.00    +0.000 A 
ATOM     12  C   UNL     1       1.558   7.977  19.570  0.00  0.00    +0.000 A 
ATOM     13  F   UNL     1       0.813   7.645  20.640  0.00  0.00    +0.000 F 
ENDROOT
BRANCH   1  16
ATOM     14  C   UNL     1      -1.346  11.624  18.811  0.00  0.00    +0.000 C 
ATOM     15  C   UNL     1      -0.958  10.147  18.883  0.00  0.00    +0.000 C 
ATOM     16  N   UNL     1       0.387  10.138  19.468  0.00  0.00    +0.000 N 
ATOM     17  C   UNL     1       0.705  11.444  20.062  0.00  0.00    +0.000 C 
ATOM     18  C   UNL     1      -0.603  12.258  20.009  0.00  0.00    +0.000 C 
BRANCH  18  19
ATOM     19  C   UNL     1      -1.410  12.293  21.291  0.00  0.00    +0.000 A 
ATOM     20  C   UNL     1      -2.469  13.209  21.388  0.00  0.00    +0.000 A 
ATOM     21  C   UNL     1      -3.347  13.171  22.473  0.00  0.00    +0.000 A 
ATOM     22  C   UNL     1      -3.153  12.264  23.512  0.00  0.00    +0.000 A 
ATOM     23  C   UNL     1      -2.101  11.350  23.416  0.00  0.00    +0.000 A 
ATOM     24  C   UNL     1      -1.223  11.376  22.330  0.00  0.00    +0.000 A 
BRANCH  22  25
ATOM     25  N   UNL     1      -4.134  12.106  24.498  0.00  0.00    +0.000 N 
ATOM     26  H   UNL     1      -5.079  12.063  24.132  0.00  0.00    +0.000 HD
ATOM     27  H   UNL     1      -4.044  12.756  25.272  0.00  0.00    +0.000 HD
ENDBRANCH  22  25
ENDBRANCH  18  19
BRANCH  14  28
ATOM     28  C   UNL     1      -2.860  11.844  18.752  0.00  0.00    +0.000 C 
BRANCH  28  29
ATOM     29  N   UNL     1      -3.359  11.840  17.377  0.00  0.00    +0.000 NA
ATOM     30  H   UNL     1      -4.373  11.719  17.398  0.00  0.00    +0.000 HD
ATOM     31  H   UNL     1      -3.005  11.021  16.883  0.00  0.00    +0.000 HD
ENDBRANCH  28  29
ENDBRANCH  14  28
ENDBRANCH   1  16
BRANCH  10  32
ATOM     32  C   UNL     1       1.767   5.203  20.677  0.00  0.00    +0.000 C 
ATOM     33  C   UNL     1       0.995   3.908  20.613  0.00  0.00    +0.000 C 
ATOM     34  C   UNL     1       2.192   4.012  21.502  0.00  0.00    +0.000 C 
ENDBRANCH  10  32
BRANCH   8  35
ATOM     35  C   UNL     1       5.354   4.134  17.535  0.00  0.00    +0.000 C 
ATOM     36  O   UNL     1       5.163   3.462  16.535  0.00  0.00    +0.000 OA
BRANCH  35  37
ATOM     37  O   UNL     1       6.462   3.988  18.299  0.00  0.00    +0.000 OA
ATOM     38  H   UNL     1       6.280   3.934  19.270  0.00  0.00    +0.000 HD
ENDBRANCH  35  37
ENDBRANCH   8  35
TORSDOF 8
ENDMDL
MODEL 2
REMARK VINA RESULT:      -8.4      2.514      4.530
REMARK  Name = 
REMARK  8 active torsions:
REMARK  status: ('A' for Active; 'I' for Inactive)
REMARK    1  A    between atoms: N_1  and  C_2
REMARK    2  A    between atoms: C_2  and  C_3
REMARK    3  A    between atoms: N_5  and  C_6
REMARK    4  A    between atoms: C_13  and  C_14
REMARK    5  A    between atoms: C_14  and  O_16
REMARK    6  A    between atoms: N_18  and  C_19
REMARK    7  A    between atoms: C_26  and  C_27
REMARK    8  A    between atoms: C_30  and  N_31
REMARK                            x       y       z     vdW  Elec       q    Type
REMARK                         _______ _______ _______ _____ _____    ______ ____
ROOT
ATOM      1  C   UNL     1       1.522   8.336  19.860  0.00  0.00    +0.000 A 
ATOM      2  C   UNL     1       0.972   7.444  20.801  0.00  0.00    +0.000 A 
ATOM      3  F   UNL     1       0.065   7.855  21.701  0.00  0.00    +0.000 F 
ATOM      4  C   UNL     1       1.341   6.108  20.873  0.00  0.00    +0.000 A 
ATOM      5  C   UNL     1       2.272   5.600  19.971  0.00  0.00    +0.000 A 
ATOM      6  C   UNL     1       2.658   4.177  20.081  0.00  0.00    +0.000 A 
ATOM      7  O   UNL     1       2.170   3.445  20.940  0.00  0.00    +0.000 OA
ATOM      8  C   UNL     1       3.662   3.648  19.141  0.00  0.00    +0.000 A 
ATOM      9  C   UNL     1       4.155   4.504  18.233  0.00  0.00    +0.000 A 
ATOM     10  N   UNL     1       3.787   5.828  18.070  0.00  0.00    +0.000 N 
ATOM     11  C   UNL     1       2.838   6.408  18.973  0.00  0.00    +0.000 A 
ATOM     12  C   UNL     1       2.429   7.760  18.932  0.00  0.00    +0.000 A 
ATOM     13  F   UNL     1       2.911   8.546  17.952  0.00  0.00    +0.000 F 
ENDROOT
BRANCH   1  16
ATOM     14  C   UNL     1      -0.192  11.365  20.784  0.00  0.00    +0.000 C 
ATOM     15  C   UNL     1       1.005  10.454  21.062  0.00  0.00    +0.000 C 
ATOM     16  N   UNL     1       1.191   9.689  19.824  0.00  0.00    +0.000 N 
ATOM     17  C   UNL     1       0.433  10.294  18.719  0.00  0.00    +0.000 C 
ATOM     18  C   UNL     1      -0.108  11.630  19.264  0.00  0.00    +0.000 C 
BRANCH  18  19
ATOM     19  C   UNL     1       0.689  12.864  18.894  0.00  0.00    +0.000 A 
ATOM     20  C   UNL     1       0.037  14.107  18.903  0.00  0.00    +0.000 A 
ATOM     21  C   UNL     1       0.757  15.291  18.734  0.00  0.00    +0.000 A 
ATOM     22  C   UNL     1       2.129  15.259  18.490  0.00  0.00    +0.000 A 
ATOM     23  C   UNL     1       2.779  14.023  18.483  0.00  0.00    +0.000 A 
ATOM     24  C   UNL     1       2.067  12.835  18.660  0.00  0.00    +0.000 A 
BRANCH  22  25
ATOM     25  N   UNL     1       2.872  16.445  18.507  0.00  0.00    +0.000 N 
ATOM     26  H   UNL     1       2.563  17.113  19.205  0.00  0.00    +0.000 HD
ATOM     27  H   UNL     1       2.992  16.865  17.591  0.00  0.00    +0.000 HD
ENDBRANCH  22  25
ENDBRANCH  18  19
BRANCH  14  28
ATOM     28  C   UNL     1      -0.230  12.597  21.692  0.00  0.00    +0.000 C 
BRANCH  28  29
ATOM     29  N   UNL     1      -0.714  12.272  23.034  0.00  0.00    +0.000 NA
ATOM     30  H   UNL     1      -1.728  12.160  22.997  0.00  0.00    +0.000 HD
ATOM     31  H   UNL     1      -0.558  13.064  23.658  0.00  0.00    +0.000 HD
ENDBRANCH  28  29
ENDBRANCH  14  28
ENDBRANCH   1  16
BRANCH  10  32
ATOM     32  C   UNL     1       4.507   6.657  17.080  0.00  0.00    +0.000 C 
ATOM     33  C   UNL     1       6.006   6.717  16.908  0.00  0.00    +0.000 C 
ATOM     34  C   UNL     1       5.173   5.997  15.896  0.00  0.00    +0.000 C 
ENDBRANCH  10  32
BRANCH   8  35
ATOM     35  C   UNL     1       4.135   2.250  19.157  0.00  0.00    +0.000 C 
ATOM     36  O   UNL     1       3.730   1.396  18.387  0.00  0.00    +0.000 OA
BRANCH  35  37
ATOM     37  O   UNL     1       5.056   1.979  20.112  0.00  0.00    +0.000 OA
ATOM     38  H   UNL     1       4.788   2.254  21.023  0.00  0.00    +0.000 HD
ENDBRANCH  35  37
ENDBRANCH   8  35
TORSDOF 8
ENDMDL
MODEL 3
REMARK VINA RESULT:      -8.1      3.886      9.365
REMARK  Name = 
REMARK  8 active torsions:
REMARK  status: ('A' for Active; 'I' for Inactive)
REMARK    1  A    between atoms: N_1  and  C_2
REMARK    2  A    between atoms: C_2  and  C_3
REMARK    3  A    between atoms: N_5  and  C_6
REMARK    4  A    between atoms: C_13  and  C_14
REMARK    5  A    between atoms: C_14  and  O_16
REMARK    6  A    between atoms: N_18  and  C_19
REMARK    7  A    between atoms: C_26  and  C_27
REMARK    8  A    between atoms: C_30  and  N_31
REMARK                            x       y       z     vdW  Elec       q    Type
REMARK                         _______ _______ _______ _____ _____    ______ ____
ROOT
ATOM      1  C   UNL     1       1.986   7.332  19.746  0.00  0.00    +0.000 A 
ATOM      2  C   UNL     1       1.439   6.984  20.996  0.00  0.00    +0.000 A 
ATOM      3  F   UNL     1       1.551   5.737  21.481  0.00  0.00    +0.000 F 
ATOM      4  C   UNL     1       0.740   7.885  21.787  0.00  0.00    +0.000 A 
ATOM      5  C   UNL     1       0.585   9.201  21.359  0.00  0.00    +0.000 A 
ATOM      6  C   UNL     1      -0.177  10.136  22.215  0.00  0.00    +0.000 A 
ATOM      7  O   UNL     1      -0.660   9.776  23.287  0.00  0.00    +0.000 OA
ATOM      8  C   UNL     1      -0.361  11.522  21.748  0.00  0.00    +0.000 A 
ATOM      9  C   UNL     1       0.190  11.845  20.569  0.00  0.00    +0.000 A 
ATOM     10  N   UNL     1       0.946  11.012  19.763  0.00  0.00    +0.000 N 
ATOM     11  C   UNL     1       1.135   9.645  20.147  0.00  0.00    +0.000 A 
ATOM     12  C   UNL     1       1.843   8.695  19.377  0.00  0.00    +0.000 A 
ATOM     13  F   UNL     1       2.430   9.104  18.238  0.00  0.00    +0.000 F 
ENDROOT
BRANCH   1  16
ATOM     14  C   UNL     1       2.673   4.146  18.215  0.00  0.00    +0.000 C 
ATOM     15  C   UNL     1       1.883   5.451  18.118  0.00  0.00    +0.000 C 
ATOM     16  N   UNL     1       2.639   6.412  18.929  0.00  0.00    +0.000 N 
ATOM     17  C   UNL     1       3.983   5.896  19.227  0.00  0.00    +0.000 C 
ATOM     18  C   UNL     1       4.136   4.614  18.386  0.00  0.00    +0.000 C 
BRANCH  18  19
ATOM     19  C   UNL     1       4.894   4.766  17.082  0.00  0.00    +0.000 A 
ATOM     20  C   UNL     1       5.071   6.056  16.559  0.00  0.00    +0.000 A 
ATOM     21  C   UNL     1       5.899   6.271  15.456  0.00  0.00    +0.000 A 
ATOM     22  C   UNL     1       6.515   5.200  14.812  0.00  0.00    +0.000 A 
ATOM     23  C   UNL     1       6.342   3.916  15.332  0.00  0.00    +0.000 A 
ATOM     24  C   UNL     1       5.522   3.693  16.441  0.00  0.00    +0.000 A 
BRANCH  22  25
ATOM     25  N   UNL     1       7.484   5.436  13.830  0.00  0.00    +0.000 N 
ATOM     26  H   UNL     1       8.288   5.956  14.163  0.00  0.00    +0.000 HD
ATOM     27  H   UNL     1       7.107   5.813  12.966  0.00  0.00    +0.000 HD
ENDBRANCH  22  25
ENDBRANCH  18  19
BRANCH  14  28
ATOM     28  C   UNL     1       2.393   3.188  17.054  0.00  0.00    +0.000 C 
BRANCH  28  29
ATOM     29  N   UNL     1       2.161   1.820  17.519  0.00  0.00    +0.000 NA
ATOM     30  H   UNL     1       2.099   1.205  16.706  0.00  0.00    +0.000 HD
ATOM     31  H   UNL     1       1.247   1.758  17.967  0.00  0.00    +0.000 HD
ENDBRANCH  28  29
ENDBRANCH  14  28
ENDBRANCH   1  16
BRANCH  10  32
ATOM     32  C   UNL     1       1.394  11.504  18.442  0.00  0.00    +0.000 C 
ATOM     33  C   UNL     1       1.285  12.927  17.951  0.00  0.00    +0.000 C 
ATOM     34  C   UNL     1       2.619  12.382  18.348  0.00  0.00    +0.000 C 
ENDBRANCH  10  32
BRANCH   8  35
ATOM     35  C   UNL     1      -1.109  12.543  22.507  0.00  0.00    +0.000 C 
ATOM     36  O   UNL     1      -0.683  13.666  22.720  0.00  0.00    +0.000 OA
BRANCH  35  37
ATOM     37  O   UNL     1      -2.315  12.132  22.966  0.00  0.00    +0.000 OA
ATOM     38  H   UNL     1      -2.865  11.661  22.293  0.00  0.00    +0.000 HD
ENDBRANCH  35  37
ENDBRANCH   8  35
TORSDOF 8
ENDMDL
MODEL 4
REMARK VINA RESULT:      -7.7      2.005      3.395
REMARK  Name = 
REMARK  8 active torsions:
REMARK  status: ('A' for Active; 'I' for Inactive)
REMARK    1  A    between atoms: N_1  and  C_2
REMARK    2  A    between atoms: C_2  and  C_3
REMARK    3  A    between atoms: N_5  and  C_6
REMARK    4  A    between atoms: C_13  and  C_14
REMARK    5  A    between atoms: C_14  and  O_16
REMARK    6  A    between atoms: N_18  and  C_19
REMARK    7  A    between atoms: C_26  and  C_27
REMARK    8  A    between atoms: C_30  and  N_31
REMARK                            x       y       z     vdW  Elec       q    Type
REMARK                         _______ _______ _______ _____ _____    ______ ____
ROOT
ATOM      1  C   UNL     1       1.226   8.512  20.131  0.00  0.00    +0.000 A 
ATOM      2  C   UNL     1       0.676   7.542  20.990  0.00  0.00    +0.000 A 
ATOM      3  F   UNL     1      -0.278   7.861  21.879  0.00  0.00    +0.000 F 
ATOM      4  C   UNL     1       1.091   6.217  20.991  0.00  0.00    +0.000 A 
ATOM      5  C   UNL     1       2.072   5.802  20.094  0.00  0.00    +0.000 A 
ATOM      6  C   UNL     1       2.505   4.389  20.128  0.00  0.00    +0.000 A 
ATOM      7  O   UNL     1       2.013   3.585  20.917  0.00  0.00    +0.000 OA
ATOM      8  C   UNL     1       3.562   3.958  19.194  0.00  0.00    +0.000 A 
ATOM      9  C   UNL     1       4.056   4.887  18.364  0.00  0.00    +0.000 A 
ATOM     10  N   UNL     1       3.646   6.206  18.273  0.00  0.00    +0.000 N 
ATOM     11  C   UNL     1       2.644   6.693  19.173  0.00  0.00    +0.000 A 
ATOM     12  C   UNL     1       2.188   8.030  19.204  0.00  0.00    +0.000 A 
ATOM     13  F   UNL     1       2.675   8.894  18.296  0.00  0.00    +0.000 F 
ENDROOT
BRANCH   1  16
ATOM     14  C   UNL     1       0.329  11.751  18.839  0.00  0.00    +0.000 C 
ATOM     15  C   UNL     1      -0.181  10.373  19.262  0.00  0.00    +0.000 C 
ATOM     16  N   UNL     1       0.848   9.852  20.169  0.00  0.00    +0.000 N 
ATOM     17  C   UNL     1       1.760  10.925  20.592  0.00  0.00    +0.000 C 
ATOM     18  C   UNL     1       1.143  12.234  20.062  0.00  0.00    +0.000 C 
BRANCH  18  19
ATOM     19  C   UNL     1       0.338  13.037  21.063  0.00  0.00    +0.000 A 
ATOM     20  C   UNL     1      -0.495  12.348  21.957  0.00  0.00    +0.000 A 
ATOM     21  C   UNL     1      -1.128  13.020  23.004  0.00  0.00    +0.000 A 
ATOM     22  C   UNL     1      -0.996  14.399  23.145  0.00  0.00    +0.000 A 
ATOM     23  C   UNL     1      -0.166  15.087  22.257  0.00  0.00    +0.000 A 
ATOM     24  C   UNL     1       0.478  14.421  21.212  0.00  0.00    +0.000 A 
BRANCH  22  25
ATOM     25  N   UNL     1      -1.477  15.037  24.295  0.00  0.00    +0.000 N 
ATOM     26  H   UNL     1      -1.233  14.563  25.158  0.00  0.00    +0.000 HD
ATOM     27  H   UNL     1      -2.461  15.277  24.247  0.00  0.00    +0.000 HD
ENDBRANCH  22  25
ENDBRANCH  18  19
BRANCH  14  28
ATOM     28  C   UNL     1      -0.787  12.679  18.351  0.00  0.00    +0.000 C 
BRANCH  28  29
ATOM     29  N   UNL     1      -1.573  12.071  17.277  0.00  0.00    +0.000 NA
ATOM     30  H   UNL     1      -1.441  12.619  16.426  0.00  0.00    +0.000 HD
ATOM     31  H   UNL     1      -2.567  12.148  17.491  0.00  0.00    +0.000 HD
ENDBRANCH  28  29
ENDBRANCH  14  28
ENDBRANCH   1  16
BRANCH  10  32
ATOM     32  C   UNL     1       4.371   7.123  17.367  0.00  0.00    +0.000 C 
ATOM     33  C   UNL     1       5.847   7.066  17.056  0.00  0.00    +0.000 C 
ATOM     34  C   UNL     1       4.858   6.621  16.028  0.00  0.00    +0.000 C 
ENDBRANCH  10  32
BRANCH   8  35
ATOM     35  C   UNL     1       4.085   2.579  19.139  0.00  0.00    +0.000 C 
ATOM     36  O   UNL     1       3.580   1.697  18.465  0.00  0.00    +0.000 OA
BRANCH  35  37
ATOM     37  O   UNL     1       5.175   2.358  19.912  0.00  0.00    +0.000 OA
ATOM     38  H   UNL     1       5.911   3.002  19.767  0.00  0.00    +0.000 HD
ENDBRANCH  35  37
ENDBRANCH   8  35
TORSDOF 8
ENDMDL
MODEL 5
REMARK VINA RESULT:      -7.6      2.615      3.822
REMARK  Name = 
REMARK  8 active torsions:
REMARK  status: ('A' for Active; 'I' for Inactive)
REMARK    1  A    between atoms: N_1  and  C_2
REMARK    2  A    between atoms: C_2  and  C_3
REMARK    3  A    between atoms: N_5  and  C_6
REMARK    4  A    between atoms: C_13  and  C_14
REMARK    5  A    between atoms: C_14  and  O_16
REMARK    6  A    between atoms: N_18  and  C_19
REMARK    7  A    between atoms: C_26  and  C_27
REMARK    8  A    between atoms: C_30  and  N_31
REMARK                            x       y       z     vdW  Elec       q    Type
REMARK                         _______ _______ _______ _____ _____    ______ ____
ROOT
ATOM      1  C   UNL     1       1.471   8.398  19.729  0.00  0.00    +0.000 A 
ATOM      2  C   UNL     1       1.002   7.584  20.777  0.00  0.00    +0.000 A 
ATOM      3  F   UNL     1       0.107   8.043  21.666  0.00  0.00    +0.000 F 
ATOM      4  C   UNL     1       1.442   6.282  20.971  0.00  0.00    +0.000 A 
ATOM      5  C   UNL     1       2.365   5.728  20.088  0.00  0.00    +0.000 A 
ATOM      6  C   UNL     1       2.827   4.344  20.328  0.00  0.00    +0.000 A 
ATOM      7  O   UNL     1       2.408   3.683  21.275  0.00  0.00    +0.000 OA
ATOM      8  C   UNL     1       3.823   3.769  19.406  0.00  0.00    +0.000 A 
ATOM      9  C   UNL     1       4.239   4.547  18.396  0.00  0.00    +0.000 A 
ATOM     10  N   UNL     1       3.797   5.828  18.114  0.00  0.00    +0.000 N 
ATOM     11  C   UNL     1       2.853   6.453  18.990  0.00  0.00    +0.000 A 
ATOM     12  C   UNL     1       2.373   7.773  18.828  0.00  0.00    +0.000 A 
ATOM     13  F   UNL     1       2.779   8.474  17.754  0.00  0.00    +0.000 F 
ENDROOT
BRANCH   1  16
ATOM     14  C   UNL     1      -0.469  11.154  18.459  0.00  0.00    +0.000 C 
ATOM     15  C   UNL     1      -0.352  10.085  19.546  0.00  0.00    +0.000 C 
ATOM     16  N   UNL     1       1.070   9.723  19.568  0.00  0.00    +0.000 N 
ATOM     17  C   UNL     1       1.870  10.713  18.832  0.00  0.00    +0.000 C 
ATOM     18  C   UNL     1       0.904  11.864  18.492  0.00  0.00    +0.000 C 
BRANCH  18  19
ATOM     19  C   UNL     1       0.956  13.065  19.416  0.00  0.00    +0.000 A 
ATOM     20  C   UNL     1       0.906  14.347  18.848  0.00  0.00    +0.000 A 
ATOM     21  C   UNL     1       0.783  15.480  19.655  0.00  0.00    +0.000 A 
ATOM     22  C   UNL     1       0.772  15.364  21.043  0.00  0.00    +0.000 A 
ATOM     23  C   UNL     1       0.821  14.089  21.610  0.00  0.00    +0.000 A 
ATOM     24  C   UNL     1       0.934  12.950  20.810  0.00  0.00    +0.000 A 
BRANCH  22  25
ATOM     25  N   UNL     1       0.465  16.475  21.837  0.00  0.00    +0.000 N 
ATOM     26  H   UNL     1       0.288  16.248  22.810  0.00  0.00    +0.000 HD
ATOM     27  H   UNL     1      -0.251  17.075  21.440  0.00  0.00    +0.000 HD
ENDBRANCH  22  25
ENDBRANCH  18  19
BRANCH  14  28
ATOM     28  C   UNL     1      -1.704  12.043  18.624  0.00  0.00    +0.000 C 
BRANCH  28  29
ATOM     29  N   UNL     1      -2.576  11.991  17.450  0.00  0.00    +0.000 NA
ATOM     30  H   UNL     1      -2.276  11.218  16.855  0.00  0.00    +0.000 HD
ATOM     31  H   UNL     1      -2.441  12.828  16.883  0.00  0.00    +0.000 HD
ENDBRANCH  28  29
ENDBRANCH  14  28
ENDBRANCH   1  16
BRANCH  10  32
ATOM     32  C   UNL     1       4.439   6.584  17.016  0.00  0.00    +0.000 C 
ATOM     33  C   UNL     1       5.925   6.770  16.829  0.00  0.00    +0.000 C 
ATOM     34  C   UNL     1       5.177   5.839  15.929  0.00  0.00    +0.000 C 
ENDBRANCH  10  32
BRANCH   8  35
ATOM     35  C   UNL     1       4.368   2.404  19.546  0.00  0.00    +0.000 C 
ATOM     36  O   UNL     1       5.095   2.064  20.464  0.00  0.00    +0.000 OA
BRANCH  35  37
ATOM     37  O   UNL     1       4.005   1.549  18.561  0.00  0.00    +0.000 OA
ATOM     38  H   UNL     1       4.251   1.851  17.652  0.00  0.00    +0.000 HD
ENDBRANCH  35  37
ENDBRANCH   8  35
TORSDOF 8
ENDMDL
MODEL 6
REMARK VINA RESULT:      -7.6      1.879      2.862
REMARK  Name = 
REMARK  8 active torsions:
REMARK  status: ('A' for Active; 'I' for Inactive)
REMARK    1  A    between atoms: N_1  and  C_2
REMARK    2  A    between atoms: C_2  and  C_3
REMARK    3  A    between atoms: N_5  and  C_6
REMARK    4  A    between atoms: C_13  and  C_14
REMARK    5  A    between atoms: C_14  and  O_16
REMARK    6  A    between atoms: N_18  and  C_19
REMARK    7  A    between atoms: C_26  and  C_27
REMARK    8  A    between atoms: C_30  and  N_31
REMARK                            x       y       z     vdW  Elec       q    Type
REMARK                         _______ _______ _______ _____ _____    ______ ____
ROOT
ATOM      1  C   UNL     1       1.783   8.533  19.263  0.00  0.00    +0.000 A 
ATOM      2  C   UNL     1       2.574   8.769  18.122  0.00  0.00    +0.000 A 
ATOM      3  F   UNL     1       2.663   9.994  17.580  0.00  0.00    +0.000 F 
ATOM      4  C   UNL     1       3.285   7.764  17.481  0.00  0.00    +0.000 A 
ATOM      5  C   UNL     1       3.251   6.467  17.985  0.00  0.00    +0.000 A 
ATOM      6  C   UNL     1       4.006   5.414  17.272  0.00  0.00    +0.000 A 
ATOM      7  O   UNL     1       4.661   5.665  16.263  0.00  0.00    +0.000 OA
ATOM      8  C   UNL     1       3.949   4.036  17.794  0.00  0.00    +0.000 A 
ATOM      9  C   UNL     1       3.213   3.833  18.896  0.00  0.00    +0.000 A 
ATOM     10  N   UNL     1       2.531   4.799  19.615  0.00  0.00    +0.000 N 
ATOM     11  C   UNL     1       2.524   6.151  19.142  0.00  0.00    +0.000 A 
ATOM     12  C   UNL     1       1.819   7.206  19.766  0.00  0.00    +0.000 A 
ATOM     13  F   UNL     1       1.158   6.947  20.909  0.00  0.00    +0.000 F 
ENDROOT
BRANCH   1  16
ATOM     14  C   UNL     1      -0.570   9.975  21.576  0.00  0.00    +0.000 C 
ATOM     15  C   UNL     1       0.890   9.590  21.332  0.00  0.00    +0.000 C 
ATOM     16  N   UNL     1       1.025   9.531  19.873  0.00  0.00    +0.000 N 
ATOM     17  C   UNL     1      -0.124  10.171  19.216  0.00  0.00    +0.000 C 
ATOM     18  C   UNL     1      -0.934  10.838  20.346  0.00  0.00    +0.000 C 
BRANCH  18  19
ATOM     19  C   UNL     1      -0.697  12.322  20.539  0.00  0.00    +0.000 A 
ATOM     20  C   UNL     1       0.576  12.839  20.254  0.00  0.00    +0.000 A 
ATOM     21  C   UNL     1       0.804  14.215  20.254  0.00  0.00    +0.000 A 
ATOM     22  C   UNL     1      -0.213  15.103  20.599  0.00  0.00    +0.000 A 
ATOM     23  C   UNL     1      -1.482  14.592  20.881  0.00  0.00    +0.000 A 
ATOM     24  C   UNL     1      -1.720  13.215  20.875  0.00  0.00    +0.000 A 
BRANCH  22  25
ATOM     25  N   UNL     1      -0.035  16.479  20.418  0.00  0.00    +0.000 N 
ATOM     26  H   UNL     1      -0.857  17.032  20.638  0.00  0.00    +0.000 HD
ATOM     27  H   UNL     1       0.372  16.724  19.522  0.00  0.00    +0.000 HD
ENDBRANCH  22  25
ENDBRANCH  18  19
BRANCH  14  28
ATOM     28  C   UNL     1      -0.801  10.611  22.950  0.00  0.00    +0.000 C 
BRANCH  28  29
ATOM     29  N   UNL     1      -0.129   9.868  24.016  0.00  0.00    +0.000 NA
ATOM     30  H   UNL     1       0.498  10.504  24.511  0.00  0.00    +0.000 HD
ATOM     31  H   UNL     1       0.480   9.158  23.610  0.00  0.00    +0.000 HD
ENDBRANCH  28  29
ENDBRANCH  14  28
ENDBRANCH   1  16
BRANCH  10  32
ATOM     32  C   UNL     1       1.684   4.383  20.754  0.00  0.00    +0.000 C 
ATOM     33  C   UNL     1       1.107   3.003  20.962  0.00  0.00    +0.000 C 
ATOM     34  C   UNL     1       2.251   3.461  21.808  0.00  0.00    +0.000 C 
ENDBRANCH  10  32
BRANCH   8  35
ATOM     35  C   UNL     1       4.650   2.899  17.165  0.00  0.00    +0.000 C 
ATOM     36  O   UNL     1       4.268   1.745  17.254  0.00  0.00    +0.000 OA
BRANCH  35  37
ATOM     37  O   UNL     1       5.771   3.236  16.484  0.00  0.00    +0.000 OA
ATOM     38  H   UNL     1       6.603   3.165  17.014  0.00  0.00    +0.000 HD
ENDBRANCH  35  37
ENDBRANCH   8  35
TORSDOF 8
ENDMDL
MODEL 7
REMARK VINA RESULT:      -7.6      2.279      3.638
REMARK  Name = 
REMARK  8 active torsions:
REMARK  status: ('A' for Active; 'I' for Inactive)
REMARK    1  A    between atoms: N_1  and  C_2
REMARK    2  A    between atoms: C_2  and  C_3
REMARK    3  A    between atoms: N_5  and  C_6
REMARK    4  A    between atoms: C_13  and  C_14
REMARK    5  A    between atoms: C_14  and  O_16
REMARK    6  A    between atoms: N_18  and  C_19
REMARK    7  A    between atoms: C_26  and  C_27
REMARK    8  A    between atoms: C_30  and  N_31
REMARK                            x       y       z     vdW  Elec       q    Type
REMARK                         _______ _______ _______ _____ _____    ______ ____
ROOT
ATOM      1  C   UNL     1       1.390   8.331  19.994  0.00  0.00    +0.000 A 
ATOM      2  C   UNL     1       0.829   7.388  20.876  0.00  0.00    +0.000 A 
ATOM      3  F   UNL     1      -0.120   7.741  21.758  0.00  0.00    +0.000 F 
ATOM      4  C   UNL     1       1.228   6.059  20.908  0.00  0.00    +0.000 A 
ATOM      5  C   UNL     1       2.203   5.611  20.020  0.00  0.00    +0.000 A 
ATOM      6  C   UNL     1       2.619   4.194  20.087  0.00  0.00    +0.000 A 
ATOM      7  O   UNL     1       2.118   3.415  20.895  0.00  0.00    +0.000 OA
ATOM      8  C   UNL     1       3.669   3.728  19.163  0.00  0.00    +0.000 A 
ATOM      9  C   UNL     1       4.174   4.632  18.310  0.00  0.00    +0.000 A 
ATOM     10  N   UNL     1       3.779   5.953  18.188  0.00  0.00    +0.000 N 
ATOM     11  C   UNL     1       2.784   6.472  19.078  0.00  0.00    +0.000 A 
ATOM     12  C   UNL     1       2.344   7.816  19.077  0.00  0.00    +0.000 A 
ATOM     13  F   UNL     1       2.841   8.652  18.149  0.00  0.00    +0.000 F 
ENDROOT
BRANCH   1  16
ATOM     14  C   UNL     1       1.640  11.845  19.247  0.00  0.00    +0.000 C 
ATOM     15  C   UNL     1       1.111  10.488  18.781  0.00  0.00    +0.000 C 
ATOM     16  N   UNL     1       1.028   9.677  20.001  0.00  0.00    +0.000 N 
ATOM     17  C   UNL     1       1.137  10.524  21.198  0.00  0.00    +0.000 C 
ATOM     18  C   UNL     1       1.095  11.977  20.688  0.00  0.00    +0.000 C 
BRANCH  18  19
ATOM     19  C   UNL     1      -0.249  12.671  20.780  0.00  0.00    +0.000 A 
ATOM     20  C   UNL     1      -0.275  14.037  21.097  0.00  0.00    +0.000 A 
ATOM     21  C   UNL     1      -1.466  14.762  21.032  0.00  0.00    +0.000 A 
ATOM     22  C   UNL     1      -2.666  14.129  20.713  0.00  0.00    +0.000 A 
ATOM     23  C   UNL     1      -2.642  12.769  20.395  0.00  0.00    +0.000 A 
ATOM     24  C   UNL     1      -1.452  12.039  20.449  0.00  0.00    +0.000 A 
BRANCH  22  25
ATOM     25  N   UNL     1      -3.816  14.887  20.469  0.00  0.00    +0.000 N 
ATOM     26  H   UNL     1      -4.673  14.344  20.468  0.00  0.00    +0.000 HD
ATOM     27  H   UNL     1      -3.740  15.497  19.662  0.00  0.00    +0.000 HD
ENDBRANCH  22  25
ENDBRANCH  18  19
BRANCH  14  28
ATOM     28  C   UNL     1       1.302  12.983  18.281  0.00  0.00    +0.000 C 
BRANCH  28  29
ATOM     29  N   UNL     1       2.443  13.344  17.440  0.00  0.00    +0.000 NA
ATOM     30  H   UNL     1       3.269  13.437  18.034  0.00  0.00    +0.000 HD
ATOM     31  H   UNL     1       2.299  14.272  17.042  0.00  0.00    +0.000 HD
ENDBRANCH  28  29
ENDBRANCH  14  28
ENDBRANCH   1  16
BRANCH  10  32
ATOM     32  C   UNL     1       4.514   6.839  17.260  0.00  0.00    +0.000 C 
ATOM     33  C   UNL     1       6.009   6.846  17.050  0.00  0.00    +0.000 C 
ATOM     34  C   UNL     1       5.117   6.266  16.000  0.00  0.00    +0.000 C 
ENDBRANCH  10  32
BRANCH   8  35
ATOM     35  C   UNL     1       4.175   2.342  19.140  0.00  0.00    +0.000 C 
ATOM     36  O   UNL     1       3.699   1.466  18.436  0.00  0.00    +0.000 OA
BRANCH  35  37
ATOM     37  O   UNL     1       5.213   2.107  19.977  0.00  0.00    +0.000 OA
ATOM     38  H   UNL     1       5.383   1.149  20.151  0.00  0.00    +0.000 HD
ENDBRANCH  35  37
ENDBRANCH   8  35
TORSDOF 8
ENDMDL
MODEL 8
REMARK VINA RESULT:      -7.6      2.439      4.298
REMARK  Name = 
REMARK  8 active torsions:
REMARK  status: ('A' for Active; 'I' for Inactive)
REMARK    1  A    between atoms: N_1  and  C_2
REMARK    2  A    between atoms: C_2  and  C_3
REMARK    3  A    between atoms: N_5  and  C_6
REMARK    4  A    between atoms: C_13  and  C_14
REMARK    5  A    between atoms: C_14  and  O_16
REMARK    6  A    between atoms: N_18  and  C_19
REMARK    7  A    between atoms: C_26  and  C_27
REMARK    8  A    between atoms: C_30  and  N_31
REMARK                            x       y       z     vdW  Elec       q    Type
REMARK                         _______ _______ _______ _____ _____    ______ ____
ROOT
ATOM      1  C   UNL     1       1.521   8.193  19.841  0.00  0.00    +0.000 A 
ATOM      2  C   UNL     1       0.951   7.320  20.787  0.00  0.00    +0.000 A 
ATOM      3  F   UNL     1      -0.029   7.729  21.608  0.00  0.00    +0.000 F 
ATOM      4  C   UNL     1       1.372   6.007  20.947  0.00  0.00    +0.000 A 
ATOM      5  C   UNL     1       2.381   5.503  20.130  0.00  0.00    +0.000 A 
ATOM      6  C   UNL     1       2.820   4.106  20.333  0.00  0.00    +0.000 A 
ATOM      7  O   UNL     1       2.310   3.391  21.193  0.00  0.00    +0.000 OA
ATOM      8  C   UNL     1       3.905   3.582  19.484  0.00  0.00    +0.000 A 
ATOM      9  C   UNL     1       4.419   4.417  18.569  0.00  0.00    +0.000 A 
ATOM     10  N   UNL     1       4.004   5.714  18.320  0.00  0.00    +0.000 N 
ATOM     11  C   UNL     1       2.975   6.290  19.132  0.00  0.00    +0.000 A 
ATOM     12  C   UNL     1       2.511   7.619  19.000  0.00  0.00    +0.000 A 
ATOM     13  F   UNL     1       3.020   8.380  18.015  0.00  0.00    +0.000 F 
ENDROOT
BRANCH   1  16
ATOM     14  C   UNL     1      -0.708  10.975  19.334  0.00  0.00    +0.000 C 
ATOM     15  C   UNL     1      -0.091  10.019  20.356  0.00  0.00    +0.000 C 
ATOM     16  N   UNL     1       1.135   9.526  19.719  0.00  0.00    +0.000 N 
ATOM     17  C   UNL     1       1.485  10.353  18.554  0.00  0.00    +0.000 C 
ATOM     18  C   UNL     1       0.515  11.550  18.584  0.00  0.00    +0.000 C 
BRANCH  18  19
ATOM     19  C   UNL     1       1.063  12.829  19.183  0.00  0.00    +0.000 A 
ATOM     20  C   UNL     1       1.927  12.734  20.284  0.00  0.00    +0.000 A 
ATOM     21  C   UNL     1       2.591  13.862  20.770  0.00  0.00    +0.000 A 
ATOM     22  C   UNL     1       2.361  15.117  20.210  0.00  0.00    +0.000 A 
ATOM     23  C   UNL     1       1.503  15.214  19.113  0.00  0.00    +0.000 A 
ATOM     24  C   UNL     1       0.842  14.088  18.615  0.00  0.00    +0.000 A 
BRANCH  22  25
ATOM     25  N   UNL     1       3.161  16.205  20.575  0.00  0.00    +0.000 N 
ATOM     26  H   UNL     1       4.156  16.004  20.566  0.00  0.00    +0.000 HD
ATOM     27  H   UNL     1       2.864  16.662  21.431  0.00  0.00    +0.000 HD
ENDBRANCH  22  25
ENDBRANCH  18  19
BRANCH  14  28
ATOM     28  C   UNL     1      -1.663  11.992  19.966  0.00  0.00    +0.000 C 
BRANCH  28  29
ATOM     29  N   UNL     1      -2.660  12.474  19.009  0.00  0.00    +0.000 NA
ATOM     30  H   UNL     1      -3.590  12.297  19.391  0.00  0.00    +0.000 HD
ATOM     31  H   UNL     1      -2.614  11.919  18.155  0.00  0.00    +0.000 HD
ENDBRANCH  28  29
ENDBRANCH  14  28
ENDBRANCH   1  16
BRANCH  10  32
ATOM     32  C   UNL     1       4.750   6.531  17.338  0.00  0.00    +0.000 C 
ATOM     33  C   UNL     1       6.188   6.317  16.928  0.00  0.00    +0.000 C 
ATOM     34  C   UNL     1       5.088   5.949  15.985  0.00  0.00    +0.000 C 
ENDBRANCH  10  32
BRANCH   8  35
ATOM     35  C   UNL     1       4.436   2.210  19.598  0.00  0.00    +0.000 C 
ATOM     36  O   UNL     1       5.154   1.843  20.513  0.00  0.00    +0.000 OA
BRANCH  35  37
ATOM     37  O   UNL     1       4.073   1.380  18.591  0.00  0.00    +0.000 OA
ATOM     38  H   UNL     1       4.833   0.977  18.105  0.00  0.00    +0.000 HD
ENDBRANCH  35  37
ENDBRANCH   8  35
TORSDOF 8
ENDMDL
MODEL 9
REMARK VINA RESULT:      -7.4      3.822      9.521
REMARK  Name = 
REMARK  8 active torsions:
REMARK  status: ('A' for Active; 'I' for Inactive)
REMARK    1  A    between atoms: N_1  and  C_2
REMARK    2  A    between atoms: C_2  and  C_3
REMARK    3  A    between atoms: N_5  and  C_6
REMARK    4  A    between atoms: C_13  and  C_14
REMARK    5  A    between atoms: C_14  and  O_16
REMARK    6  A    between atoms: N_18  and  C_19
REMARK    7  A    between atoms: C_26  and  C_27
REMARK    8  A    between atoms: C_30  and  N_31
REMARK                            x       y       z     vdW  Elec       q    Type
REMARK                         _______ _______ _______ _____ _____    ______ ____
ROOT
ATOM      1  C   UNL     1       2.326   6.911  19.579  0.00  0.00    +0.000 A 
ATOM      2  C   UNL     1       1.711   6.520  20.784  0.00  0.00    +0.000 A 
ATOM      3  F   UNL     1       1.881   5.286  21.283  0.00  0.00    +0.000 F 
ATOM      4  C   UNL     1       0.885   7.364  21.514  0.00  0.00    +0.000 A 
ATOM      5  C   UNL     1       0.662   8.665  21.068  0.00  0.00    +0.000 A 
ATOM      6  C   UNL     1      -0.235   9.536  21.857  0.00  0.00    +0.000 A 
ATOM      7  O   UNL     1      -0.771   9.139  22.889  0.00  0.00    +0.000 OA
ATOM      8  C   UNL     1      -0.488  10.904  21.370  0.00  0.00    +0.000 A 
ATOM      9  C   UNL     1       0.126  11.270  20.236  0.00  0.00    +0.000 A 
ATOM     10  N   UNL     1       1.006  10.499  19.496  0.00  0.00    +0.000 N 
ATOM     11  C   UNL     1       1.269   9.151  19.901  0.00  0.00    +0.000 A 
ATOM     12  C   UNL     1       2.107   8.260  19.193  0.00  0.00    +0.000 A 
ATOM     13  F   UNL     1       2.749   8.714  18.101  0.00  0.00    +0.000 F 
ENDROOT
BRANCH   1  16
ATOM     14  C   UNL     1       3.717   3.771  18.497  0.00  0.00    +0.000 C 
ATOM     15  C   UNL     1       2.572   4.772  18.330  0.00  0.00    +0.000 C 
ATOM     16  N   UNL     1       3.111   6.045  18.820  0.00  0.00    +0.000 N 
ATOM     17  C   UNL     1       4.574   5.977  18.950  0.00  0.00    +0.000 C 
ATOM     18  C   UNL     1       4.988   4.633  18.319  0.00  0.00    +0.000 C 
BRANCH  18  19
ATOM     19  C   UNL     1       5.494   4.702  16.892  0.00  0.00    +0.000 A 
ATOM     20  C   UNL     1       6.880   4.735  16.676  0.00  0.00    +0.000 A 
ATOM     21  C   UNL     1       7.403   4.631  15.386  0.00  0.00    +0.000 A 
ATOM     22  C   UNL     1       6.558   4.556  14.281  0.00  0.00    +0.000 A 
ATOM     23  C   UNL     1       5.179   4.521  14.494  0.00  0.00    +0.000 A 
ATOM     24  C   UNL     1       4.647   4.616  15.782  0.00  0.00    +0.000 A 
BRANCH  22  25
ATOM     25  N   UNL     1       7.082   4.267  13.016  0.00  0.00    +0.000 N 
ATOM     26  H   UNL     1       6.607   3.508  12.539  0.00  0.00    +0.000 HD
ATOM     27  H   UNL     1       8.091   4.163  13.005  0.00  0.00    +0.000 HD
ENDBRANCH  22  25
ENDBRANCH  18  19
BRANCH  14  28
ATOM     28  C   UNL     1       3.585   2.551  17.581  0.00  0.00    +0.000 C 
BRANCH  28  29
ATOM     29  N   UNL     1       2.217   2.031  17.558  0.00  0.00    +0.000 NA
ATOM     30  H   UNL     1       2.250   1.040  17.312  0.00  0.00    +0.000 HD
ATOM     31  H   UNL     1       1.692   2.473  16.805  0.00  0.00    +0.000 HD
ENDBRANCH  28  29
ENDBRANCH  14  28
ENDBRANCH   1  16
BRANCH  10  32
ATOM     32  C   UNL     1       1.517  11.026  18.211  0.00  0.00    +0.000 C 
ATOM     33  C   UNL     1       1.371  12.447  17.724  0.00  0.00    +0.000 C 
ATOM     34  C   UNL     1       2.700  11.964  18.207  0.00  0.00    +0.000 C 
ENDBRANCH  10  32
BRANCH   8  35
ATOM     35  C   UNL     1      -1.371  11.863  22.063  0.00  0.00    +0.000 C 
ATOM     36  O   UNL     1      -2.293  12.443  21.514  0.00  0.00    +0.000 OA
BRANCH  35  37
ATOM     37  O   UNL     1      -1.070  12.063  23.368  0.00  0.00    +0.000 OA
ATOM     38  H   UNL     1      -1.344  11.324  23.964  0.00  0.00    +0.000 HD
ENDBRANCH  35  37
ENDBRANCH   8  35
TORSDOF 8
ENDMDL
