MODEL 1
REMARK VINA RESULT:      -8.1      0.000      0.000
REMARK  Name = 
REMARK  7 active torsions:
REMARK  status: ('A' for Active; 'I' for Inactive)
REMARK    1  A    between atoms: C_1  and  C_2
REMARK    2  A    between atoms: C_2  and  C_3
REMARK    3  A    between atoms: C_5  and  N_6
REMARK    4  A    between atoms: N_6  and  C_7
REMARK    5  A    between atoms: C_7  and  N_9
REMARK    6  A    between atoms: N_9  and  C_10
REMARK    7  A    between atoms: C_13  and  C_14
REMARK                            x       y       z     vdW  Elec       q    Type
REMARK                         _______ _______ _______ _____ _____    ______ ____
ROOT
ATOM      1  N   UNL     1       4.188   4.325  16.644  0.00  0.00    +0.000 N 
ATOM      2  H   UNL     1       3.960   5.256  16.343  0.00  0.00    +0.000 HD
ENDROOT
BRANCH   1   7
ATOM      3  C   UNL     1       7.698   6.726  18.032  0.00  0.00    +0.000 C 
ATOM      4  C   UNL     1       6.828   6.057  16.956  0.00  0.00    +0.000 C 
ATOM      5  C   UNL     1       5.617   6.976  16.715  0.00  0.00    +0.000 C 
ATOM      6  C   UNL     1       6.502   4.637  17.438  0.00  0.00    +0.000 C 
ATOM      7  C   UNL     1       5.579   3.916  16.458  0.00  0.00    +0.000 C 
ATOM      8  C   UNL     1       6.088   4.149  15.054  0.00  0.00    +0.000 A 
ATOM      9  C   UNL     1       5.646   3.337  13.997  0.00  0.00    +0.000 A 
ATOM     10  C   UNL     1       6.198   3.480  12.722  0.00  0.00    +0.000 A 
ATOM     11 BR   UNL     1       5.603   2.369  11.313  0.00  0.00    +0.000 Br
ATOM     12  C   UNL     1       7.196   4.423  12.479  0.00  0.00    +0.000 A 
ATOM     13  C   UNL     1       7.638   5.238  13.519  0.00  0.00    +0.000 A 
ATOM     14  C   UNL     1       7.080   5.115  14.794  0.00  0.00    +0.000 A 
ATOM     15  O   UNL     1       7.590   5.973  15.740  0.00  0.00    +0.000 OA
ENDBRANCH   1   7
BRANCH   1  16
ATOM     16  C   UNL     1       3.260   3.687  17.447  0.00  0.00    +0.000 C 
ATOM     17  S   UNL     1       3.481   2.172  18.114  0.00  0.00    +0.000 S 
BRANCH  16  18
ATOM     18  N   UNL     1       2.148   4.497  17.735  0.00  0.00    +0.000 N 
ATOM     19  H   UNL     1       1.248   4.035  17.625  0.00  0.00    +0.000 HD
BRANCH  18  20
ATOM     20  C   UNL     1       2.195   5.539  18.700  0.00  0.00    +0.000 A 
ATOM     21  C   UNL     1       1.921   5.268  20.048  0.00  0.00    +0.000 A 
ATOM     22  C   UNL     1       1.644   6.306  20.941  0.00  0.00    +0.000 A 
ATOM     23  C   UNL     1       1.720   7.629  20.509  0.00  0.00    +0.000 A 
ATOM     24  C   UNL     1       2.147   7.903  19.203  0.00  0.00    +0.000 A 
ATOM     25  C   UNL     1       2.401   6.859  18.299  0.00  0.00    +0.000 A 
BRANCH  23  26
ATOM     26  C   UNL     1       1.319   8.699  21.391  0.00  0.00    +0.000 C 
ATOM     27  N   UNL     1       0.995   9.564  22.076  0.00  0.00    +0.000 NA
ENDBRANCH  23  26
ENDBRANCH  18  20
ENDBRANCH  16  18
ENDBRANCH   1  16
TORSDOF 5
ENDMDL
MODEL 2
REMARK VINA RESULT:      -7.9      1.651      1.887
REMARK  Name = 
REMARK  7 active torsions:
REMARK  status: ('A' for Active; 'I' for Inactive)
REMARK    1  A    between atoms: C_1  and  C_2
REMARK    2  A    between atoms: C_2  and  C_3
REMARK    3  A    between atoms: C_5  and  N_6
REMARK    4  A    between atoms: N_6  and  C_7
REMARK    5  A    between atoms: C_7  and  N_9
REMARK    6  A    between atoms: N_9  and  C_10
REMARK    7  A    between atoms: C_13  and  C_14
REMARK                            x       y       z     vdW  Elec       q    Type
REMARK                         _______ _______ _______ _____ _____    ______ ____
ROOT
ATOM      1  N   UNL     1       3.826   5.255  17.156  0.00  0.00    +0.000 N 
ATOM      2  H   UNL     1       3.905   6.142  16.690  0.00  0.00    +0.000 HD
ENDROOT
BRANCH   1   7
ATOM      3  C   UNL     1       7.879   6.047  18.875  0.00  0.00    +0.000 C 
ATOM      4  C   UNL     1       6.898   5.818  17.715  0.00  0.00    +0.000 C 
ATOM      5  C   UNL     1       6.150   7.142  17.483  0.00  0.00    +0.000 C 
ATOM      6  C   UNL     1       6.021   4.612  18.078  0.00  0.00    +0.000 C 
ATOM      7  C   UNL     1       4.965   4.350  17.008  0.00  0.00    +0.000 C 
ATOM      8  C   UNL     1       5.622   4.436  15.649  0.00  0.00    +0.000 A 
ATOM      9  C   UNL     1       4.980   3.908  14.517  0.00  0.00    +0.000 A 
ATOM     10  C   UNL     1       5.633   3.888  13.283  0.00  0.00    +0.000 A 
ATOM     11 BR   UNL     1       4.760   3.160  11.772  0.00  0.00    +0.000 Br
ATOM     12  C   UNL     1       6.930   4.383  13.155  0.00  0.00    +0.000 A 
ATOM     13  C   UNL     1       7.575   4.914  14.270  0.00  0.00    +0.000 A 
ATOM     14  C   UNL     1       6.924   4.955  15.505  0.00  0.00    +0.000 A 
ATOM     15  O   UNL     1       7.654   5.504  16.533  0.00  0.00    +0.000 OA
ENDBRANCH   1   7
BRANCH   1  16
ATOM     16  C   UNL     1       2.818   5.135  18.096  0.00  0.00    +0.000 C 
ATOM     17  S   UNL     1       1.614   3.979  18.037  0.00  0.00    +0.000 S 
BRANCH  16  18
ATOM     18  N   UNL     1       2.975   6.025  19.172  0.00  0.00    +0.000 N 
ATOM     19  H   UNL     1       3.834   5.898  19.704  0.00  0.00    +0.000 HD
BRANCH  18  20
ATOM     20  C   UNL     1       2.447   7.344  19.153  0.00  0.00    +0.000 A 
ATOM     21  C   UNL     1       1.815   7.870  20.289  0.00  0.00    +0.000 A 
ATOM     22  C   UNL     1       1.016   9.011  20.195  0.00  0.00    +0.000 A 
ATOM     23  C   UNL     1       0.908   9.682  18.978  0.00  0.00    +0.000 A 
ATOM     24  C   UNL     1       1.665   9.246  17.882  0.00  0.00    +0.000 A 
ATOM     25  C   UNL     1       2.449   8.084  17.971  0.00  0.00    +0.000 A 
BRANCH  23  26
ATOM     26  C   UNL     1      -0.008  10.789  18.844  0.00  0.00    +0.000 C 
ATOM     27  N   UNL     1      -0.735  11.676  18.759  0.00  0.00    +0.000 NA
ENDBRANCH  23  26
ENDBRANCH  18  20
ENDBRANCH  16  18
ENDBRANCH   1  16
TORSDOF 5
ENDMDL
MODEL 3
REMARK VINA RESULT:      -7.9      0.915      1.356
REMARK  Name = 
REMARK  7 active torsions:
REMARK  status: ('A' for Active; 'I' for Inactive)
REMARK    1  A    between atoms: C_1  and  C_2
REMARK    2  A    between atoms: C_2  and  C_3
REMARK    3  A    between atoms: C_5  and  N_6
REMARK    4  A    between atoms: N_6  and  C_7
REMARK    5  A    between atoms: C_7  and  N_9
REMARK    6  A    between atoms: N_9  and  C_10
REMARK    7  A    between atoms: C_13  and  C_14
REMARK                            x       y       z     vdW  Elec       q    Type
REMARK                         _______ _______ _______ _____ _____    ______ ____
ROOT
ATOM      1  N   UNL     1       4.069   4.597  16.848  0.00  0.00    +0.000 N 
ATOM      2  H   UNL     1       3.825   5.367  16.251  0.00  0.00    +0.000 HD
ENDROOT
BRANCH   1   7
ATOM      3  C   UNL     1       7.804   6.596  18.283  0.00  0.00    +0.000 C 
ATOM      4  C   UNL     1       6.875   6.035  17.195  0.00  0.00    +0.000 C 
ATOM      5  C   UNL     1       5.770   7.080  16.958  0.00  0.00    +0.000 C 
ATOM      6  C   UNL     1       6.397   4.653  17.658  0.00  0.00    +0.000 C 
ATOM      7  C   UNL     1       5.410   4.044  16.666  0.00  0.00    +0.000 C 
ATOM      8  C   UNL     1       5.950   4.238  15.267  0.00  0.00    +0.000 A 
ATOM      9  C   UNL     1       5.431   3.489  14.198  0.00  0.00    +0.000 A 
ATOM     10  C   UNL     1       6.003   3.586  12.928  0.00  0.00    +0.000 A 
ATOM     11 BR   UNL     1       5.303   2.560  11.503  0.00  0.00    +0.000 Br
ATOM     12  C   UNL     1       7.097   4.420  12.701  0.00  0.00    +0.000 A 
ATOM     13  C   UNL     1       7.617   5.173  13.753  0.00  0.00    +0.000 A 
ATOM     14  C   UNL     1       7.040   5.096  15.023  0.00  0.00    +0.000 A 
ATOM     15  O   UNL     1       7.632   5.884  15.982  0.00  0.00    +0.000 OA
ENDBRANCH   1   7
BRANCH   1  16
ATOM     16  C   UNL     1       3.244   4.370  17.936  0.00  0.00    +0.000 C 
ATOM     17  S   UNL     1       2.202   3.072  18.066  0.00  0.00    +0.000 S 
BRANCH  16  18
ATOM     18  N   UNL     1       3.455   5.292  18.975  0.00  0.00    +0.000 N 
ATOM     19  H   UNL     1       4.433   5.464  19.197  0.00  0.00    +0.000 HD
BRANCH  18  20
ATOM     20  C   UNL     1       2.564   6.370  19.228  0.00  0.00    +0.000 A 
ATOM     21  C   UNL     1       2.418   7.402  18.290  0.00  0.00    +0.000 A 
ATOM     22  C   UNL     1       1.814   8.609  18.648  0.00  0.00    +0.000 A 
ATOM     23  C   UNL     1       1.278   8.763  19.925  0.00  0.00    +0.000 A 
ATOM     24  C   UNL     1       1.285   7.676  20.810  0.00  0.00    +0.000 A 
ATOM     25  C   UNL     1       1.914   6.471  20.458  0.00  0.00    +0.000 A 
BRANCH  23  26
ATOM     26  C   UNL     1       0.761  10.045  20.341  0.00  0.00    +0.000 C 
ATOM     27  N   UNL     1       0.361  11.076  20.656  0.00  0.00    +0.000 NA
ENDBRANCH  23  26
ENDBRANCH  18  20
ENDBRANCH  16  18
ENDBRANCH   1  16
TORSDOF 5
ENDMDL
MODEL 4
REMARK VINA RESULT:      -7.7      1.642      2.094
REMARK  Name = 
REMARK  7 active torsions:
REMARK  status: ('A' for Active; 'I' for Inactive)
REMARK    1  A    between atoms: C_1  and  C_2
REMARK    2  A    between atoms: C_2  and  C_3
REMARK    3  A    between atoms: C_5  and  N_6
REMARK    4  A    between atoms: N_6  and  C_7
REMARK    5  A    between atoms: C_7  and  N_9
REMARK    6  A    between atoms: N_9  and  C_10
REMARK    7  A    between atoms: C_13  and  C_14
REMARK                            x       y       z     vdW  Elec       q    Type
REMARK                         _______ _______ _______ _____ _____    ______ ____
ROOT
ATOM      1  N   UNL     1       3.867   5.336  17.155  0.00  0.00    +0.000 N 
ATOM      2  H   UNL     1       3.944   6.205  16.657  0.00  0.00    +0.000 HD
ENDROOT
BRANCH   1   7
ATOM      3  C   UNL     1       7.940   6.074  18.850  0.00  0.00    +0.000 C 
ATOM      4  C   UNL     1       6.950   5.852  17.696  0.00  0.00    +0.000 C 
ATOM      5  C   UNL     1       6.223   7.187  17.458  0.00  0.00    +0.000 C 
ATOM      6  C   UNL     1       6.055   4.664  18.072  0.00  0.00    +0.000 C 
ATOM      7  C   UNL     1       4.989   4.411  17.008  0.00  0.00    +0.000 C 
ATOM      8  C   UNL     1       5.642   4.476  15.646  0.00  0.00    +0.000 A 
ATOM      9  C   UNL     1       4.986   3.951  14.521  0.00  0.00    +0.000 A 
ATOM     10  C   UNL     1       5.632   3.911  13.284  0.00  0.00    +0.000 A 
ATOM     11 BR   UNL     1       4.741   3.187  11.782  0.00  0.00    +0.000 Br
ATOM     12  C   UNL     1       6.937   4.384  13.147  0.00  0.00    +0.000 A 
ATOM     13  C   UNL     1       7.596   4.912  14.255  0.00  0.00    +0.000 A 
ATOM     14  C   UNL     1       6.951   4.973  15.493  0.00  0.00    +0.000 A 
ATOM     15  O   UNL     1       7.695   5.517  16.513  0.00  0.00    +0.000 OA
ENDBRANCH   1   7
BRANCH   1  16
ATOM     16  C   UNL     1       2.882   5.262  18.125  0.00  0.00    +0.000 C 
ATOM     17  S   UNL     1       1.740   4.047  18.210  0.00  0.00    +0.000 S 
BRANCH  16  18
ATOM     18  N   UNL     1       3.011   6.264  19.102  0.00  0.00    +0.000 N 
ATOM     19  H   UNL     1       3.950   6.369  19.480  0.00  0.00    +0.000 HD
BRANCH  18  20
ATOM     20  C   UNL     1       2.211   7.439  19.097  0.00  0.00    +0.000 A 
ATOM     21  C   UNL     1       2.088   8.207  17.930  0.00  0.00    +0.000 A 
ATOM     22  C   UNL     1       1.588   9.510  17.984  0.00  0.00    +0.000 A 
ATOM     23  C   UNL     1       1.131  10.025  19.196  0.00  0.00    +0.000 A 
ATOM     24  C   UNL     1       1.108   9.202  20.329  0.00  0.00    +0.000 A 
ATOM     25  C   UNL     1       1.634   7.901  20.279  0.00  0.00    +0.000 A 
BRANCH  23  26
ATOM     26  C   UNL     1       0.726  11.408  19.283  0.00  0.00    +0.000 C 
ATOM     27  N   UNL     1       0.424  12.515  19.358  0.00  0.00    +0.000 NA
ENDBRANCH  23  26
ENDBRANCH  18  20
ENDBRANCH  16  18
ENDBRANCH   1  16
TORSDOF 5
ENDMDL
MODEL 5
REMARK VINA RESULT:      -7.3      3.536      6.725
REMARK  Name = 
REMARK  7 active torsions:
REMARK  status: ('A' for Active; 'I' for Inactive)
REMARK    1  A    between atoms: C_1  and  C_2
REMARK    2  A    between atoms: C_2  and  C_3
REMARK    3  A    between atoms: C_5  and  N_6
REMARK    4  A    between atoms: N_6  and  C_7
REMARK    5  A    between atoms: C_7  and  N_9
REMARK    6  A    between atoms: N_9  and  C_10
REMARK    7  A    between atoms: C_13  and  C_14
REMARK                            x       y       z     vdW  Elec       q    Type
REMARK                         _______ _______ _______ _____ _____    ______ ____
ROOT
ATOM      1  N   UNL     1       2.943   4.655  17.832  0.00  0.00    +0.000 N 
ATOM      2  H   UNL     1       2.005   4.844  17.527  0.00  0.00    +0.000 HD
ENDROOT
BRANCH   1   7
ATOM      3  C   UNL     1       2.160   3.205  21.990  0.00  0.00    +0.000 C 
ATOM      4  C   UNL     1       2.028   4.212  20.837  0.00  0.00    +0.000 C 
ATOM      5  C   UNL     1       0.964   3.659  19.871  0.00  0.00    +0.000 C 
ATOM      6  C   UNL     1       3.425   4.422  20.239  0.00  0.00    +0.000 C 
ATOM      7  C   UNL     1       3.380   5.361  19.036  0.00  0.00    +0.000 C 
ATOM      8  C   UNL     1       2.509   6.547  19.381  0.00  0.00    +0.000 A 
ATOM      9  C   UNL     1       2.565   7.716  18.605  0.00  0.00    +0.000 A 
ATOM     10  C   UNL     1       1.845   8.849  18.987  0.00  0.00    +0.000 A 
ATOM     11 BR   UNL     1       1.942  10.420  17.939  0.00  0.00    +0.000 Br
ATOM     12  C   UNL     1       1.066   8.842  20.143  0.00  0.00    +0.000 A 
ATOM     13  C   UNL     1       0.998   7.686  20.919  0.00  0.00    +0.000 A 
ATOM     14  C   UNL     1       1.701   6.542  20.535  0.00  0.00    +0.000 A 
ATOM     15  O   UNL     1       1.558   5.460  21.373  0.00  0.00    +0.000 OA
ENDBRANCH   1   7
BRANCH   1  16
ATOM     16  C   UNL     1       3.570   3.558  17.268  0.00  0.00    +0.000 C 
ATOM     17  S   UNL     1       3.192   1.973  17.634  0.00  0.00    +0.000 S 
BRANCH  16  18
ATOM     18  N   UNL     1       4.490   3.916  16.268  0.00  0.00    +0.000 N 
ATOM     19  H   UNL     1       4.133   3.842  15.318  0.00  0.00    +0.000 HD
BRANCH  18  20
ATOM     20  C   UNL     1       5.497   4.898  16.476  0.00  0.00    +0.000 A 
ATOM     21  C   UNL     1       6.601   4.615  17.293  0.00  0.00    +0.000 A 
ATOM     22  C   UNL     1       7.417   5.644  17.769  0.00  0.00    +0.000 A 
ATOM     23  C   UNL     1       7.181   6.957  17.364  0.00  0.00    +0.000 A 
ATOM     24  C   UNL     1       6.174   7.217  16.424  0.00  0.00    +0.000 A 
ATOM     25  C   UNL     1       5.339   6.185  15.966  0.00  0.00    +0.000 A 
BRANCH  23  26
ATOM     26  C   UNL     1       7.942   8.038  17.944  0.00  0.00    +0.000 C 
ATOM     27  N   UNL     1       8.530   8.907  18.415  0.00  0.00    +0.000 NA
ENDBRANCH  23  26
ENDBRANCH  18  20
ENDBRANCH  16  18
ENDBRANCH   1  16
TORSDOF 5
ENDMDL
MODEL 6
REMARK VINA RESULT:      -7.1      3.019      4.563
REMARK  Name = 
REMARK  7 active torsions:
REMARK  status: ('A' for Active; 'I' for Inactive)
REMARK    1  A    between atoms: C_1  and  C_2
REMARK    2  A    between atoms: C_2  and  C_3
REMARK    3  A    between atoms: C_5  and  N_6
REMARK    4  A    between atoms: N_6  and  C_7
REMARK    5  A    between atoms: C_7  and  N_9
REMARK    6  A    between atoms: N_9  and  C_10
REMARK    7  A    between atoms: C_13  and  C_14
REMARK                            x       y       z     vdW  Elec       q    Type
REMARK                         _______ _______ _______ _____ _____    ______ ____
ROOT
ATOM      1  N   UNL     1       3.249   5.833  19.726  0.00  0.00    +0.000 N 
ATOM      2  H   UNL     1       4.039   5.555  20.281  0.00  0.00    +0.000 HD
ENDROOT
BRANCH   1   7
ATOM      3  C   UNL     1       2.770   2.059  17.373  0.00  0.00    +0.000 C 
ATOM      4  C   UNL     1       3.575   3.253  17.909  0.00  0.00    +0.000 C 
ATOM      5  C   UNL     1       3.955   2.927  19.365  0.00  0.00    +0.000 C 
ATOM      6  C   UNL     1       2.727   4.515  17.708  0.00  0.00    +0.000 C 
ATOM      7  C   UNL     1       3.423   5.749  18.277  0.00  0.00    +0.000 C 
ATOM      8  C   UNL     1       4.873   5.726  17.850  0.00  0.00    +0.000 A 
ATOM      9  C   UNL     1       5.655   6.889  17.937  0.00  0.00    +0.000 A 
ATOM     10  C   UNL     1       6.961   6.897  17.441  0.00  0.00    +0.000 A 
ATOM     11 BR   UNL     1       7.996   8.475  17.552  0.00  0.00    +0.000 Br
ATOM     12  C   UNL     1       7.505   5.758  16.850  0.00  0.00    +0.000 A 
ATOM     13  C   UNL     1       6.741   4.597  16.764  0.00  0.00    +0.000 A 
ATOM     14  C   UNL     1       5.440   4.573  17.272  0.00  0.00    +0.000 A 
ATOM     15  O   UNL     1       4.781   3.373  17.136  0.00  0.00    +0.000 OA
ENDBRANCH   1   7
BRANCH   1  16
ATOM     16  C   UNL     1       2.040   5.960  20.387  0.00  0.00    +0.000 C 
ATOM     17  S   UNL     1       0.902   4.743  20.501  0.00  0.00    +0.000 S 
BRANCH  16  18
ATOM     18  N   UNL     1       1.914   7.193  21.049  0.00  0.00    +0.000 N 
ATOM     19  H   UNL     1       2.639   7.379  21.739  0.00  0.00    +0.000 HD
BRANCH  18  20
ATOM     20  C   UNL     1       1.342   8.336  20.428  0.00  0.00    +0.000 A 
ATOM     21  C   UNL     1       0.370   9.094  21.098  0.00  0.00    +0.000 A 
ATOM     22  C   UNL     1      -0.427  10.004  20.402  0.00  0.00    +0.000 A 
ATOM     23  C   UNL     1      -0.203  10.223  19.044  0.00  0.00    +0.000 A 
ATOM     24  C   UNL     1       0.870   9.582  18.411  0.00  0.00    +0.000 A 
ATOM     25  C   UNL     1       1.656   8.648  19.106  0.00  0.00    +0.000 A 
BRANCH  23  26
ATOM     26  C   UNL     1      -1.098  11.071  18.293  0.00  0.00    +0.000 C 
ATOM     27  N   UNL     1      -1.828  11.733  17.699  0.00  0.00    +0.000 NA
ENDBRANCH  23  26
ENDBRANCH  18  20
ENDBRANCH  16  18
ENDBRANCH   1  16
TORSDOF 5
ENDMDL
MODEL 7
REMARK VINA RESULT:      -7.1      3.514      5.442
REMARK  Name = 
REMARK  7 active torsions:
REMARK  status: ('A' for Active; 'I' for Inactive)
REMARK    1  A    between atoms: C_1  and  C_2
REMARK    2  A    between atoms: C_2  and  C_3
REMARK    3  A    between atoms: C_5  and  N_6
REMARK    4  A    between atoms: N_6  and  C_7
REMARK    5  A    between atoms: C_7  and  N_9
REMARK    6  A    between atoms: N_9  and  C_10
REMARK    7  A    between atoms: C_13  and  C_14
REMARK                            x       y       z     vdW  Elec       q    Type
REMARK                         _______ _______ _______ _____ _____    ______ ____
ROOT
ATOM      1  N   UNL     1       2.140   6.608  19.396  0.00  0.00    +0.000 N 
ATOM      2  H   UNL     1       1.786   6.032  20.140  0.00  0.00    +0.000 HD
ENDROOT
BRANCH   1   7
ATOM      3  C   UNL     1       1.408   2.254  18.679  0.00  0.00    +0.000 C 
ATOM      4  C   UNL     1       2.309   3.485  18.864  0.00  0.00    +0.000 C 
ATOM      5  C   UNL     1       2.385   3.770  20.374  0.00  0.00    +0.000 C 
ATOM      6  C   UNL     1       1.734   4.616  18.001  0.00  0.00    +0.000 C 
ATOM      7  C   UNL     1       2.530   5.908  18.174  0.00  0.00    +0.000 C 
ATOM      8  C   UNL     1       4.005   5.577  18.120  0.00  0.00    +0.000 A 
ATOM      9  C   UNL     1       4.950   6.593  17.909  0.00  0.00    +0.000 A 
ATOM     10  C   UNL     1       6.301   6.276  17.749  0.00  0.00    +0.000 A 
ATOM     11 BR   UNL     1       7.560   7.654  17.451  0.00  0.00    +0.000 Br
ATOM     12  C   UNL     1       6.730   4.950  17.789  0.00  0.00    +0.000 A 
ATOM     13  C   UNL     1       5.801   3.933  18.003  0.00  0.00    +0.000 A 
ATOM     14  C   UNL     1       4.451   4.242  18.182  0.00  0.00    +0.000 A 
ATOM     15  O   UNL     1       3.627   3.161  18.389  0.00  0.00    +0.000 OA
ENDBRANCH   1   7
BRANCH   1  16
ATOM     16  C   UNL     1       1.930   7.971  19.513  0.00  0.00    +0.000 C 
ATOM     17  S   UNL     1       1.749   9.005  18.214  0.00  0.00    +0.000 S 
BRANCH  16  18
ATOM     18  N   UNL     1       1.777   8.381  20.848  0.00  0.00    +0.000 N 
ATOM     19  H   UNL     1       2.629   8.346  21.403  0.00  0.00    +0.000 HD
BRANCH  18  20
ATOM     20  C   UNL     1       0.823   9.360  21.238  0.00  0.00    +0.000 A 
ATOM     21  C   UNL     1       0.837  10.634  20.652  0.00  0.00    +0.000 A 
ATOM     22  C   UNL     1       0.141  11.694  21.237  0.00  0.00    +0.000 A 
ATOM     23  C   UNL     1      -0.641  11.468  22.368  0.00  0.00    +0.000 A 
ATOM     24  C   UNL     1      -0.780  10.164  22.860  0.00  0.00    +0.000 A 
ATOM     25  C   UNL     1      -0.060   9.103  22.286  0.00  0.00    +0.000 A 
BRANCH  23  26
ATOM     26  C   UNL     1      -1.266  12.579  23.046  0.00  0.00    +0.000 C 
ATOM     27  N   UNL     1      -1.774  13.469  23.567  0.00  0.00    +0.000 NA
ENDBRANCH  23  26
ENDBRANCH  18  20
ENDBRANCH  16  18
ENDBRANCH   1  16
TORSDOF 5
ENDMDL
MODEL 8
REMARK VINA RESULT:      -7.0      3.004      4.613
REMARK  Name = 
REMARK  7 active torsions:
REMARK  status: ('A' for Active; 'I' for Inactive)
REMARK    1  A    between atoms: C_1  and  C_2
REMARK    2  A    between atoms: C_2  and  C_3
REMARK    3  A    between atoms: C_5  and  N_6
REMARK    4  A    between atoms: N_6  and  C_7
REMARK    5  A    between atoms: C_7  and  N_9
REMARK    6  A    between atoms: N_9  and  C_10
REMARK    7  A    between atoms: C_13  and  C_14
REMARK                            x       y       z     vdW  Elec       q    Type
REMARK                         _______ _______ _______ _____ _____    ______ ____
ROOT
ATOM      1  N   UNL     1       3.287   5.844  19.772  0.00  0.00    +0.000 N 
ATOM      2  H   UNL     1       4.082   5.561  20.319  0.00  0.00    +0.000 HD
ENDROOT
BRANCH   1   7
ATOM      3  C   UNL     1       2.780   2.083  17.405  0.00  0.00    +0.000 C 
ATOM      4  C   UNL     1       3.592   3.272  17.940  0.00  0.00    +0.000 C 
ATOM      5  C   UNL     1       3.984   2.939  19.391  0.00  0.00    +0.000 C 
ATOM      6  C   UNL     1       2.745   4.537  17.753  0.00  0.00    +0.000 C 
ATOM      7  C   UNL     1       3.449   5.767  18.321  0.00  0.00    +0.000 C 
ATOM      8  C   UNL     1       4.895   5.742  17.882  0.00  0.00    +0.000 A 
ATOM      9  C   UNL     1       5.680   6.904  17.967  0.00  0.00    +0.000 A 
ATOM     10  C   UNL     1       6.982   6.912  17.460  0.00  0.00    +0.000 A 
ATOM     11 BR   UNL     1       8.021   8.487  17.569  0.00  0.00    +0.000 Br
ATOM     12  C   UNL     1       7.518   5.774  16.858  0.00  0.00    +0.000 A 
ATOM     13  C   UNL     1       6.751   4.615  16.773  0.00  0.00    +0.000 A 
ATOM     14  C   UNL     1       5.455   4.591  17.293  0.00  0.00    +0.000 A 
ATOM     15  O   UNL     1       4.792   3.394  17.157  0.00  0.00    +0.000 OA
ENDBRANCH   1   7
BRANCH   1  16
ATOM     16  C   UNL     1       2.085   5.972  20.444  0.00  0.00    +0.000 C 
ATOM     17  S   UNL     1       0.995   4.725  20.660  0.00  0.00    +0.000 S 
BRANCH  16  18
ATOM     18  N   UNL     1       1.923   7.241  21.025  0.00  0.00    +0.000 N 
ATOM     19  H   UNL     1       2.690   7.532  21.627  0.00  0.00    +0.000 HD
BRANCH  18  20
ATOM     20  C   UNL     1       1.209   8.288  20.380  0.00  0.00    +0.000 A 
ATOM     21  C   UNL     1       1.578   8.706  19.094  0.00  0.00    +0.000 A 
ATOM     22  C   UNL     1       1.118   9.921  18.581  0.00  0.00    +0.000 A 
ATOM     23  C   UNL     1       0.220  10.689  19.322  0.00  0.00    +0.000 A 
ATOM     24  C   UNL     1      -0.268  10.194  20.538  0.00  0.00    +0.000 A 
ATOM     25  C   UNL     1       0.213   8.984  21.064  0.00  0.00    +0.000 A 
BRANCH  23  26
ATOM     26  C   UNL     1      -0.165  11.999  18.854  0.00  0.00    +0.000 C 
ATOM     27  N   UNL     1      -0.493  13.037  18.484  0.00  0.00    +0.000 NA
ENDBRANCH  23  26
ENDBRANCH  18  20
ENDBRANCH  16  18
ENDBRANCH   1  16
TORSDOF 5
ENDMDL
MODEL 9
REMARK VINA RESULT:      -6.8      3.806      5.470
REMARK  Name = 
REMARK  7 active torsions:
REMARK  status: ('A' for Active; 'I' for Inactive)
REMARK    1  A    between atoms: C_1  and  C_2
REMARK    2  A    between atoms: C_2  and  C_3
REMARK    3  A    between atoms: C_5  and  N_6
REMARK    4  A    between atoms: N_6  and  C_7
REMARK    5  A    between atoms: C_7  and  N_9
REMARK    6  A    between atoms: N_9  and  C_10
REMARK    7  A    between atoms: C_13  and  C_14
REMARK                            x       y       z     vdW  Elec       q    Type
REMARK                         _______ _______ _______ _____ _____    ______ ____
ROOT
ATOM      1  N   UNL     1       2.286   6.630  19.412  0.00  0.00    +0.000 N 
ATOM      2  H   UNL     1       2.148   5.991  20.175  0.00  0.00    +0.000 HD
ENDROOT
BRANCH   1   7
ATOM      3  C   UNL     1       1.577   2.334  18.384  0.00  0.00    +0.000 C 
ATOM      4  C   UNL     1       2.470   3.558  18.641  0.00  0.00    +0.000 C 
ATOM      5  C   UNL     1       2.580   3.729  20.166  0.00  0.00    +0.000 C 
ATOM      6  C   UNL     1       1.865   4.744  17.879  0.00  0.00    +0.000 C 
ATOM      7  C   UNL     1       2.653   6.028  18.131  0.00  0.00    +0.000 C 
ATOM      8  C   UNL     1       4.129   5.719  18.019  0.00  0.00    +0.000 A 
ATOM      9  C   UNL     1       5.060   6.759  17.864  0.00  0.00    +0.000 A 
ATOM     10  C   UNL     1       6.409   6.469  17.649  0.00  0.00    +0.000 A 
ATOM     11 BR   UNL     1       7.647   7.880  17.428  0.00  0.00    +0.000 Br
ATOM     12  C   UNL     1       6.851   5.149  17.579  0.00  0.00    +0.000 A 
ATOM     13  C   UNL     1       5.938   4.109  17.737  0.00  0.00    +0.000 A 
ATOM     14  C   UNL     1       4.589   4.388  17.970  0.00  0.00    +0.000 A 
ATOM     15  O   UNL     1       3.780   3.285  18.113  0.00  0.00    +0.000 OA
ENDBRANCH   1   7
BRANCH   1  16
ATOM     16  C   UNL     1       1.825   7.922  19.593  0.00  0.00    +0.000 C 
ATOM     17  S   UNL     1       1.373   8.557  21.070  0.00  0.00    +0.000 S 
BRANCH  16  18
ATOM     18  N   UNL     1       1.880   8.685  18.414  0.00  0.00    +0.000 N 
ATOM     19  H   UNL     1       1.871   8.139  17.555  0.00  0.00    +0.000 HD
BRANCH  18  20
ATOM     20  C   UNL     1       1.321   9.989  18.325  0.00  0.00    +0.000 A 
ATOM     21  C   UNL     1       2.156  11.115  18.279  0.00  0.00    +0.000 A 
ATOM     22  C   UNL     1       1.644  12.391  18.518  0.00  0.00    +0.000 A 
ATOM     23  C   UNL     1       0.275  12.560  18.723  0.00  0.00    +0.000 A 
ATOM     24  C   UNL     1      -0.579  11.455  18.613  0.00  0.00    +0.000 A 
ATOM     25  C   UNL     1      -0.060  10.168  18.398  0.00  0.00    +0.000 A 
BRANCH  23  26
ATOM     26  C   UNL     1      -0.244  13.856  19.088  0.00  0.00    +0.000 C 
ATOM     27  N   UNL     1      -0.638  14.897  19.379  0.00  0.00    +0.000 NA
ENDBRANCH  23  26
ENDBRANCH  18  20
ENDBRANCH  16  18
ENDBRANCH   1  16
TORSDOF 5
ENDMDL
