MODEL 1
REMARK VINA RESULT:      -7.4      0.000      0.000
REMARK  Name = 
REMARK  7 active torsions:
REMARK  status: ('A' for Active; 'I' for Inactive)
REMARK    1  A    between atoms: C_1  and  C_2
REMARK    2  A    between atoms: C_2  and  C_3
REMARK    3  A    between atoms: C_3  and  C_4
REMARK    4  A    between atoms: C_4  and  O_6
REMARK    5  A    between atoms: O_6  and  C_7
REMARK    6  A    between atoms: C_9  and  C_10
REMARK    7  A    between atoms: N_20  and  C_21
REMARK                            x       y       z     vdW  Elec       q    Type
REMARK                         _______ _______ _______ _____ _____    ______ ____
ROOT
ATOM      1  C   UNL     1       5.857   4.365  16.583  0.00  0.00    +0.000 C 
ATOM      2  N   UNL     1       5.455   3.345  17.588  0.00  0.00    +0.000 NA
ATOM      3  C   UNL     1       3.995   3.154  17.529  0.00  0.00    +0.000 C 
ATOM      4  C   UNL     1       3.407   4.322  16.731  0.00  0.00    +0.000 C 
ATOM      5  C   UNL     1       2.513   5.190  17.565  0.00  0.00    +0.000 C 
ATOM      6  O   UNL     1       1.324   4.999  17.745  0.00  0.00    +0.000 OA
ATOM      7  N   UNL     1       3.292   6.172  18.090  0.00  0.00    +0.000 N 
ATOM      8  C   UNL     1       2.894   7.007  19.199  0.00  0.00    +0.000 C 
ATOM      9  C   UNL     1       4.439   6.364  17.376  0.00  0.00    +0.000 C 
ATOM     10  O   UNL     1       5.185   7.327  17.451  0.00  0.00    +0.000 OA
ATOM     11  C   UNL     1       4.598   5.221  16.389  0.00  0.00    +0.000 C 
ATOM     12  H   UNL     1       5.764   3.686  18.501  0.00  0.00    +0.000 HD
ENDROOT
BRANCH   3  13
ATOM     13  C   UNL     1       3.390   2.814  18.883  0.00  0.00    +0.000 A 
ATOM     14  C   UNL     1       4.233   2.599  19.989  0.00  0.00    +0.000 A 
ATOM     15  C   UNL     1       3.705   2.445  21.277  0.00  0.00    +0.000 A 
ATOM     16  C   UNL     1       2.326   2.454  21.472  0.00  0.00    +0.000 A 
ATOM     17  C   UNL     1       1.489   2.564  20.374  0.00  0.00    +0.000 A 
ATOM     18  F   UNL     1       0.160   2.532  20.545  0.00  0.00    +0.000 F 
ATOM     19  C   UNL     1       2.003   2.729  19.093  0.00  0.00    +0.000 A 
ENDBRANCH   3  13
BRANCH   1  21
ATOM     20  C   UNL     1       5.833   4.240  13.987  0.00  0.00    +0.000 C 
ATOM     21  C   UNL     1       6.277   3.597  15.307  0.00  0.00    +0.000 C 
ENDBRANCH   1  21
BRANCH   1  22
ATOM     22  C   UNL     1       7.051   5.176  17.142  0.00  0.00    +0.000 C 
ATOM     23  O   UNL     1       7.634   6.053  16.511  0.00  0.00    +0.000 OA
BRANCH  22  24
ATOM     24  O   UNL     1       7.379   4.768  18.405  0.00  0.00    +0.000 OA
ATOM     25  C   UNL     1       7.808   5.817  19.276  0.00  0.00    +0.000 C 
ENDBRANCH  22  24
ENDBRANCH   1  22
TORSDOF 4
ENDMDL
MODEL 2
REMARK VINA RESULT:      -7.0      1.047      1.303
REMARK  Name = 
REMARK  7 active torsions:
REMARK  status: ('A' for Active; 'I' for Inactive)
REMARK    1  A    between atoms: C_1  and  C_2
REMARK    2  A    between atoms: C_2  and  C_3
REMARK    3  A    between atoms: C_3  and  C_4
REMARK    4  A    between atoms: C_4  and  O_6
REMARK    5  A    between atoms: O_6  and  C_7
REMARK    6  A    between atoms: C_9  and  C_10
REMARK    7  A    between atoms: N_20  and  C_21
REMARK                            x       y       z     vdW  Elec       q    Type
REMARK                         _______ _______ _______ _____ _____    ______ ____
ROOT
ATOM      1  C   UNL     1       5.727   4.414  17.096  0.00  0.00    +0.000 C 
ATOM      2  N   UNL     1       5.136   3.504  18.113  0.00  0.00    +0.000 NA
ATOM      3  C   UNL     1       3.698   3.339  17.838  0.00  0.00    +0.000 C 
ATOM      4  C   UNL     1       3.285   4.436  16.853  0.00  0.00    +0.000 C 
ATOM      5  C   UNL     1       2.302   5.398  17.449  0.00  0.00    +0.000 C 
ATOM      6  O   UNL     1       1.095   5.251  17.454  0.00  0.00    +0.000 OA
ATOM      7  N   UNL     1       3.024   6.411  18.000  0.00  0.00    +0.000 N 
ATOM      8  C   UNL     1       2.487   7.357  18.950  0.00  0.00    +0.000 C 
ATOM      9  C   UNL     1       4.275   6.509  17.464  0.00  0.00    +0.000 C 
ATOM     10  O   UNL     1       5.034   7.459  17.569  0.00  0.00    +0.000 OA
ATOM     11  C   UNL     1       4.547   5.273  16.625  0.00  0.00    +0.000 C 
ATOM     12  H   UNL     1       5.310   3.925  19.028  0.00  0.00    +0.000 HD
ENDROOT
BRANCH   3  13
ATOM     13  C   UNL     1       2.876   3.143  19.103  0.00  0.00    +0.000 A 
ATOM     14  C   UNL     1       1.854   2.176  19.129  0.00  0.00    +0.000 A 
ATOM     15  C   UNL     1       1.191   1.860  20.321  0.00  0.00    +0.000 A 
ATOM     16  C   UNL     1       1.503   2.541  21.495  0.00  0.00    +0.000 A 
ATOM     17  C   UNL     1       2.437   3.564  21.455  0.00  0.00    +0.000 A 
ATOM     18  F   UNL     1       2.716   4.254  22.569  0.00  0.00    +0.000 F 
ATOM     19  C   UNL     1       3.110   3.876  20.280  0.00  0.00    +0.000 A 
ENDBRANCH   3  13
BRANCH   1  21
ATOM     20  C   UNL     1       6.103   4.037  14.551  0.00  0.00    +0.000 C 
ATOM     21  C   UNL     1       6.316   3.518  15.979  0.00  0.00    +0.000 C 
ENDBRANCH   1  21
BRANCH   1  22
ATOM     22  C   UNL     1       6.847   5.250  17.761  0.00  0.00    +0.000 C 
ATOM     23  O   UNL     1       7.652   5.933  17.135  0.00  0.00    +0.000 OA
BRANCH  22  24
ATOM     24  O   UNL     1       6.832   5.104  19.121  0.00  0.00    +0.000 OA
ATOM     25  C   UNL     1       7.992   5.611  19.785  0.00  0.00    +0.000 C 
ENDBRANCH  22  24
ENDBRANCH   1  22
TORSDOF 4
ENDMDL
MODEL 3
REMARK VINA RESULT:      -6.9      0.786      1.025
REMARK  Name = 
REMARK  7 active torsions:
REMARK  status: ('A' for Active; 'I' for Inactive)
REMARK    1  A    between atoms: C_1  and  C_2
REMARK    2  A    between atoms: C_2  and  C_3
REMARK    3  A    between atoms: C_3  and  C_4
REMARK    4  A    between atoms: C_4  and  O_6
REMARK    5  A    between atoms: O_6  and  C_7
REMARK    6  A    between atoms: C_9  and  C_10
REMARK    7  A    between atoms: N_20  and  C_21
REMARK                            x       y       z     vdW  Elec       q    Type
REMARK                         _______ _______ _______ _____ _____    ______ ____
ROOT
ATOM      1  C   UNL     1       6.028   4.815  17.087  0.00  0.00    +0.000 C 
ATOM      2  N   UNL     1       5.592   3.738  18.016  0.00  0.00    +0.000 NA
ATOM      3  C   UNL     1       4.202   3.363  17.706  0.00  0.00    +0.000 C 
ATOM      4  C   UNL     1       3.615   4.456  16.808  0.00  0.00    +0.000 C 
ATOM      5  C   UNL     1       2.486   5.191  17.467  0.00  0.00    +0.000 C 
ATOM      6  O   UNL     1       1.319   4.848  17.440  0.00  0.00    +0.000 OA
ATOM      7  N   UNL     1       3.030   6.258  18.110  0.00  0.00    +0.000 N 
ATOM      8  C   UNL     1       2.342   7.020  19.127  0.00  0.00    +0.000 C 
ATOM      9  C   UNL     1       4.249   6.606  17.604  0.00  0.00    +0.000 C 
ATOM     10  O   UNL     1       4.841   7.655  17.799  0.00  0.00    +0.000 OA
ATOM     11  C   UNL     1       4.722   5.506  16.670  0.00  0.00    +0.000 C 
ATOM     12  H   UNL     1       5.693   4.104  18.965  0.00  0.00    +0.000 HD
ENDROOT
BRANCH   3  13
ATOM     13  C   UNL     1       3.421   2.930  18.938  0.00  0.00    +0.000 A 
ATOM     14  C   UNL     1       4.082   2.800  20.173  0.00  0.00    +0.000 A 
ATOM     15  C   UNL     1       3.364   2.562  21.352  0.00  0.00    +0.000 A 
ATOM     16  C   UNL     1       1.982   2.400  21.308  0.00  0.00    +0.000 A 
ATOM     17  C   UNL     1       1.337   2.427  20.082  0.00  0.00    +0.000 A 
ATOM     18  F   UNL     1       0.013   2.232  20.022  0.00  0.00    +0.000 F 
ATOM     19  C   UNL     1       2.039   2.675  18.907  0.00  0.00    +0.000 A 
ENDBRANCH   3  13
BRANCH   1  21
ATOM     20  C   UNL     1       6.297   4.564  14.514  0.00  0.00    +0.000 C 
ATOM     21  C   UNL     1       6.758   4.125  15.910  0.00  0.00    +0.000 C 
ENDBRANCH   1  21
BRANCH   1  22
ATOM     22  C   UNL     1       6.993   5.765  17.837  0.00  0.00    +0.000 C 
ATOM     23  O   UNL     1       7.161   5.745  19.053  0.00  0.00    +0.000 OA
BRANCH  22  24
ATOM     24  O   UNL     1       7.601   6.635  16.974  0.00  0.00    +0.000 OA
ATOM     25  C   UNL     1       7.924   7.906  17.542  0.00  0.00    +0.000 C 
ENDBRANCH  22  24
ENDBRANCH   1  22
TORSDOF 4
ENDMDL
MODEL 4
REMARK VINA RESULT:      -6.6      2.324      4.886
REMARK  Name = 
REMARK  7 active torsions:
REMARK  status: ('A' for Active; 'I' for Inactive)
REMARK    1  A    between atoms: C_1  and  C_2
REMARK    2  A    between atoms: C_2  and  C_3
REMARK    3  A    between atoms: C_3  and  C_4
REMARK    4  A    between atoms: C_4  and  O_6
REMARK    5  A    between atoms: O_6  and  C_7
REMARK    6  A    between atoms: C_9  and  C_10
REMARK    7  A    between atoms: N_20  and  C_21
REMARK                            x       y       z     vdW  Elec       q    Type
REMARK                         _______ _______ _______ _____ _____    ______ ____
ROOT
ATOM      1  C   UNL     1       3.233   3.196  18.680  0.00  0.00    +0.000 C 
ATOM      2  N   UNL     1       2.343   4.341  19.012  0.00  0.00    +0.000 NA
ATOM      3  C   UNL     1       2.374   5.315  17.908  0.00  0.00    +0.000 C 
ATOM      4  C   UNL     1       3.572   4.970  17.018  0.00  0.00    +0.000 C 
ATOM      5  C   UNL     1       4.611   6.051  17.014  0.00  0.00    +0.000 C 
ATOM      6  O   UNL     1       4.614   7.014  16.271  0.00  0.00    +0.000 OA
ATOM      7  N   UNL     1       5.491   5.757  18.008  0.00  0.00    +0.000 N 
ATOM      8  C   UNL     1       6.437   6.705  18.549  0.00  0.00    +0.000 C 
ATOM      9  C   UNL     1       5.466   4.437  18.353  0.00  0.00    +0.000 C 
ATOM     10  O   UNL     1       6.306   3.845  19.011  0.00  0.00    +0.000 OA
ATOM     11  C   UNL     1       4.259   3.785  17.703  0.00  0.00    +0.000 C 
ATOM     12  H   UNL     1       2.684   4.738  19.890  0.00  0.00    +0.000 HD
ENDROOT
BRANCH   3  13
ATOM     13  C   UNL     1       2.206   6.750  18.384  0.00  0.00    +0.000 A 
ATOM     14  C   UNL     1       2.054   7.785  17.443  0.00  0.00    +0.000 A 
ATOM     15  C   UNL     1       1.736   9.087  17.849  0.00  0.00    +0.000 A 
ATOM     16  C   UNL     1       1.616   9.387  19.204  0.00  0.00    +0.000 A 
ATOM     17  C   UNL     1       1.864   8.395  20.140  0.00  0.00    +0.000 A 
ATOM     18  F   UNL     1       1.792   8.681  21.446  0.00  0.00    +0.000 F 
ATOM     19  C   UNL     1       2.168   7.097  19.746  0.00  0.00    +0.000 A 
ENDBRANCH   3  13
BRANCH   1  21
ATOM     20  C   UNL     1       0.895   2.067  18.558  0.00  0.00    +0.000 C 
ATOM     21  C   UNL     1       2.339   2.103  18.044  0.00  0.00    +0.000 C 
ENDBRANCH   1  21
BRANCH   1  22
ATOM     22  C   UNL     1       3.882   2.670  19.983  0.00  0.00    +0.000 C 
ATOM     23  O   UNL     1       4.708   1.763  20.015  0.00  0.00    +0.000 OA
BRANCH  22  24
ATOM     24  O   UNL     1       3.395   3.328  21.079  0.00  0.00    +0.000 OA
ATOM     25  C   UNL     1       2.386   2.617  21.799  0.00  0.00    +0.000 C 
ENDBRANCH  22  24
ENDBRANCH   1  22
TORSDOF 4
ENDMDL
MODEL 5
REMARK VINA RESULT:      -6.6      2.486      4.342
REMARK  Name = 
REMARK  7 active torsions:
REMARK  status: ('A' for Active; 'I' for Inactive)
REMARK    1  A    between atoms: C_1  and  C_2
REMARK    2  A    between atoms: C_2  and  C_3
REMARK    3  A    between atoms: C_3  and  C_4
REMARK    4  A    between atoms: C_4  and  O_6
REMARK    5  A    between atoms: O_6  and  C_7
REMARK    6  A    between atoms: C_9  and  C_10
REMARK    7  A    between atoms: N_20  and  C_21
REMARK                            x       y       z     vdW  Elec       q    Type
REMARK                         _______ _______ _______ _____ _____    ______ ____
ROOT
ATOM      1  C   UNL     1       5.594   5.260  17.699  0.00  0.00    +0.000 C 
ATOM      2  N   UNL     1       4.972   6.533  18.151  0.00  0.00    +0.000 NA
ATOM      3  C   UNL     1       4.132   6.269  19.333  0.00  0.00    +0.000 C 
ATOM      4  C   UNL     1       3.924   4.755  19.426  0.00  0.00    +0.000 C 
ATOM      5  C   UNL     1       2.488   4.364  19.241  0.00  0.00    +0.000 C 
ATOM      6  O   UNL     1       1.659   4.312  20.130  0.00  0.00    +0.000 OA
ATOM      7  N   UNL     1       2.310   4.128  17.914  0.00  0.00    +0.000 N 
ATOM      8  C   UNL     1       1.015   4.054  17.278  0.00  0.00    +0.000 C 
ATOM      9  C   UNL     1       3.482   3.849  17.272  0.00  0.00    +0.000 C 
ATOM     10  O   UNL     1       3.598   3.353  16.164  0.00  0.00    +0.000 OA
ATOM     11  C   UNL     1       4.637   4.171  18.203  0.00  0.00    +0.000 C 
ATOM     12  H   UNL     1       4.430   6.897  17.364  0.00  0.00    +0.000 HD
ENDROOT
BRANCH   3  13
ATOM     13  C   UNL     1       2.916   7.181  19.407  0.00  0.00    +0.000 A 
ATOM     14  C   UNL     1       2.215   7.313  20.620  0.00  0.00    +0.000 A 
ATOM     15  C   UNL     1       1.196   8.263  20.763  0.00  0.00    +0.000 A 
ATOM     16  C   UNL     1       0.828   9.061  19.683  0.00  0.00    +0.000 A 
ATOM     17  C   UNL     1       1.447   8.867  18.458  0.00  0.00    +0.000 A 
ATOM     18  F   UNL     1       1.073   9.601  17.401  0.00  0.00    +0.000 F 
ATOM     19  C   UNL     1       2.467   7.935  18.309  0.00  0.00    +0.000 A 
ENDBRANCH   3  13
BRANCH   1  21
ATOM     20  C   UNL     1       7.751   6.525  18.410  0.00  0.00    +0.000 C 
ATOM     21  C   UNL     1       6.997   5.190  18.350  0.00  0.00    +0.000 C 
ENDBRANCH   1  21
BRANCH   1  22
ATOM     22  C   UNL     1       5.716   5.281  16.156  0.00  0.00    +0.000 C 
ATOM     23  O   UNL     1       5.234   6.159  15.446  0.00  0.00    +0.000 OA
BRANCH  22  24
ATOM     24  O   UNL     1       6.399   4.189  15.699  0.00  0.00    +0.000 OA
ATOM     25  C   UNL     1       6.498   4.103  14.275  0.00  0.00    +0.000 C 
ENDBRANCH  22  24
ENDBRANCH   1  22
TORSDOF 4
ENDMDL
MODEL 6
REMARK VINA RESULT:      -6.6      2.416      5.511
REMARK  Name = 
REMARK  7 active torsions:
REMARK  status: ('A' for Active; 'I' for Inactive)
REMARK    1  A    between atoms: C_1  and  C_2
REMARK    2  A    between atoms: C_2  and  C_3
REMARK    3  A    between atoms: C_3  and  C_4
REMARK    4  A    between atoms: C_4  and  O_6
REMARK    5  A    between atoms: O_6  and  C_7
REMARK    6  A    between atoms: C_9  and  C_10
REMARK    7  A    between atoms: N_20  and  C_21
REMARK                            x       y       z     vdW  Elec       q    Type
REMARK                         _______ _______ _______ _____ _____    ______ ____
ROOT
ATOM      1  C   UNL     1       3.962   3.645  18.797  0.00  0.00    +0.000 C 
ATOM      2  N   UNL     1       4.581   3.222  17.513  0.00  0.00    +0.000 NA
ATOM      3  C   UNL     1       5.803   4.011  17.280  0.00  0.00    +0.000 C 
ATOM      4  C   UNL     1       5.775   5.203  18.241  0.00  0.00    +0.000 C 
ATOM      5  C   UNL     1       5.682   6.515  17.521  0.00  0.00    +0.000 C 
ATOM      6  O   UNL     1       6.631   7.152  17.104  0.00  0.00    +0.000 OA
ATOM      7  N   UNL     1       4.359   6.808  17.401  0.00  0.00    +0.000 N 
ATOM      8  C   UNL     1       3.835   7.801  16.492  0.00  0.00    +0.000 C 
ATOM      9  C   UNL     1       3.595   6.149  18.319  0.00  0.00    +0.000 C 
ATOM     10  O   UNL     1       2.439   6.407  18.617  0.00  0.00    +0.000 OA
ATOM     11  C   UNL     1       4.446   5.088  18.993  0.00  0.00    +0.000 C 
ATOM     12  H   UNL     1       3.881   3.366  16.782  0.00  0.00    +0.000 HD
ENDROOT
BRANCH   3  13
ATOM     13  C   UNL     1       6.065   4.268  15.803  0.00  0.00    +0.000 A 
ATOM     14  C   UNL     1       7.302   4.801  15.397  0.00  0.00    +0.000 A 
ATOM     15  C   UNL     1       7.634   4.897  14.040  0.00  0.00    +0.000 A 
ATOM     16  C   UNL     1       6.717   4.507  13.067  0.00  0.00    +0.000 A 
ATOM     17  C   UNL     1       5.460   4.075  13.458  0.00  0.00    +0.000 A 
ATOM     18  F   UNL     1       4.555   3.737  12.530  0.00  0.00    +0.000 F 
ATOM     19  C   UNL     1       5.125   3.965  14.803  0.00  0.00    +0.000 A 
ENDBRANCH   3  13
BRANCH   1  21
ATOM     20  C   UNL     1       4.406   1.186  19.515  0.00  0.00    +0.000 C 
ATOM     21  C   UNL     1       4.478   2.673  19.886  0.00  0.00    +0.000 C 
ENDBRANCH   1  21
BRANCH   1  22
ATOM     22  C   UNL     1       2.422   3.543  18.670  0.00  0.00    +0.000 C 
ATOM     23  O   UNL     1       1.836   3.365  17.606  0.00  0.00    +0.000 OA
BRANCH  22  24
ATOM     24  O   UNL     1       1.814   3.706  19.883  0.00  0.00    +0.000 OA
ATOM     25  C   UNL     1       0.730   2.806  20.129  0.00  0.00    +0.000 C 
ENDBRANCH  22  24
ENDBRANCH   1  22
TORSDOF 4
ENDMDL
MODEL 7
REMARK VINA RESULT:      -6.2      7.846     10.930
REMARK  Name = 
REMARK  7 active torsions:
REMARK  status: ('A' for Active; 'I' for Inactive)
REMARK    1  A    between atoms: C_1  and  C_2
REMARK    2  A    between atoms: C_2  and  C_3
REMARK    3  A    between atoms: C_3  and  C_4
REMARK    4  A    between atoms: C_4  and  O_6
REMARK    5  A    between atoms: O_6  and  C_7
REMARK    6  A    between atoms: C_9  and  C_10
REMARK    7  A    between atoms: N_20  and  C_21
REMARK                            x       y       z     vdW  Elec       q    Type
REMARK                         _______ _______ _______ _____ _____    ______ ____
ROOT
ATOM      1  C   UNL     1       0.037  11.131  19.075  0.00  0.00    +0.000 C 
ATOM      2  N   UNL     1       1.012  12.105  18.516  0.00  0.00    +0.000 NA
ATOM      3  C   UNL     1       1.772  12.718  19.620  0.00  0.00    +0.000 C 
ATOM      4  C   UNL     1       1.032  12.404  20.923  0.00  0.00    +0.000 C 
ATOM      5  C   UNL     1       0.502  13.638  21.591  0.00  0.00    +0.000 C 
ATOM      6  O   UNL     1       1.127  14.334  22.368  0.00  0.00    +0.000 OA
ATOM      7  N   UNL     1      -0.762  13.827  21.126  0.00  0.00    +0.000 N 
ATOM      8  C   UNL     1      -1.489  15.068  21.260  0.00  0.00    +0.000 C 
ATOM      9  C   UNL     1      -1.311  12.681  20.629  0.00  0.00    +0.000 C 
ATOM     10  O   UNL     1      -2.493  12.490  20.392  0.00  0.00    +0.000 OA
ATOM     11  C   UNL     1      -0.222  11.631  20.503  0.00  0.00    +0.000 C 
ATOM     12  H   UNL     1       0.475  12.794  17.985  0.00  0.00    +0.000 HD
ENDROOT
BRANCH   3  13
ATOM     13  C   UNL     1       2.169  14.159  19.332  0.00  0.00    +0.000 A 
ATOM     14  C   UNL     1       3.454  14.611  19.682  0.00  0.00    +0.000 A 
ATOM     15  C   UNL     1       3.905  15.877  19.286  0.00  0.00    +0.000 A 
ATOM     16  C   UNL     1       3.061  16.729  18.578  0.00  0.00    +0.000 A 
ATOM     17  C   UNL     1       1.760  16.328  18.318  0.00  0.00    +0.000 A 
ATOM     18  F   UNL     1       0.926  17.155  17.674  0.00  0.00    +0.000 F 
ATOM     19  C   UNL     1       1.307  15.069  18.696  0.00  0.00    +0.000 A 
ENDBRANCH   3  13
BRANCH   1  21
ATOM     20  C   UNL     1       1.640   9.511  17.827  0.00  0.00    +0.000 C 
ATOM     21  C   UNL     1       0.714   9.740  19.028  0.00  0.00    +0.000 C 
ENDBRANCH   1  21
BRANCH   1  22
ATOM     22  C   UNL     1      -1.239  11.140  18.199  0.00  0.00    +0.000 C 
ATOM     23  O   UNL     1      -1.547  12.064  17.452  0.00  0.00    +0.000 OA
BRANCH  22  24
ATOM     24  O   UNL     1      -1.979  10.006  18.391  0.00  0.00    +0.000 OA
ATOM     25  C   UNL     1      -3.014   9.802  17.427  0.00  0.00    +0.000 C 
ENDBRANCH  22  24
ENDBRANCH   1  22
TORSDOF 4
ENDMDL
MODEL 8
REMARK VINA RESULT:      -6.2      9.330     11.788
REMARK  Name = 
REMARK  7 active torsions:
REMARK  status: ('A' for Active; 'I' for Inactive)
REMARK    1  A    between atoms: C_1  and  C_2
REMARK    2  A    between atoms: C_2  and  C_3
REMARK    3  A    between atoms: C_3  and  C_4
REMARK    4  A    between atoms: C_4  and  O_6
REMARK    5  A    between atoms: O_6  and  C_7
REMARK    6  A    between atoms: C_9  and  C_10
REMARK    7  A    between atoms: N_20  and  C_21
REMARK                            x       y       z     vdW  Elec       q    Type
REMARK                         _______ _______ _______ _____ _____    ______ ____
ROOT
ATOM      1  C   UNL     1      -0.770  12.329  20.628  0.00  0.00    +0.000 C 
ATOM      2  N   UNL     1      -2.101  11.910  21.142  0.00  0.00    +0.000 NA
ATOM      3  C   UNL     1      -3.062  13.011  20.956  0.00  0.00    +0.000 C 
ATOM      4  C   UNL     1      -2.260  14.280  20.651  0.00  0.00    +0.000 C 
ATOM      5  C   UNL     1      -2.409  15.320  21.721  0.00  0.00    +0.000 C 
ATOM      6  O   UNL     1      -3.295  16.153  21.766  0.00  0.00    +0.000 OA
ATOM      7  N   UNL     1      -1.406  15.114  22.615  0.00  0.00    +0.000 N 
ATOM      8  C   UNL     1      -1.388  15.678  23.946  0.00  0.00    +0.000 C 
ATOM      9  C   UNL     1      -0.363  14.419  22.078  0.00  0.00    +0.000 C 
ATOM     10  O   UNL     1       0.758  14.317  22.550  0.00  0.00    +0.000 OA
ATOM     11  C   UNL     1      -0.789  13.860  20.732  0.00  0.00    +0.000 C 
ATOM     12  H   UNL     1      -1.977  11.665  22.127  0.00  0.00    +0.000 HD
ENDROOT
BRANCH   3  13
ATOM     13  C   UNL     1      -4.121  13.059  22.047  0.00  0.00    +0.000 A 
ATOM     14  C   UNL     1      -5.438  13.432  21.725  0.00  0.00    +0.000 A 
ATOM     15  C   UNL     1      -6.468  13.330  22.669  0.00  0.00    +0.000 A 
ATOM     16  C   UNL     1      -6.187  12.901  23.964  0.00  0.00    +0.000 A 
ATOM     17  C   UNL     1      -4.875  12.627  24.316  0.00  0.00    +0.000 A 
ATOM     18  F   UNL     1      -4.587  12.253  25.570  0.00  0.00    +0.000 F 
ATOM     19  C   UNL     1      -3.849  12.714  23.383  0.00  0.00    +0.000 A 
ENDBRANCH   3  13
BRANCH   1  21
ATOM     20  C   UNL     1      -1.082  10.353  18.969  0.00  0.00    +0.000 C 
ATOM     21  C   UNL     1      -0.669  11.816  19.171  0.00  0.00    +0.000 C 
ENDBRANCH   1  21
BRANCH   1  22
ATOM     22  C   UNL     1       0.332  11.685  21.504  0.00  0.00    +0.000 C 
ATOM     23  O   UNL     1       1.516  11.634  21.183  0.00  0.00    +0.000 OA
BRANCH  22  24
ATOM     24  O   UNL     1      -0.192  11.164  22.655  0.00  0.00    +0.000 OA
ATOM     25  C   UNL     1       0.058   9.769  22.842  0.00  0.00    +0.000 C 
ENDBRANCH  22  24
ENDBRANCH   1  22
TORSDOF 4
ENDMDL
MODEL 9
REMARK VINA RESULT:      -6.2      2.402      4.396
REMARK  Name = 
REMARK  7 active torsions:
REMARK  status: ('A' for Active; 'I' for Inactive)
REMARK    1  A    between atoms: C_1  and  C_2
REMARK    2  A    between atoms: C_2  and  C_3
REMARK    3  A    between atoms: C_3  and  C_4
REMARK    4  A    between atoms: C_4  and  O_6
REMARK    5  A    between atoms: O_6  and  C_7
REMARK    6  A    between atoms: C_9  and  C_10
REMARK    7  A    between atoms: N_20  and  C_21
REMARK                            x       y       z     vdW  Elec       q    Type
REMARK                         _______ _______ _______ _____ _____    ______ ____
ROOT
ATOM      1  C   UNL     1       5.610   5.485  17.581  0.00  0.00    +0.000 C 
ATOM      2  N   UNL     1       4.996   6.806  17.882  0.00  0.00    +0.000 NA
ATOM      3  C   UNL     1       4.156   6.688  19.086  0.00  0.00    +0.000 C 
ATOM      4  C   UNL     1       3.938   5.196  19.355  0.00  0.00    +0.000 C 
ATOM      5  C   UNL     1       2.500   4.795  19.217  0.00  0.00    +0.000 C 
ATOM      6  O   UNL     1       1.670   4.853  20.105  0.00  0.00    +0.000 OA
ATOM      7  N   UNL     1       2.319   4.407  17.926  0.00  0.00    +0.000 N 
ATOM      8  C   UNL     1       1.023   4.267  17.303  0.00  0.00    +0.000 C 
ATOM      9  C   UNL     1       3.488   4.048  17.322  0.00  0.00    +0.000 C 
ATOM     10  O   UNL     1       3.602   3.424  16.279  0.00  0.00    +0.000 OA
ATOM     11  C   UNL     1       4.647   4.468  18.209  0.00  0.00    +0.000 C 
ATOM     12  H   UNL     1       4.457   7.078  17.057  0.00  0.00    +0.000 HD
ENDROOT
BRANCH   3  13
ATOM     13  C   UNL     1       2.946   7.610  19.052  0.00  0.00    +0.000 A 
ATOM     14  C   UNL     1       2.567   8.219  17.841  0.00  0.00    +0.000 A 
ATOM     15  C   UNL     1       1.370   8.939  17.742  0.00  0.00    +0.000 A 
ATOM     16  C   UNL     1       0.559   9.105  18.861  0.00  0.00    +0.000 A 
ATOM     17  C   UNL     1       0.977   8.594  20.080  0.00  0.00    +0.000 A 
ATOM     18  F   UNL     1       0.225   8.782  21.173  0.00  0.00    +0.000 F 
ATOM     19  C   UNL     1       2.157   7.866  20.186  0.00  0.00    +0.000 A 
ENDBRANCH   3  13
BRANCH   1  21
ATOM     20  C   UNL     1       7.749   6.828  18.196  0.00  0.00    +0.000 C 
ATOM     21  C   UNL     1       7.013   5.482  18.236  0.00  0.00    +0.000 C 
ENDBRANCH   1  21
BRANCH   1  22
ATOM     22  C   UNL     1       5.731   5.324  16.047  0.00  0.00    +0.000 C 
ATOM     23  O   UNL     1       5.247   6.111  15.239  0.00  0.00    +0.000 OA
BRANCH  22  24
ATOM     24  O   UNL     1       6.418   4.188  15.720  0.00  0.00    +0.000 OA
ATOM     25  C   UNL     1       6.474   3.909  14.319  0.00  0.00    +0.000 C 
ENDBRANCH  22  24
ENDBRANCH   1  22
TORSDOF 4
ENDMDL
