MODEL 1
REMARK VINA RESULT:      -6.9      0.000      0.000
REMARK  Name = 
REMARK  3 active torsions:
REMARK  status: ('A' for Active; 'I' for Inactive)
REMARK    1  A    between atoms: C_1  and  C_2
REMARK    2  A    between atoms: C_4  and  C_5
REMARK    3  A    between atoms: C_19  and  C_20
REMARK                            x       y       z     vdW  Elec       q    Type
REMARK                         _______ _______ _______ _____ _____    ______ ____
ROOT
ATOM      1  C   UNL     1       9.983  18.534  17.138  0.00  0.00    +0.000 C 
ATOM      2  C   UNL     1       9.970  17.382  18.071  0.00  0.00    +0.000 A 
ATOM      3  N   UNL     1      10.451  16.190  17.813  0.00  0.00    +0.000 NA
ATOM      4  C   UNL     1      10.243  15.443  18.947  0.00  0.00    +0.000 A 
ATOM      5  C   UNL     1       9.548  16.169  19.918  0.00  0.00    +0.000 A 
ATOM      6  C   UNL     1       8.977  15.985  21.254  0.00  0.00    +0.000 A 
ATOM      7  N   UNL     1       8.850  14.785  21.965  0.00  0.00    +0.000 N 
ATOM      8  C   UNL     1       8.311  13.571  21.296  0.00  0.00    +0.000 C 
ATOM      9  C   UNL     1       8.844  12.276  21.968  0.00  0.00    +0.000 C 
ATOM     10  C   UNL     1       8.269  12.266  23.317  0.00  0.00    +0.000 A 
ATOM     11  N   UNL     1       7.590  11.260  23.915  0.00  0.00    +0.000 NA
ATOM     12  C   UNL     1       6.943  11.871  24.895  0.00  0.00    +0.000 A 
ATOM     13  O   UNL     1       7.224  13.238  24.995  0.00  0.00    +0.000 OA
ATOM     14  C   UNL     1       8.131  13.447  23.989  0.00  0.00    +0.000 A 
ATOM     15  C   UNL     1       8.670  14.766  23.485  0.00  0.00    +0.000 C 
ATOM     16  N   UNL     1       8.523  17.074  21.824  0.00  0.00    +0.000 NA
ATOM     17  C   UNL     1       8.504  18.269  21.149  0.00  0.00    +0.000 A 
ATOM     18  N   UNL     1       8.919  18.502  19.946  0.00  0.00    +0.000 NA
ATOM     19  N   UNL     1       9.449  17.419  19.347  0.00  0.00    +0.000 N 
ENDROOT
BRANCH   4  20
ATOM     20  C   UNL     1      10.673  14.063  18.938  0.00  0.00    +0.000 A 
ATOM     21  C   UNL     1      11.798  13.714  19.712  0.00  0.00    +0.000 A 
ATOM     22  C   UNL     1      12.333  12.427  19.645  0.00  0.00    +0.000 A 
ATOM     23  C   UNL     1      11.744  11.473  18.822  0.00  0.00    +0.000 A 
ATOM     24  C   UNL     1      10.575  11.789  18.128  0.00  0.00    +0.000 A 
ATOM     25  C   UNL     1      10.036  13.070  18.208  0.00  0.00    +0.000 A 
ATOM     26  F   UNL     1       8.927  13.340  17.503  0.00  0.00    +0.000 F 
ENDBRANCH   4  20
BRANCH  12  27
ATOM     27  C   UNL     1       5.920  11.113  25.759  0.00  0.00    +0.000 C 
ATOM     28  C   UNL     1       6.263  10.821  27.220  0.00  0.00    +0.000 C 
ATOM     29  C   UNL     1       5.244  11.856  26.898  0.00  0.00    +0.000 C 
ENDBRANCH  12  27
TORSDOF 2
ENDMDL
MODEL 2
REMARK VINA RESULT:      -6.6     11.795     13.935
REMARK  Name = 
REMARK  3 active torsions:
REMARK  status: ('A' for Active; 'I' for Inactive)
REMARK    1  A    between atoms: C_1  and  C_2
REMARK    2  A    between atoms: C_4  and  C_5
REMARK    3  A    between atoms: C_19  and  C_20
REMARK                            x       y       z     vdW  Elec       q    Type
REMARK                         _______ _______ _______ _____ _____    ______ ____
ROOT
ATOM      1  C   UNL     1      -3.348  10.551  15.104  0.00  0.00    +0.000 C 
ATOM      2  C   UNL     1      -3.670  11.044  16.465  0.00  0.00    +0.000 A 
ATOM      3  N   UNL     1      -4.841  11.490  16.854  0.00  0.00    +0.000 NA
ATOM      4  C   UNL     1      -4.698  11.827  18.178  0.00  0.00    +0.000 A 
ATOM      5  C   UNL     1      -3.381  11.651  18.611  0.00  0.00    +0.000 A 
ATOM      6  C   UNL     1      -2.563  11.859  19.809  0.00  0.00    +0.000 A 
ATOM      7  N   UNL     1      -2.933  12.522  20.985  0.00  0.00    +0.000 N 
ATOM      8  C   UNL     1      -3.614  13.842  20.919  0.00  0.00    +0.000 C 
ATOM      9  C   UNL     1      -4.496  14.083  22.176  0.00  0.00    +0.000 C 
ATOM     10  C   UNL     1      -3.560  14.181  23.301  0.00  0.00    +0.000 A 
ATOM     11  N   UNL     1      -3.492  15.162  24.231  0.00  0.00    +0.000 NA
ATOM     12  C   UNL     1      -2.275  15.021  24.732  0.00  0.00    +0.000 A 
ATOM     13  O   UNL     1      -1.564  13.938  24.200  0.00  0.00    +0.000 OA
ATOM     14  C   UNL     1      -2.452  13.384  23.316  0.00  0.00    +0.000 A 
ATOM     15  C   UNL     1      -2.193  12.290  22.305  0.00  0.00    +0.000 C 
ATOM     16  N   UNL     1      -1.345  11.379  19.744  0.00  0.00    +0.000 NA
ATOM     17  C   UNL     1      -0.867  10.819  18.586  0.00  0.00    +0.000 A 
ATOM     18  N   UNL     1      -1.496  10.664  17.467  0.00  0.00    +0.000 NA
ATOM     19  N   UNL     1      -2.772  11.091  17.510  0.00  0.00    +0.000 N 
ENDROOT
BRANCH   4  20
ATOM     20  C   UNL     1      -5.848  12.365  18.868  0.00  0.00    +0.000 A 
ATOM     21  C   UNL     1      -6.260  13.674  18.549  0.00  0.00    +0.000 A 
ATOM     22  C   UNL     1      -7.283  14.291  19.270  0.00  0.00    +0.000 A 
ATOM     23  C   UNL     1      -7.916  13.605  20.301  0.00  0.00    +0.000 A 
ATOM     24  C   UNL     1      -7.574  12.277  20.557  0.00  0.00    +0.000 A 
ATOM     25  C   UNL     1      -6.562  11.660  19.826  0.00  0.00    +0.000 A 
ATOM     26  F   UNL     1      -6.244  10.390  20.122  0.00  0.00    +0.000 F 
ENDBRANCH   4  20
BRANCH  12  27
ATOM     27  C   UNL     1      -1.713  16.037  25.741  0.00  0.00    +0.000 C 
ATOM     28  C   UNL     1      -0.697  17.071  25.255  0.00  0.00    +0.000 C 
ATOM     29  C   UNL     1      -2.085  17.500  25.577  0.00  0.00    +0.000 C 
ENDBRANCH  12  27
TORSDOF 2
ENDMDL
MODEL 3
REMARK VINA RESULT:      -6.5     11.555     13.727
REMARK  Name = 
REMARK  3 active torsions:
REMARK  status: ('A' for Active; 'I' for Inactive)
REMARK    1  A    between atoms: C_1  and  C_2
REMARK    2  A    between atoms: C_4  and  C_5
REMARK    3  A    between atoms: C_19  and  C_20
REMARK                            x       y       z     vdW  Elec       q    Type
REMARK                         _______ _______ _______ _____ _____    ______ ____
ROOT
ATOM      1  C   UNL     1      -3.537  10.407  15.084  0.00  0.00    +0.000 C 
ATOM      2  C   UNL     1      -3.733  10.911  16.465  0.00  0.00    +0.000 A 
ATOM      3  N   UNL     1      -4.865  11.352  16.960  0.00  0.00    +0.000 NA
ATOM      4  C   UNL     1      -4.599  11.703  18.260  0.00  0.00    +0.000 A 
ATOM      5  C   UNL     1      -3.245  11.543  18.567  0.00  0.00    +0.000 A 
ATOM      6  C   UNL     1      -2.319  11.769  19.680  0.00  0.00    +0.000 A 
ATOM      7  N   UNL     1      -2.580  12.441  20.880  0.00  0.00    +0.000 N 
ATOM      8  C   UNL     1      -3.277  13.755  20.867  0.00  0.00    +0.000 C 
ATOM      9  C   UNL     1      -4.036  14.001  22.200  0.00  0.00    +0.000 C 
ATOM     10  C   UNL     1      -2.999  14.119  23.230  0.00  0.00    +0.000 A 
ATOM     11  N   UNL     1      -2.851  15.109  24.139  0.00  0.00    +0.000 NA
ATOM     12  C   UNL     1      -1.590  14.983  24.523  0.00  0.00    +0.000 A 
ATOM     13  O   UNL     1      -0.924  13.901  23.936  0.00  0.00    +0.000 OA
ATOM     14  C   UNL     1      -1.887  13.330  23.146  0.00  0.00    +0.000 A 
ATOM     15  C   UNL     1      -1.716  12.228  22.125  0.00  0.00    +0.000 C 
ATOM     16  N   UNL     1      -1.108  11.299  19.503  0.00  0.00    +0.000 NA
ATOM     17  C   UNL     1      -0.738  10.731  18.310  0.00  0.00    +0.000 A 
ATOM     18  N   UNL     1      -1.469  10.560  17.257  0.00  0.00    +0.000 NA
ATOM     19  N   UNL     1      -2.739  10.976  17.419  0.00  0.00    +0.000 N 
ENDROOT
BRANCH   4  20
ATOM     20  C   UNL     1      -5.682  12.239  19.052  0.00  0.00    +0.000 A 
ATOM     21  C   UNL     1      -6.058  11.545  20.219  0.00  0.00    +0.000 A 
ATOM     22  C   UNL     1      -7.175  11.944  20.954  0.00  0.00    +0.000 A 
ATOM     23  C   UNL     1      -7.916  13.047  20.544  0.00  0.00    +0.000 A 
ATOM     24  C   UNL     1      -7.492  13.792  19.443  0.00  0.00    +0.000 A 
ATOM     25  C   UNL     1      -6.369  13.399  18.721  0.00  0.00    +0.000 A 
ATOM     26  F   UNL     1      -6.011  14.127  17.652  0.00  0.00    +0.000 F 
ENDBRANCH   4  20
BRANCH  12  27
ATOM     27  C   UNL     1      -0.944  16.014  25.464  0.00  0.00    +0.000 C 
ATOM     28  C   UNL     1      -0.262  17.240  24.856  0.00  0.00    +0.000 C 
ATOM     29  C   UNL     1      -1.565  17.396  25.558  0.00  0.00    +0.000 C 
ENDBRANCH  12  27
TORSDOF 2
ENDMDL
MODEL 4
REMARK VINA RESULT:      -6.4      8.230     10.151
REMARK  Name = 
REMARK  3 active torsions:
REMARK  status: ('A' for Active; 'I' for Inactive)
REMARK    1  A    between atoms: C_1  and  C_2
REMARK    2  A    between atoms: C_4  and  C_5
REMARK    3  A    between atoms: C_19  and  C_20
REMARK                            x       y       z     vdW  Elec       q    Type
REMARK                         _______ _______ _______ _____ _____    ______ ____
ROOT
ATOM      1  C   UNL     1       1.513  17.894  19.781  0.00  0.00    +0.000 C 
ATOM      2  C   UNL     1       1.055  16.497  19.975  0.00  0.00    +0.000 A 
ATOM      3  N   UNL     1       0.092  16.119  20.782  0.00  0.00    +0.000 NA
ATOM      4  C   UNL     1      -0.007  14.756  20.641  0.00  0.00    +0.000 A 
ATOM      5  C   UNL     1       0.969  14.259  19.773  0.00  0.00    +0.000 A 
ATOM      6  C   UNL     1       1.448  12.978  19.249  0.00  0.00    +0.000 A 
ATOM      7  N   UNL     1       1.064  11.696  19.658  0.00  0.00    +0.000 N 
ATOM      8  C   UNL     1       0.994  11.360  21.105  0.00  0.00    +0.000 C 
ATOM      9  C   UNL     1      -0.027  10.219  21.370  0.00  0.00    +0.000 C 
ATOM     10  C   UNL     1       0.533   9.030  20.719  0.00  0.00    +0.000 A 
ATOM     11  N   UNL     1       0.725   7.807  21.266  0.00  0.00    +0.000 NA
ATOM     12  C   UNL     1       1.608   7.247  20.453  0.00  0.00    +0.000 A 
ATOM     13  O   UNL     1       1.956   8.045  19.357  0.00  0.00    +0.000 OA
ATOM     14  C   UNL     1       1.196   9.171  19.534  0.00  0.00    +0.000 A 
ATOM     15  C   UNL     1       1.270  10.470  18.765  0.00  0.00    +0.000 C 
ATOM     16  N   UNL     1       2.352  13.063  18.304  0.00  0.00    +0.000 NA
ATOM     17  C   UNL     1       2.867  14.278  17.927  0.00  0.00    +0.000 A 
ATOM     18  N   UNL     1       2.554  15.445  18.388  0.00  0.00    +0.000 NA
ATOM     19  N   UNL     1       1.583  15.406  19.320  0.00  0.00    +0.000 N 
ENDROOT
BRANCH   4  20
ATOM     20  C   UNL     1      -0.996  14.063  21.434  0.00  0.00    +0.000 A 
ATOM     21  C   UNL     1      -0.903  14.151  22.837  0.00  0.00    +0.000 A 
ATOM     22  C   UNL     1      -1.752  13.404  23.654  0.00  0.00    +0.000 A 
ATOM     23  C   UNL     1      -2.713  12.577  23.081  0.00  0.00    +0.000 A 
ATOM     24  C   UNL     1      -2.870  12.559  21.695  0.00  0.00    +0.000 A 
ATOM     25  C   UNL     1      -2.029  13.317  20.884  0.00  0.00    +0.000 A 
ATOM     26  F   UNL     1      -2.195  13.251  19.554  0.00  0.00    +0.000 F 
ENDBRANCH   4  20
BRANCH  12  27
ATOM     27  C   UNL     1       2.227   5.878  20.782  0.00  0.00    +0.000 C 
ATOM     28  C   UNL     1       1.487   4.612  20.349  0.00  0.00    +0.000 C 
ATOM     29  C   UNL     1       2.729   5.017  19.637  0.00  0.00    +0.000 C 
ENDBRANCH  12  27
TORSDOF 2
ENDMDL
MODEL 5
REMARK VINA RESULT:      -6.4      2.582      4.144
REMARK  Name = 
REMARK  3 active torsions:
REMARK  status: ('A' for Active; 'I' for Inactive)
REMARK    1  A    between atoms: C_1  and  C_2
REMARK    2  A    between atoms: C_4  and  C_5
REMARK    3  A    between atoms: C_19  and  C_20
REMARK                            x       y       z     vdW  Elec       q    Type
REMARK                         _______ _______ _______ _____ _____    ______ ____
ROOT
ATOM      1  C   UNL     1      12.163  14.925  17.055  0.00  0.00    +0.000 C 
ATOM      2  C   UNL     1      10.948  14.680  17.869  0.00  0.00    +0.000 A 
ATOM      3  N   UNL     1       9.794  15.285  17.713  0.00  0.00    +0.000 NA
ATOM      4  C   UNL     1       8.955  14.751  18.660  0.00  0.00    +0.000 A 
ATOM      5  C   UNL     1       9.622  13.834  19.476  0.00  0.00    +0.000 A 
ATOM      6  C   UNL     1       9.367  12.990  20.647  0.00  0.00    +0.000 A 
ATOM      7  N   UNL     1       8.229  12.989  21.461  0.00  0.00    +0.000 N 
ATOM      8  C   UNL     1       7.655  14.271  21.951  0.00  0.00    +0.000 C 
ATOM      9  C   UNL     1       6.134  14.134  22.234  0.00  0.00    +0.000 C 
ATOM     10  C   UNL     1       6.024  13.201  23.361  0.00  0.00    +0.000 A 
ATOM     11  N   UNL     1       5.339  13.381  24.513  0.00  0.00    +0.000 NA
ATOM     12  C   UNL     1       5.885  12.493  25.331  0.00  0.00    +0.000 A 
ATOM     13  O   UNL     1       6.866  11.697  24.731  0.00  0.00    +0.000 OA
ATOM     14  C   UNL     1       6.889  12.147  23.437  0.00  0.00    +0.000 A 
ATOM     15  C   UNL     1       7.876  11.792  22.349  0.00  0.00    +0.000 C 
ATOM     16  N   UNL     1      10.335  12.164  20.962  0.00  0.00    +0.000 NA
ATOM     17  C   UNL     1      11.529  12.185  20.286  0.00  0.00    +0.000 A 
ATOM     18  N   UNL     1      11.861  12.945  19.294  0.00  0.00    +0.000 NA
ATOM     19  N   UNL     1      10.871  13.769  18.901  0.00  0.00    +0.000 N 
ENDROOT
BRANCH   4  20
ATOM     20  C   UNL     1       7.601  15.252  18.724  0.00  0.00    +0.000 A 
ATOM     21  C   UNL     1       6.587  14.506  18.092  0.00  0.00    +0.000 A 
ATOM     22  C   UNL     1       5.285  15.001  18.013  0.00  0.00    +0.000 A 
ATOM     23  C   UNL     1       4.977  16.234  18.579  0.00  0.00    +0.000 A 
ATOM     24  C   UNL     1       5.956  16.931  19.287  0.00  0.00    +0.000 A 
ATOM     25  C   UNL     1       7.251  16.426  19.375  0.00  0.00    +0.000 A 
ATOM     26  F   UNL     1       8.171  17.141  20.042  0.00  0.00    +0.000 F 
ENDBRANCH   4  20
BRANCH  12  27
ATOM     27  C   UNL     1       5.497  12.448  26.819  0.00  0.00    +0.000 C 
ATOM     28  C   UNL     1       6.441  13.076  27.845  0.00  0.00    +0.000 C 
ATOM     29  C   UNL     1       5.156  13.752  27.518  0.00  0.00    +0.000 C 
ENDBRANCH  12  27
TORSDOF 2
ENDMDL
MODEL 6
REMARK VINA RESULT:      -6.4      8.237     11.155
REMARK  Name = 
REMARK  3 active torsions:
REMARK  status: ('A' for Active; 'I' for Inactive)
REMARK    1  A    between atoms: C_1  and  C_2
REMARK    2  A    between atoms: C_4  and  C_5
REMARK    3  A    between atoms: C_19  and  C_20
REMARK                            x       y       z     vdW  Elec       q    Type
REMARK                         _______ _______ _______ _____ _____    ______ ____
ROOT
ATOM      1  C   UNL     1      -4.502  12.624  24.749  0.00  0.00    +0.000 C 
ATOM      2  C   UNL     1      -3.416  12.557  23.742  0.00  0.00    +0.000 A 
ATOM      3  N   UNL     1      -2.722  11.485  23.443  0.00  0.00    +0.000 NA
ATOM      4  C   UNL     1      -1.840  11.866  22.461  0.00  0.00    +0.000 A 
ATOM      5  C   UNL     1      -1.939  13.232  22.187  0.00  0.00    +0.000 A 
ATOM      6  C   UNL     1      -1.300  14.251  21.350  0.00  0.00    +0.000 A 
ATOM      7  N   UNL     1      -0.142  14.111  20.576  0.00  0.00    +0.000 N 
ATOM      8  C   UNL     1       1.070  13.466  21.149  0.00  0.00    +0.000 C 
ATOM      9  C   UNL     1       1.944  12.823  20.036  0.00  0.00    +0.000 C 
ATOM     10  C   UNL     1       2.441  13.943  19.230  0.00  0.00    +0.000 A 
ATOM     11  N   UNL     1       3.723  14.199  18.881  0.00  0.00    +0.000 NA
ATOM     12  C   UNL     1       3.696  15.481  18.548  0.00  0.00    +0.000 A 
ATOM     13  O   UNL     1       2.422  16.057  18.613  0.00  0.00    +0.000 OA
ATOM     14  C   UNL     1       1.625  15.014  19.004  0.00  0.00    +0.000 A 
ATOM     15  C   UNL     1       0.172  15.062  19.418  0.00  0.00    +0.000 C 
ATOM     16  N   UNL     1      -1.882  15.425  21.357  0.00  0.00    +0.000 NA
ATOM     17  C   UNL     1      -2.952  15.678  22.178  0.00  0.00    +0.000 A 
ATOM     18  N   UNL     1      -3.529  14.861  22.997  0.00  0.00    +0.000 NA
ATOM     19  N   UNL     1      -2.997  13.624  22.976  0.00  0.00    +0.000 N 
ENDROOT
BRANCH   4  20
ATOM     20  C   UNL     1      -0.930  10.869  21.944  0.00  0.00    +0.000 A 
ATOM     21  C   UNL     1      -0.149  10.142  22.864  0.00  0.00    +0.000 A 
ATOM     22  C   UNL     1       0.834   9.258  22.418  0.00  0.00    +0.000 A 
ATOM     23  C   UNL     1       1.036   9.077  21.054  0.00  0.00    +0.000 A 
ATOM     24  C   UNL     1       0.201   9.723  20.142  0.00  0.00    +0.000 A 
ATOM     25  C   UNL     1      -0.788  10.594  20.591  0.00  0.00    +0.000 A 
ATOM     26  F   UNL     1      -1.551  11.217  19.681  0.00  0.00    +0.000 F 
ENDBRANCH   4  20
BRANCH  12  27
ATOM     27  C   UNL     1       4.993  16.238  18.216  0.00  0.00    +0.000 C 
ATOM     28  C   UNL     1       5.822  16.816  19.363  0.00  0.00    +0.000 C 
ATOM     29  C   UNL     1       6.317  15.620  18.629  0.00  0.00    +0.000 C 
ENDBRANCH  12  27
TORSDOF 2
ENDMDL
MODEL 7
REMARK VINA RESULT:      -6.4      9.885     12.505
REMARK  Name = 
REMARK  3 active torsions:
REMARK  status: ('A' for Active; 'I' for Inactive)
REMARK    1  A    between atoms: C_1  and  C_2
REMARK    2  A    between atoms: C_4  and  C_5
REMARK    3  A    between atoms: C_19  and  C_20
REMARK                            x       y       z     vdW  Elec       q    Type
REMARK                         _______ _______ _______ _____ _____    ______ ____
ROOT
ATOM      1  C   UNL     1      -6.643  11.291  18.561  0.00  0.00    +0.000 C 
ATOM      2  C   UNL     1      -5.327  11.752  19.066  0.00  0.00    +0.000 A 
ATOM      3  N   UNL     1      -5.138  12.475  20.144  0.00  0.00    +0.000 NA
ATOM      4  C   UNL     1      -3.780  12.661  20.242  0.00  0.00    +0.000 A 
ATOM      5  C   UNL     1      -3.106  12.096  19.157  0.00  0.00    +0.000 A 
ATOM      6  C   UNL     1      -1.746  11.979  18.626  0.00  0.00    +0.000 A 
ATOM      7  N   UNL     1      -0.595  12.630  19.088  0.00  0.00    +0.000 N 
ATOM      8  C   UNL     1      -0.624  14.088  19.377  0.00  0.00    +0.000 C 
ATOM      9  C   UNL     1       0.439  14.470  20.444  0.00  0.00    +0.000 C 
ATOM     10  C   UNL     1       1.739  14.222  19.813  0.00  0.00    +0.000 A 
ATOM     11  N   UNL     1       2.786  15.074  19.725  0.00  0.00    +0.000 NA
ATOM     12  C   UNL     1       3.510  14.564  18.740  0.00  0.00    +0.000 A 
ATOM     13  O   UNL     1       2.999  13.370  18.220  0.00  0.00    +0.000 OA
ATOM     14  C   UNL     1       1.879  13.150  18.980  0.00  0.00    +0.000 A 
ATOM     15  C   UNL     1       0.808  12.105  18.770  0.00  0.00    +0.000 C 
ATOM     16  N   UNL     1      -1.615  11.187  17.590  0.00  0.00    +0.000 NA
ATOM     17  C   UNL     1      -2.712  10.604  17.005  0.00  0.00    +0.000 A 
ATOM     18  N   UNL     1      -3.949  10.712  17.364  0.00  0.00    +0.000 NA
ATOM     19  N   UNL     1      -4.119  11.472  18.463  0.00  0.00    +0.000 N 
ENDROOT
BRANCH   4  20
ATOM     20  C   UNL     1      -3.282  13.444  21.350  0.00  0.00    +0.000 A 
ATOM     21  C   UNL     1      -3.640  14.805  21.415  0.00  0.00    +0.000 A 
ATOM     22  C   UNL     1      -3.089  15.639  22.389  0.00  0.00    +0.000 A 
ATOM     23  C   UNL     1      -2.193  15.121  23.317  0.00  0.00    +0.000 A 
ATOM     24  C   UNL     1      -1.909  13.755  23.315  0.00  0.00    +0.000 A 
ATOM     25  C   UNL     1      -2.471  12.924  22.349  0.00  0.00    +0.000 A 
ATOM     26  F   UNL     1      -2.152  11.621  22.364  0.00  0.00    +0.000 F 
ENDBRANCH   4  20
BRANCH  12  27
ATOM     27  C   UNL     1       4.743  15.308  18.200  0.00  0.00    +0.000 C 
ATOM     28  C   UNL     1       6.025  15.310  19.033  0.00  0.00    +0.000 C 
ATOM     29  C   UNL     1       5.958  14.493  17.791  0.00  0.00    +0.000 C 
ENDBRANCH  12  27
TORSDOF 2
ENDMDL
MODEL 8
REMARK VINA RESULT:      -6.3     10.796     13.007
REMARK  Name = 
REMARK  3 active torsions:
REMARK  status: ('A' for Active; 'I' for Inactive)
REMARK    1  A    between atoms: C_1  and  C_2
REMARK    2  A    between atoms: C_4  and  C_5
REMARK    3  A    between atoms: C_19  and  C_20
REMARK                            x       y       z     vdW  Elec       q    Type
REMARK                         _______ _______ _______ _____ _____    ______ ____
ROOT
ATOM      1  C   UNL     1      -1.442  15.373  24.835  0.00  0.00    +0.000 C 
ATOM      2  C   UNL     1      -1.556  14.331  23.786  0.00  0.00    +0.000 A 
ATOM      3  N   UNL     1      -0.774  13.285  23.666  0.00  0.00    +0.000 NA
ATOM      4  C   UNL     1      -1.238  12.586  22.579  0.00  0.00    +0.000 A 
ATOM      5  C   UNL     1      -2.299  13.251  21.958  0.00  0.00    +0.000 A 
ATOM      6  C   UNL     1      -3.172  13.113  20.790  0.00  0.00    +0.000 A 
ATOM      7  N   UNL     1      -3.057  12.185  19.749  0.00  0.00    +0.000 N 
ATOM      8  C   UNL     1      -1.740  11.942  19.103  0.00  0.00    +0.000 C 
ATOM      9  C   UNL     1      -1.664  10.512  18.501  0.00  0.00    +0.000 C 
ATOM     10  C   UNL     1      -2.644  10.490  17.410  0.00  0.00    +0.000 A 
ATOM     11  N   UNL     1      -2.443  10.099  16.131  0.00  0.00    +0.000 NA
ATOM     12  C   UNL     1      -3.456  10.652  15.482  0.00  0.00    +0.000 A 
ATOM     13  O   UNL     1      -4.349  11.344  16.308  0.00  0.00    +0.000 OA
ATOM     14  C   UNL     1      -3.819  11.169  17.559  0.00  0.00    +0.000 A 
ATOM     15  C   UNL     1      -4.244  11.836  18.847  0.00  0.00    +0.000 C 
ATOM     16  N   UNL     1      -4.154  13.978  20.721  0.00  0.00    +0.000 NA
ATOM     17  C   UNL     1      -4.268  14.993  21.638  0.00  0.00    +0.000 A 
ATOM     18  N   UNL     1      -3.501  15.229  22.653  0.00  0.00    +0.000 NA
ATOM     19  N   UNL     1      -2.513  14.325  22.793  0.00  0.00    +0.000 N 
ENDROOT
BRANCH   4  20
ATOM     20  C   UNL     1      -0.545  11.375  22.205  0.00  0.00    +0.000 A 
ATOM     21  C   UNL     1      -1.017  10.153  22.723  0.00  0.00    +0.000 A 
ATOM     22  C   UNL     1      -0.316   8.968  22.499  0.00  0.00    +0.000 A 
ATOM     23  C   UNL     1       0.852   8.986  21.743  0.00  0.00    +0.000 A 
ATOM     24  C   UNL     1       1.271  10.178  21.151  0.00  0.00    +0.000 A 
ATOM     25  C   UNL     1       0.560  11.356  21.366  0.00  0.00    +0.000 A 
ATOM     26  F   UNL     1       1.012  12.485  20.800  0.00  0.00    +0.000 F 
ENDBRANCH   4  20
BRANCH  12  27
ATOM     27  C   UNL     1      -3.543  10.581  13.948  0.00  0.00    +0.000 C 
ATOM     28  C   UNL     1      -2.955   9.365  13.232  0.00  0.00    +0.000 C 
ATOM     29  C   UNL     1      -4.432   9.521  13.322  0.00  0.00    +0.000 C 
ENDBRANCH  12  27
TORSDOF 2
ENDMDL
MODEL 9
REMARK VINA RESULT:      -6.3     10.047     12.646
REMARK  Name = 
REMARK  3 active torsions:
REMARK  status: ('A' for Active; 'I' for Inactive)
REMARK    1  A    between atoms: C_1  and  C_2
REMARK    2  A    between atoms: C_4  and  C_5
REMARK    3  A    between atoms: C_19  and  C_20
REMARK                            x       y       z     vdW  Elec       q    Type
REMARK                         _______ _______ _______ _____ _____    ______ ____
ROOT
ATOM      1  C   UNL     1      -6.685  11.204  18.223  0.00  0.00    +0.000 C 
ATOM      2  C   UNL     1      -5.404  11.655  18.817  0.00  0.00    +0.000 A 
ATOM      3  N   UNL     1      -5.281  12.321  19.940  0.00  0.00    +0.000 NA
ATOM      4  C   UNL     1      -3.933  12.520  20.117  0.00  0.00    +0.000 A 
ATOM      5  C   UNL     1      -3.197  12.024  19.039  0.00  0.00    +0.000 A 
ATOM      6  C   UNL     1      -1.810  11.955  18.572  0.00  0.00    +0.000 A 
ATOM      7  N   UNL     1      -0.695  12.595  19.125  0.00  0.00    +0.000 N 
ATOM      8  C   UNL     1      -0.761  14.035  19.490  0.00  0.00    +0.000 C 
ATOM      9  C   UNL     1       0.240  14.374  20.628  0.00  0.00    +0.000 C 
ATOM     10  C   UNL     1       1.574  14.178  20.052  0.00  0.00    +0.000 A 
ATOM     11  N   UNL     1       2.610  15.048  20.062  0.00  0.00    +0.000 NA
ATOM     12  C   UNL     1       3.390  14.602  19.089  0.00  0.00    +0.000 A 
ATOM     13  O   UNL     1       2.925  13.431  18.481  0.00  0.00    +0.000 OA
ATOM     14  C   UNL     1       1.774  13.155  19.170  0.00  0.00    +0.000 A 
ATOM     15  C   UNL     1       0.731  12.108  18.851  0.00  0.00    +0.000 C 
ATOM     16  N   UNL     1      -1.615  11.222  17.503  0.00  0.00    +0.000 NA
ATOM     17  C   UNL     1      -2.671  10.656  16.833  0.00  0.00    +0.000 A 
ATOM     18  N   UNL     1      -3.926  10.728  17.135  0.00  0.00    +0.000 NA
ATOM     19  N   UNL     1      -4.163  11.424  18.262  0.00  0.00    +0.000 N 
ENDROOT
BRANCH   4  20
ATOM     20  C   UNL     1      -3.504  13.249  21.289  0.00  0.00    +0.000 A 
ATOM     21  C   UNL     1      -2.839  12.537  22.307  0.00  0.00    +0.000 A 
ATOM     22  C   UNL     1      -2.513  13.160  23.512  0.00  0.00    +0.000 A 
ATOM     23  C   UNL     1      -2.830  14.500  23.708  0.00  0.00    +0.000 A 
ATOM     24  C   UNL     1      -3.404  15.232  22.667  0.00  0.00    +0.000 A 
ATOM     25  C   UNL     1      -3.715  14.610  21.461  0.00  0.00    +0.000 A 
ATOM     26  F   UNL     1      -4.291  15.342  20.495  0.00  0.00    +0.000 F 
ENDBRANCH   4  20
BRANCH  12  27
ATOM     27  C   UNL     1       4.637  15.391  18.652  0.00  0.00    +0.000 C 
ATOM     28  C   UNL     1       5.996  15.001  19.233  0.00  0.00    +0.000 C 
ATOM     29  C   UNL     1       5.685  14.681  17.814  0.00  0.00    +0.000 C 
ENDBRANCH  12  27
TORSDOF 2
ENDMDL
