MODEL 1
REMARK VINA RESULT:      -8.5      0.000      0.000
REMARK  Name = 
REMARK  8 active torsions:
REMARK  status: ('A' for Active; 'I' for Inactive)
REMARK    1  A    between atoms: N_1  and  C_2
REMARK    2  A    between atoms: C_8  and  S_9
REMARK    3  A    between atoms: S_9  and  C_10
REMARK    4  A    between atoms: C_13  and  C_14
REMARK    5  A    between atoms: C_14  and  C_16
REMARK    6  A    between atoms: C_21  and  C_22
REMARK    7  A    between atoms: C_22  and  O_24
REMARK    8  A    between atoms: C_26  and  N_27
REMARK                            x       y       z     vdW  Elec       q    Type
REMARK                         _______ _______ _______ _____ _____    ______ ____
ROOT
ATOM      1  C   UNL     1       1.231   9.811  19.043  0.00  0.00    +0.000 A 
ATOM      2  C   UNL     1       1.952   9.279  17.964  0.00  0.00    +0.000 A 
ATOM      3  C   UNL     1       2.575   8.027  18.048  0.00  0.00    +0.000 A 
ATOM      4  C   UNL     1       2.522   7.277  19.227  0.00  0.00    +0.000 A 
ATOM      5  C   UNL     1       1.860   7.805  20.336  0.00  0.00    +0.000 A 
ATOM      6  C   UNL     1       1.199   9.045  20.218  0.00  0.00    +0.000 A 
ENDROOT
BRANCH   6   7
ATOM      7  N   UNL     1       0.423   9.453  21.366  0.00  0.00    +0.000 N 
ATOM      8  O   UNL     1      -0.623   8.841  21.590  0.00  0.00    +0.000 OA
ATOM      9  O   UNL     1       0.935  10.305  22.114  0.00  0.00    +0.000 OA
ENDBRANCH   6   7
BRANCH   4  10
ATOM     10  C   UNL     1       3.167   5.933  19.224  0.00  0.00    +0.000 C 
ATOM     11  O   UNL     1       4.239   5.806  18.638  0.00  0.00    +0.000 OA
BRANCH  10  12
ATOM     12  C   UNL     1       2.519   4.719  19.786  0.00  0.00    +0.000 A 
ATOM     13  C   UNL     1       2.543   4.564  21.189  0.00  0.00    +0.000 A 
ATOM     14  C   UNL     1       1.972   3.454  21.808  0.00  0.00    +0.000 A 
ATOM     15  C   UNL     1       1.321   2.501  21.042  0.00  0.00    +0.000 A 
ATOM     16  C   UNL     1       1.246   2.662  19.659  0.00  0.00    +0.000 A 
ATOM     17  C   UNL     1       1.835   3.767  19.004  0.00  0.00    +0.000 A 
BRANCH  17  18
ATOM     18  C   UNL     1       1.693   3.727  17.516  0.00  0.00    +0.000 C 
ATOM     19  O   UNL     1       2.356   2.943  16.851  0.00  0.00    +0.000 OA
BRANCH  18  20
ATOM     20  O   UNL     1       0.724   4.466  16.955  0.00  0.00    +0.000 OA
ATOM     21  H   UNL     1       0.367   5.200  17.508  0.00  0.00    +0.000 HD
ENDBRANCH  18  20
ENDBRANCH  17  18
ENDBRANCH  10  12
ENDBRANCH   4  10
BRANCH   1  22
ATOM     22  S   UNL     1       0.656  11.493  18.872  0.00  0.00    +0.000 S 
BRANCH  22  29
ATOM     23  C   UNL     1      -2.072  12.268  18.936  0.00  0.00    +0.000 A 
ATOM     24  C   UNL     1      -3.430  11.942  18.779  0.00  0.00    +0.000 A 
ATOM     25  C   UNL     1      -3.815  10.766  18.140  0.00  0.00    +0.000 A 
ATOM     26 CL   UNL     1      -5.485  10.407  17.937  0.00  0.00    +0.000 Cl
ATOM     27  C   UNL     1      -2.859   9.866  17.692  0.00  0.00    +0.000 A 
ATOM     28  C   UNL     1      -1.508  10.143  17.896  0.00  0.00    +0.000 A 
ATOM     29  C   UNL     1      -1.094  11.339  18.506  0.00  0.00    +0.000 A 
BRANCH  23  30
ATOM     30  N   UNL     1      -1.759  13.397  19.714  0.00  0.00    +0.000 N 
ATOM     31  H   UNL     1      -1.579  14.247  19.188  0.00  0.00    +0.000 HD
ATOM     32  H   UNL     1      -1.064  13.220  20.430  0.00  0.00    +0.000 HD
ENDBRANCH  23  30
ENDBRANCH  22  29
ENDBRANCH   1  22
TORSDOF 8
ENDMDL
MODEL 2
REMARK VINA RESULT:      -8.4      1.404      2.286
REMARK  Name = 
REMARK  8 active torsions:
REMARK  status: ('A' for Active; 'I' for Inactive)
REMARK    1  A    between atoms: N_1  and  C_2
REMARK    2  A    between atoms: C_8  and  S_9
REMARK    3  A    between atoms: S_9  and  C_10
REMARK    4  A    between atoms: C_13  and  C_14
REMARK    5  A    between atoms: C_14  and  C_16
REMARK    6  A    between atoms: C_21  and  C_22
REMARK    7  A    between atoms: C_22  and  O_24
REMARK    8  A    between atoms: C_26  and  N_27
REMARK                            x       y       z     vdW  Elec       q    Type
REMARK                         _______ _______ _______ _____ _____    ______ ____
ROOT
ATOM      1  C   UNL     1       1.186   9.705  19.073  0.00  0.00    +0.000 A 
ATOM      2  C   UNL     1       1.836   9.086  17.996  0.00  0.00    +0.000 A 
ATOM      3  C   UNL     1       2.408   7.812  18.122  0.00  0.00    +0.000 A 
ATOM      4  C   UNL     1       2.376   7.129  19.342  0.00  0.00    +0.000 A 
ATOM      5  C   UNL     1       1.786   7.744  20.447  0.00  0.00    +0.000 A 
ATOM      6  C   UNL     1       1.173   9.004  20.288  0.00  0.00    +0.000 A 
ENDROOT
BRANCH   6   7
ATOM      7  N   UNL     1       0.466   9.506  21.445  0.00  0.00    +0.000 N 
ATOM      8  O   UNL     1      -0.651   9.040  21.672  0.00  0.00    +0.000 OA
ATOM      9  O   UNL     1       1.093  10.277  22.193  0.00  0.00    +0.000 OA
ENDBRANCH   6   7
BRANCH   4  10
ATOM     10  C   UNL     1       2.962   5.759  19.386  0.00  0.00    +0.000 C 
ATOM     11  O   UNL     1       2.785   5.085  20.397  0.00  0.00    +0.000 OA
BRANCH  10  12
ATOM     12  C   UNL     1       3.848   5.219  18.321  0.00  0.00    +0.000 A 
ATOM     13  C   UNL     1       5.109   5.833  18.157  0.00  0.00    +0.000 A 
ATOM     14  C   UNL     1       6.004   5.405  17.179  0.00  0.00    +0.000 A 
ATOM     15  C   UNL     1       5.679   4.322  16.379  0.00  0.00    +0.000 A 
ATOM     16  C   UNL     1       4.457   3.673  16.559  0.00  0.00    +0.000 A 
ATOM     17  C   UNL     1       3.523   4.101  17.528  0.00  0.00    +0.000 A 
BRANCH  17  18
ATOM     18  C   UNL     1       2.253   3.310  17.526  0.00  0.00    +0.000 C 
ATOM     19  O   UNL     1       1.184   3.857  17.294  0.00  0.00    +0.000 OA
BRANCH  18  20
ATOM     20  O   UNL     1       2.340   1.976  17.643  0.00  0.00    +0.000 OA
ATOM     21  H   UNL     1       3.180   1.632  18.027  0.00  0.00    +0.000 HD
ENDBRANCH  18  20
ENDBRANCH  17  18
ENDBRANCH  10  12
ENDBRANCH   4  10
BRANCH   1  22
ATOM     22  S   UNL     1       0.676  11.400  18.835  0.00  0.00    +0.000 S 
BRANCH  22  29
ATOM     23  C   UNL     1      -2.027  12.253  18.931  0.00  0.00    +0.000 A 
ATOM     24  C   UNL     1      -3.396  11.968  18.786  0.00  0.00    +0.000 A 
ATOM     25  C   UNL     1      -3.821  10.808  18.141  0.00  0.00    +0.000 A 
ATOM     26 CL   UNL     1      -5.503  10.500  17.952  0.00  0.00    +0.000 Cl
ATOM     27  C   UNL     1      -2.896   9.885  17.677  0.00  0.00    +0.000 A 
ATOM     28  C   UNL     1      -1.536  10.121  17.870  0.00  0.00    +0.000 A 
ATOM     29  C   UNL     1      -1.081  11.299  18.485  0.00  0.00    +0.000 A 
BRANCH  23  30
ATOM     30  N   UNL     1      -1.674  13.366  19.715  0.00  0.00    +0.000 N 
ATOM     31  H   UNL     1      -1.411  13.154  20.673  0.00  0.00    +0.000 HD
ATOM     32  H   UNL     1      -2.326  14.138  19.646  0.00  0.00    +0.000 HD
ENDBRANCH  23  30
ENDBRANCH  22  29
ENDBRANCH   1  22
TORSDOF 8
ENDMDL
MODEL 3
REMARK VINA RESULT:      -8.3      1.085      1.521
REMARK  Name = 
REMARK  8 active torsions:
REMARK  status: ('A' for Active; 'I' for Inactive)
REMARK    1  A    between atoms: N_1  and  C_2
REMARK    2  A    between atoms: C_8  and  S_9
REMARK    3  A    between atoms: S_9  and  C_10
REMARK    4  A    between atoms: C_13  and  C_14
REMARK    5  A    between atoms: C_14  and  C_16
REMARK    6  A    between atoms: C_21  and  C_22
REMARK    7  A    between atoms: C_22  and  O_24
REMARK    8  A    between atoms: C_26  and  N_27
REMARK                            x       y       z     vdW  Elec       q    Type
REMARK                         _______ _______ _______ _____ _____    ______ ____
ROOT
ATOM      1  C   UNL     1       1.402   9.637  18.908  0.00  0.00    +0.000 A 
ATOM      2  C   UNL     1       2.148   8.997  17.908  0.00  0.00    +0.000 A 
ATOM      3  C   UNL     1       2.729   7.740  18.122  0.00  0.00    +0.000 A 
ATOM      4  C   UNL     1       2.608   7.094  19.357  0.00  0.00    +0.000 A 
ATOM      5  C   UNL     1       1.919   7.732  20.389  0.00  0.00    +0.000 A 
ATOM      6  C   UNL     1       1.301   8.975  20.140  0.00  0.00    +0.000 A 
ENDROOT
BRANCH   6   7
ATOM      7  N   UNL     1       0.493   9.499  21.218  0.00  0.00    +0.000 N 
ATOM      8  O   UNL     1       1.014  10.327  21.966  0.00  0.00    +0.000 OA
ATOM      9  O   UNL     1      -0.707   9.168  21.230  0.00  0.00    +0.000 OA
ENDBRANCH   6   7
BRANCH   4  10
ATOM     10  C   UNL     1       3.211   5.738  19.492  0.00  0.00    +0.000 C 
ATOM     11  O   UNL     1       4.405   5.660  19.770  0.00  0.00    +0.000 OA
BRANCH  10  12
ATOM     12  C   UNL     1       2.472   4.485  19.189  0.00  0.00    +0.000 A 
ATOM     13  C   UNL     1       1.270   4.256  19.893  0.00  0.00    +0.000 A 
ATOM     14  C   UNL     1       0.513   3.105  19.685  0.00  0.00    +0.000 A 
ATOM     15  C   UNL     1       0.914   2.183  18.733  0.00  0.00    +0.000 A 
ATOM     16  C   UNL     1       2.074   2.416  17.994  0.00  0.00    +0.000 A 
ATOM     17  C   UNL     1       2.872   3.564  18.200  0.00  0.00    +0.000 A 
BRANCH  17  18
ATOM     18  C   UNL     1       4.101   3.600  17.349  0.00  0.00    +0.000 C 
ATOM     19  O   UNL     1       4.044   4.006  16.197  0.00  0.00    +0.000 OA
BRANCH  18  20
ATOM     20  O   UNL     1       5.277   3.313  17.927  0.00  0.00    +0.000 OA
ATOM     21  H   UNL     1       5.470   3.788  18.769  0.00  0.00    +0.000 HD
ENDBRANCH  18  20
ENDBRANCH  17  18
ENDBRANCH  10  12
ENDBRANCH   4  10
BRANCH   1  22
ATOM     22  S   UNL     1       0.884  11.314  18.573  0.00  0.00    +0.000 S 
BRANCH  22  29
ATOM     23  C   UNL     1      -1.813  12.151  18.825  0.00  0.00    +0.000 A 
ATOM     24  C   UNL     1      -3.186  11.857  18.762  0.00  0.00    +0.000 A 
ATOM     25  C   UNL     1      -3.641  10.691  18.150  0.00  0.00    +0.000 A 
ATOM     26 CL   UNL     1      -5.330  10.371  18.062  0.00  0.00    +0.000 Cl
ATOM     27  C   UNL     1      -2.740   9.771  17.636  0.00  0.00    +0.000 A 
ATOM     28  C   UNL     1      -1.372  10.016  17.748  0.00  0.00    +0.000 A 
ATOM     29  C   UNL     1      -0.889  11.200  18.329  0.00  0.00    +0.000 A 
BRANCH  23  30
ATOM     30  N   UNL     1      -1.422  13.270  19.581  0.00  0.00    +0.000 N 
ATOM     31  H   UNL     1      -1.527  13.171  20.586  0.00  0.00    +0.000 HD
ATOM     32  H   UNL     1      -1.787  14.148  19.230  0.00  0.00    +0.000 HD
ENDBRANCH  23  30
ENDBRANCH  22  29
ENDBRANCH   1  22
TORSDOF 8
ENDMDL
MODEL 4
REMARK VINA RESULT:      -8.2      3.036      3.737
REMARK  Name = 
REMARK  8 active torsions:
REMARK  status: ('A' for Active; 'I' for Inactive)
REMARK    1  A    between atoms: N_1  and  C_2
REMARK    2  A    between atoms: C_8  and  S_9
REMARK    3  A    between atoms: S_9  and  C_10
REMARK    4  A    between atoms: C_13  and  C_14
REMARK    5  A    between atoms: C_14  and  C_16
REMARK    6  A    between atoms: C_21  and  C_22
REMARK    7  A    between atoms: C_22  and  O_24
REMARK    8  A    between atoms: C_26  and  N_27
REMARK                            x       y       z     vdW  Elec       q    Type
REMARK                         _______ _______ _______ _____ _____    ______ ____
ROOT
ATOM      1  C   UNL     1       0.878   9.527  19.157  0.00  0.00    +0.000 A 
ATOM      2  C   UNL     1       1.518   8.978  18.036  0.00  0.00    +0.000 A 
ATOM      3  C   UNL     1       2.276   7.803  18.131  0.00  0.00    +0.000 A 
ATOM      4  C   UNL     1       2.445   7.155  19.359  0.00  0.00    +0.000 A 
ATOM      5  C   UNL     1       1.867   7.709  20.501  0.00  0.00    +0.000 A 
ATOM      6  C   UNL     1       1.068   8.865  20.378  0.00  0.00    +0.000 A 
ENDROOT
BRANCH   6   7
ATOM      7  N   UNL     1       0.395   9.292  21.584  0.00  0.00    +0.000 N 
ATOM      8  O   UNL     1      -0.654   8.718  21.881  0.00  0.00    +0.000 OA
ATOM      9  O   UNL     1       0.994  10.117  22.297  0.00  0.00    +0.000 OA
ENDBRANCH   6   7
BRANCH   4  10
ATOM     10  C   UNL     1       3.224   5.885  19.371  0.00  0.00    +0.000 C 
ATOM     11  O   UNL     1       4.443   5.954  19.503  0.00  0.00    +0.000 OA
BRANCH  10  12
ATOM     12  C   UNL     1       2.615   4.555  19.109  0.00  0.00    +0.000 A 
ATOM     13  C   UNL     1       1.409   4.252  19.779  0.00  0.00    +0.000 A 
ATOM     14  C   UNL     1       0.769   3.027  19.606  0.00  0.00    +0.000 A 
ATOM     15  C   UNL     1       1.293   2.098  18.722  0.00  0.00    +0.000 A 
ATOM     16  C   UNL     1       2.458   2.399  18.016  0.00  0.00    +0.000 A 
ATOM     17  C   UNL     1       3.138   3.624  18.189  0.00  0.00    +0.000 A 
BRANCH  17  18
ATOM     18  C   UNL     1       4.394   3.730  17.385  0.00  0.00    +0.000 C 
ATOM     19  O   UNL     1       4.349   4.049  16.205  0.00  0.00    +0.000 OA
BRANCH  18  20
ATOM     20  O   UNL     1       5.567   3.607  18.026  0.00  0.00    +0.000 OA
ATOM     21  H   UNL     1       5.581   3.922  18.960  0.00  0.00    +0.000 HD
ENDBRANCH  18  20
ENDBRANCH  17  18
ENDBRANCH  10  12
ENDBRANCH   4  10
BRANCH   1  22
ATOM     22  S   UNL     1       0.110  11.125  18.939  0.00  0.00    +0.000 S 
BRANCH  22  29
ATOM     23  C   UNL     1       1.471  13.061  20.500  0.00  0.00    +0.000 A 
ATOM     24  C   UNL     1       2.406  14.107  20.593  0.00  0.00    +0.000 A 
ATOM     25  C   UNL     1       3.314  14.349  19.564  0.00  0.00    +0.000 A 
ATOM     26 CL   UNL     1       4.466  15.617  19.717  0.00  0.00    +0.000 Cl
ATOM     27  C   UNL     1       3.276  13.591  18.403  0.00  0.00    +0.000 A 
ATOM     28  C   UNL     1       2.313  12.592  18.267  0.00  0.00    +0.000 A 
ATOM     29  C   UNL     1       1.410  12.306  19.305  0.00  0.00    +0.000 A 
BRANCH  23  30
ATOM     30  N   UNL     1       0.497  12.968  21.510  0.00  0.00    +0.000 N 
ATOM     31  H   UNL     1       0.581  13.654  22.256  0.00  0.00    +0.000 HD
ATOM     32  H   UNL     1       0.353  12.026  21.854  0.00  0.00    +0.000 HD
ENDBRANCH  23  30
ENDBRANCH  22  29
ENDBRANCH   1  22
TORSDOF 8
ENDMDL
MODEL 5
REMARK VINA RESULT:      -8.2      2.176      3.036
REMARK  Name = 
REMARK  8 active torsions:
REMARK  status: ('A' for Active; 'I' for Inactive)
REMARK    1  A    between atoms: N_1  and  C_2
REMARK    2  A    between atoms: C_8  and  S_9
REMARK    3  A    between atoms: S_9  and  C_10
REMARK    4  A    between atoms: C_13  and  C_14
REMARK    5  A    between atoms: C_14  and  C_16
REMARK    6  A    between atoms: C_21  and  C_22
REMARK    7  A    between atoms: C_22  and  O_24
REMARK    8  A    between atoms: C_26  and  N_27
REMARK                            x       y       z     vdW  Elec       q    Type
REMARK                         _______ _______ _______ _____ _____    ______ ____
ROOT
ATOM      1  C   UNL     1       1.353   9.631  19.089  0.00  0.00    +0.000 A 
ATOM      2  C   UNL     1       1.962   9.438  17.841  0.00  0.00    +0.000 A 
ATOM      3  C   UNL     1       2.618   8.240  17.525  0.00  0.00    +0.000 A 
ATOM      4  C   UNL     1       2.712   7.205  18.461  0.00  0.00    +0.000 A 
ATOM      5  C   UNL     1       2.164   7.390  19.731  0.00  0.00    +0.000 A 
ATOM      6  C   UNL     1       1.467   8.583  20.014  0.00  0.00    +0.000 A 
ENDROOT
BRANCH   6   7
ATOM      7  N   UNL     1       0.813   8.635  21.302  0.00  0.00    +0.000 N 
ATOM      8  O   UNL     1      -0.346   8.223  21.366  0.00  0.00    +0.000 OA
ATOM      9  O   UNL     1       1.515   8.972  22.273  0.00  0.00    +0.000 OA
ENDBRANCH   6   7
BRANCH   4  10
ATOM     10  C   UNL     1       3.381   5.944  18.035  0.00  0.00    +0.000 C 
ATOM     11  O   UNL     1       2.674   4.987  17.730  0.00  0.00    +0.000 OA
BRANCH  10  12
ATOM     12  C   UNL     1       4.854   5.749  18.079  0.00  0.00    +0.000 A 
ATOM     13  C   UNL     1       5.441   5.538  19.346  0.00  0.00    +0.000 A 
ATOM     14  C   UNL     1       6.815   5.357  19.490  0.00  0.00    +0.000 A 
ATOM     15  C   UNL     1       7.625   5.333  18.367  0.00  0.00    +0.000 A 
ATOM     16  C   UNL     1       7.056   5.492  17.103  0.00  0.00    +0.000 A 
ATOM     17  C   UNL     1       5.669   5.699  16.931  0.00  0.00    +0.000 A 
BRANCH  17  18
ATOM     18  C   UNL     1       5.267   5.903  15.505  0.00  0.00    +0.000 C 
ATOM     19  O   UNL     1       5.040   7.028  15.081  0.00  0.00    +0.000 OA
BRANCH  18  20
ATOM     20  O   UNL     1       5.302   4.844  14.682  0.00  0.00    +0.000 OA
ATOM     21  H   UNL     1       4.556   4.772  14.041  0.00  0.00    +0.000 HD
ENDBRANCH  18  20
ENDBRANCH  17  18
ENDBRANCH  10  12
ENDBRANCH   4  10
BRANCH   1  22
ATOM     22  S   UNL     1       0.725  11.268  19.431  0.00  0.00    +0.000 S 
BRANCH  22  29
ATOM     23  C   UNL     1      -1.894  12.281  19.038  0.00  0.00    +0.000 A 
ATOM     24  C   UNL     1      -3.236  12.069  18.677  0.00  0.00    +0.000 A 
ATOM     25  C   UNL     1      -3.625  10.904  18.021  0.00  0.00    +0.000 A 
ATOM     26 CL   UNL     1      -5.270  10.684  17.567  0.00  0.00    +0.000 Cl
ATOM     27  C   UNL     1      -2.700   9.905  17.758  0.00  0.00    +0.000 A 
ATOM     28  C   UNL     1      -1.378  10.071  18.165  0.00  0.00    +0.000 A 
ATOM     29  C   UNL     1      -0.953  11.251  18.797  0.00  0.00    +0.000 A 
BRANCH  23  30
ATOM     30  N   UNL     1      -1.601  13.412  19.821  0.00  0.00    +0.000 N 
ATOM     31  H   UNL     1      -0.620  13.675  19.851  0.00  0.00    +0.000 HD
ATOM     32  H   UNL     1      -2.034  13.398  20.737  0.00  0.00    +0.000 HD
ENDBRANCH  23  30
ENDBRANCH  22  29
ENDBRANCH   1  22
TORSDOF 8
ENDMDL
MODEL 6
REMARK VINA RESULT:      -8.2      3.068      3.872
REMARK  Name = 
REMARK  8 active torsions:
REMARK  status: ('A' for Active; 'I' for Inactive)
REMARK    1  A    between atoms: N_1  and  C_2
REMARK    2  A    between atoms: C_8  and  S_9
REMARK    3  A    between atoms: S_9  and  C_10
REMARK    4  A    between atoms: C_13  and  C_14
REMARK    5  A    between atoms: C_14  and  C_16
REMARK    6  A    between atoms: C_21  and  C_22
REMARK    7  A    between atoms: C_22  and  O_24
REMARK    8  A    between atoms: C_26  and  N_27
REMARK                            x       y       z     vdW  Elec       q    Type
REMARK                         _______ _______ _______ _____ _____    ______ ____
ROOT
ATOM      1  C   UNL     1       0.430   9.686  19.632  0.00  0.00    +0.000 A 
ATOM      2  C   UNL     1       0.799   9.632  18.280  0.00  0.00    +0.000 A 
ATOM      3  C   UNL     1       1.715   8.680  17.811  0.00  0.00    +0.000 A 
ATOM      4  C   UNL     1       2.317   7.770  18.686  0.00  0.00    +0.000 A 
ATOM      5  C   UNL     1       2.012   7.837  20.046  0.00  0.00    +0.000 A 
ATOM      6  C   UNL     1       1.053   8.769  20.492  0.00  0.00    +0.000 A 
ENDROOT
BRANCH   6   7
ATOM      7  N   UNL     1       0.694   8.678  21.890  0.00  0.00    +0.000 N 
ATOM      8  O   UNL     1       1.421   9.256  22.700  0.00  0.00    +0.000 OA
ATOM      9  O   UNL     1      -0.391   8.132  22.155  0.00  0.00    +0.000 OA
ENDBRANCH   6   7
BRANCH   4  10
ATOM     10  C   UNL     1       3.243   6.757  18.105  0.00  0.00    +0.000 C 
ATOM     11  O   UNL     1       4.146   7.151  17.372  0.00  0.00    +0.000 OA
BRANCH  10  12
ATOM     12  C   UNL     1       3.052   5.293  18.268  0.00  0.00    +0.000 A 
ATOM     13  C   UNL     1       1.752   4.782  18.058  0.00  0.00    +0.000 A 
ATOM     14  C   UNL     1       1.473   3.424  18.199  0.00  0.00    +0.000 A 
ATOM     15  C   UNL     1       2.496   2.541  18.503  0.00  0.00    +0.000 A 
ATOM     16  C   UNL     1       3.796   3.022  18.667  0.00  0.00    +0.000 A 
ATOM     17  C   UNL     1       4.102   4.396  18.552  0.00  0.00    +0.000 A 
BRANCH  17  18
ATOM     18  C   UNL     1       5.538   4.714  18.819  0.00  0.00    +0.000 C 
ATOM     19  O   UNL     1       5.844   5.505  19.700  0.00  0.00    +0.000 OA
BRANCH  18  20
ATOM     20  O   UNL     1       6.473   4.005  18.167  0.00  0.00    +0.000 OA
ATOM     21  H   UNL     1       7.394   4.353  18.224  0.00  0.00    +0.000 HD
ENDBRANCH  18  20
ENDBRANCH  17  18
ENDBRANCH  10  12
ENDBRANCH   4  10
BRANCH   1  22
ATOM     22  S   UNL     1      -0.591  11.064  20.130  0.00  0.00    +0.000 S 
BRANCH  22  29
ATOM     23  C   UNL     1       0.227  13.420  18.779  0.00  0.00    +0.000 A 
ATOM     24  C   UNL     1       1.208  14.394  18.523  0.00  0.00    +0.000 A 
ATOM     25  C   UNL     1       2.322  14.522  19.349  0.00  0.00    +0.000 A 
ATOM     26 CL   UNL     1       3.492  15.743  19.029  0.00  0.00    +0.000 Cl
ATOM     27  C   UNL     1       2.510  13.652  20.414  0.00  0.00    +0.000 A 
ATOM     28  C   UNL     1       1.580  12.640  20.643  0.00  0.00    +0.000 A 
ATOM     29  C   UNL     1       0.431  12.512  19.846  0.00  0.00    +0.000 A 
BRANCH  23  30
ATOM     30  N   UNL     1      -0.792  13.256  17.824  0.00  0.00    +0.000 N 
ATOM     31  H   UNL     1      -1.729  13.163  18.205  0.00  0.00    +0.000 HD
ATOM     32  H   UNL     1      -0.582  12.562  17.117  0.00  0.00    +0.000 HD
ENDBRANCH  23  30
ENDBRANCH  22  29
ENDBRANCH   1  22
TORSDOF 8
ENDMDL
MODEL 7
REMARK VINA RESULT:      -8.2      1.611      2.079
REMARK  Name = 
REMARK  8 active torsions:
REMARK  status: ('A' for Active; 'I' for Inactive)
REMARK    1  A    between atoms: N_1  and  C_2
REMARK    2  A    between atoms: C_8  and  S_9
REMARK    3  A    between atoms: S_9  and  C_10
REMARK    4  A    between atoms: C_13  and  C_14
REMARK    5  A    between atoms: C_14  and  C_16
REMARK    6  A    between atoms: C_21  and  C_22
REMARK    7  A    between atoms: C_22  and  O_24
REMARK    8  A    between atoms: C_26  and  N_27
REMARK                            x       y       z     vdW  Elec       q    Type
REMARK                         _______ _______ _______ _____ _____    ______ ____
ROOT
ATOM      1  C   UNL     1       1.234   9.761  19.251  0.00  0.00    +0.000 A 
ATOM      2  C   UNL     1       1.832   9.692  17.984  0.00  0.00    +0.000 A 
ATOM      3  C   UNL     1       2.516   8.544  17.562  0.00  0.00    +0.000 A 
ATOM      4  C   UNL     1       2.652   7.437  18.406  0.00  0.00    +0.000 A 
ATOM      5  C   UNL     1       2.116   7.499  19.693  0.00  0.00    +0.000 A 
ATOM      6  C   UNL     1       1.390   8.643  20.083  0.00  0.00    +0.000 A 
ENDROOT
BRANCH   6   7
ATOM      7  N   UNL     1       0.752   8.568  21.378  0.00  0.00    +0.000 N 
ATOM      8  O   UNL     1      -0.380   8.085  21.425  0.00  0.00    +0.000 OA
ATOM      9  O   UNL     1       1.446   8.879  22.363  0.00  0.00    +0.000 OA
ENDBRANCH   6   7
BRANCH   4  10
ATOM     10  C   UNL     1       3.351   6.236  17.869  0.00  0.00    +0.000 C 
ATOM     11  O   UNL     1       4.208   6.402  17.005  0.00  0.00    +0.000 OA
BRANCH  10  12
ATOM     12  C   UNL     1       2.976   4.845  18.235  0.00  0.00    +0.000 A 
ATOM     13  C   UNL     1       1.627   4.469  18.054  0.00  0.00    +0.000 A 
ATOM     14  C   UNL     1       1.178   3.191  18.379  0.00  0.00    +0.000 A 
ATOM     15  C   UNL     1       2.078   2.246  18.845  0.00  0.00    +0.000 A 
ATOM     16  C   UNL     1       3.424   2.586  18.985  0.00  0.00    +0.000 A 
ATOM     17  C   UNL     1       3.901   3.881  18.683  0.00  0.00    +0.000 A 
BRANCH  17  18
ATOM     18  C   UNL     1       5.361   4.059  18.953  0.00  0.00    +0.000 C 
ATOM     19  O   UNL     1       5.767   4.189  20.099  0.00  0.00    +0.000 OA
BRANCH  18  20
ATOM     20  O   UNL     1       6.213   3.929  17.925  0.00  0.00    +0.000 OA
ATOM     21  H   UNL     1       5.950   4.377  17.088  0.00  0.00    +0.000 HD
ENDBRANCH  18  20
ENDBRANCH  17  18
ENDBRANCH  10  12
ENDBRANCH   4  10
BRANCH   1  22
ATOM     22  S   UNL     1       0.566  11.345  19.736  0.00  0.00    +0.000 S 
BRANCH  22  29
ATOM     23  C   UNL     1      -2.101  12.271  19.469  0.00  0.00    +0.000 A 
ATOM     24  C   UNL     1      -3.422  12.061  19.035  0.00  0.00    +0.000 A 
ATOM     25  C   UNL     1      -3.730  11.026  18.155  0.00  0.00    +0.000 A 
ATOM     26 CL   UNL     1      -5.350  10.810  17.618  0.00  0.00    +0.000 Cl
ATOM     27  C   UNL     1      -2.742  10.149  17.730  0.00  0.00    +0.000 A 
ATOM     28  C   UNL     1      -1.439  10.304  18.201  0.00  0.00    +0.000 A 
ATOM     29  C   UNL     1      -1.097  11.361  19.062  0.00  0.00    +0.000 A 
BRANCH  23  30
ATOM     30  N   UNL     1      -1.891  13.241  20.465  0.00  0.00    +0.000 N 
ATOM     31  H   UNL     1      -1.753  12.875  21.403  0.00  0.00    +0.000 HD
ATOM     32  H   UNL     1      -2.550  14.010  20.434  0.00  0.00    +0.000 HD
ENDBRANCH  23  30
ENDBRANCH  22  29
ENDBRANCH   1  22
TORSDOF 8
ENDMDL
MODEL 8
REMARK VINA RESULT:      -8.1      0.950      1.293
REMARK  Name = 
REMARK  8 active torsions:
REMARK  status: ('A' for Active; 'I' for Inactive)
REMARK    1  A    between atoms: N_1  and  C_2
REMARK    2  A    between atoms: C_8  and  S_9
REMARK    3  A    between atoms: S_9  and  C_10
REMARK    4  A    between atoms: C_13  and  C_14
REMARK    5  A    between atoms: C_14  and  C_16
REMARK    6  A    between atoms: C_21  and  C_22
REMARK    7  A    between atoms: C_22  and  O_24
REMARK    8  A    between atoms: C_26  and  N_27
REMARK                            x       y       z     vdW  Elec       q    Type
REMARK                         _______ _______ _______ _____ _____    ______ ____
ROOT
ATOM      1  C   UNL     1       1.118   9.903  19.023  0.00  0.00    +0.000 A 
ATOM      2  C   UNL     1       1.807   9.362  17.928  0.00  0.00    +0.000 A 
ATOM      3  C   UNL     1       2.445   8.117  18.009  0.00  0.00    +0.000 A 
ATOM      4  C   UNL     1       2.441   7.385  19.201  0.00  0.00    +0.000 A 
ATOM      5  C   UNL     1       1.812   7.924  20.324  0.00  0.00    +0.000 A 
ATOM      6  C   UNL     1       1.135   9.155  20.210  0.00  0.00    +0.000 A 
ENDROOT
BRANCH   6   7
ATOM      7  N   UNL     1       0.394   9.573  21.379  0.00  0.00    +0.000 N 
ATOM      8  O   UNL     1      -0.622   8.936  21.663  0.00  0.00    +0.000 OA
ATOM      9  O   UNL     1       0.910  10.461  22.080  0.00  0.00    +0.000 OA
ENDBRANCH   6   7
BRANCH   4  10
ATOM     10  C   UNL     1       3.099   6.047  19.195  0.00  0.00    +0.000 C 
ATOM     11  O   UNL     1       4.166   5.929  18.601  0.00  0.00    +0.000 OA
BRANCH  10  12
ATOM     12  C   UNL     1       2.468   4.829  19.766  0.00  0.00    +0.000 A 
ATOM     13  C   UNL     1       2.486   4.689  21.171  0.00  0.00    +0.000 A 
ATOM     14  C   UNL     1       1.930   3.576  21.798  0.00  0.00    +0.000 A 
ATOM     15  C   UNL     1       1.300   2.604  21.039  0.00  0.00    +0.000 A 
ATOM     16  C   UNL     1       1.231   2.749  19.653  0.00  0.00    +0.000 A 
ATOM     17  C   UNL     1       1.806   3.857  18.990  0.00  0.00    +0.000 A 
BRANCH  17  18
ATOM     18  C   UNL     1       1.673   3.799  17.502  0.00  0.00    +0.000 C 
ATOM     19  O   UNL     1       2.373   3.039  16.847  0.00  0.00    +0.000 OA
BRANCH  18  20
ATOM     20  O   UNL     1       0.676   4.491  16.929  0.00  0.00    +0.000 OA
ATOM     21  H   UNL     1       0.861   5.442  16.748  0.00  0.00    +0.000 HD
ENDBRANCH  18  20
ENDBRANCH  17  18
ENDBRANCH  10  12
ENDBRANCH   4  10
BRANCH   1  22
ATOM     22  S   UNL     1       0.520  11.577  18.847  0.00  0.00    +0.000 S 
BRANCH  22  29
ATOM     23  C   UNL     1      -2.005  10.674  17.926  0.00  0.00    +0.000 A 
ATOM     24  C   UNL     1      -3.406  10.794  17.910  0.00  0.00    +0.000 A 
ATOM     25  C   UNL     1      -4.068  11.572  18.857  0.00  0.00    +0.000 A 
ATOM     26 CL   UNL     1      -5.785  11.679  18.831  0.00  0.00    +0.000 Cl
ATOM     27  C   UNL     1      -3.349  12.287  19.805  0.00  0.00    +0.000 A 
ATOM     28  C   UNL     1      -1.957  12.229  19.795  0.00  0.00    +0.000 A 
ATOM     29  C   UNL     1      -1.267  11.424  18.873  0.00  0.00    +0.000 A 
BRANCH  23  30
ATOM     30  N   UNL     1      -1.399   9.990  16.858  0.00  0.00    +0.000 N 
ATOM     31  H   UNL     1      -0.492   9.583  17.065  0.00  0.00    +0.000 HD
ATOM     32  H   UNL     1      -1.412  10.502  15.984  0.00  0.00    +0.000 HD
ENDBRANCH  23  30
ENDBRANCH  22  29
ENDBRANCH   1  22
TORSDOF 8
ENDMDL
MODEL 9
REMARK VINA RESULT:      -8.1      1.236      1.787
REMARK  Name = 
REMARK  8 active torsions:
REMARK  status: ('A' for Active; 'I' for Inactive)
REMARK    1  A    between atoms: N_1  and  C_2
REMARK    2  A    between atoms: C_8  and  S_9
REMARK    3  A    between atoms: S_9  and  C_10
REMARK    4  A    between atoms: C_13  and  C_14
REMARK    5  A    between atoms: C_14  and  C_16
REMARK    6  A    between atoms: C_21  and  C_22
REMARK    7  A    between atoms: C_22  and  O_24
REMARK    8  A    between atoms: C_26  and  N_27
REMARK                            x       y       z     vdW  Elec       q    Type
REMARK                         _______ _______ _______ _____ _____    ______ ____
ROOT
ATOM      1  C   UNL     1       0.976   9.913  19.450  0.00  0.00    +0.000 A 
ATOM      2  C   UNL     1       1.461   9.612  18.169  0.00  0.00    +0.000 A 
ATOM      3  C   UNL     1       2.074   8.383  17.890  0.00  0.00    +0.000 A 
ATOM      4  C   UNL     1       2.250   7.425  18.894  0.00  0.00    +0.000 A 
ATOM      5  C   UNL     1       1.829   7.719  20.191  0.00  0.00    +0.000 A 
ATOM      6  C   UNL     1       1.171   8.941  20.442  0.00  0.00    +0.000 A 
ENDROOT
BRANCH   6   7
ATOM      7  N   UNL     1       0.645   9.106  21.778  0.00  0.00    +0.000 N 
ATOM      8  O   UNL     1       1.374   9.646  22.612  0.00  0.00    +0.000 OA
ATOM      9  O   UNL     1      -0.550   8.806  21.950  0.00  0.00    +0.000 OA
ENDBRANCH   6   7
BRANCH   4  10
ATOM     10  C   UNL     1       2.866   6.123  18.510  0.00  0.00    +0.000 C 
ATOM     11  O   UNL     1       3.407   6.040  17.411  0.00  0.00    +0.000 OA
BRANCH  10  12
ATOM     12  C   UNL     1       2.751   4.893  19.337  0.00  0.00    +0.000 A 
ATOM     13  C   UNL     1       1.523   4.671  19.997  0.00  0.00    +0.000 A 
ATOM     14  C   UNL     1       1.323   3.552  20.804  0.00  0.00    +0.000 A 
ATOM     15  C   UNL     1       2.329   2.607  20.926  0.00  0.00    +0.000 A 
ATOM     16  C   UNL     1       3.531   2.787  20.243  0.00  0.00    +0.000 A 
ATOM     17  C   UNL     1       3.768   3.923  19.437  0.00  0.00    +0.000 A 
BRANCH  17  18
ATOM     18  C   UNL     1       5.137   3.956  18.836  0.00  0.00    +0.000 C 
ATOM     19  O   UNL     1       6.101   4.291  19.510  0.00  0.00    +0.000 OA
BRANCH  18  20
ATOM     20  O   UNL     1       5.292   3.476  17.593  0.00  0.00    +0.000 OA
ATOM     21  H   UNL     1       6.056   3.837  17.084  0.00  0.00    +0.000 HD
ENDBRANCH  18  20
ENDBRANCH  17  18
ENDBRANCH  10  12
ENDBRANCH   4  10
BRANCH   1  22
ATOM     22  S   UNL     1       0.397  11.581  19.716  0.00  0.00    +0.000 S 
BRANCH  22  29
ATOM     23  C   UNL     1      -2.314  12.411  19.635  0.00  0.00    +0.000 A 
ATOM     24  C   UNL     1      -3.644  12.176  19.246  0.00  0.00    +0.000 A 
ATOM     25  C   UNL     1      -3.952  11.193  18.308  0.00  0.00    +0.000 A 
ATOM     26 CL   UNL     1      -5.587  10.947  17.829  0.00  0.00    +0.000 Cl
ATOM     27  C   UNL     1      -2.952  10.390  17.778  0.00  0.00    +0.000 A 
ATOM     28  C   UNL     1      -1.636  10.567  18.201  0.00  0.00    +0.000 A 
ATOM     29  C   UNL     1      -1.295  11.574  19.119  0.00  0.00    +0.000 A 
BRANCH  23  30
ATOM     30  N   UNL     1      -2.094  13.317  20.687  0.00  0.00    +0.000 N 
ATOM     31  H   UNL     1      -2.868  13.418  21.338  0.00  0.00    +0.000 HD
ATOM     32  H   UNL     1      -1.711  14.206  20.388  0.00  0.00    +0.000 HD
ENDBRANCH  23  30
ENDBRANCH  22  29
ENDBRANCH   1  22
TORSDOF 8
ENDMDL
