MODEL 1
REMARK VINA RESULT:      -7.7      0.000      0.000
REMARK  Name = 
REMARK  6 active torsions:
REMARK  status: ('A' for Active; 'I' for Inactive)
REMARK    1  A    between atoms: C_1  and  C_2
REMARK    2  A    between atoms: N_4  and  C_5
REMARK    3  A    between atoms: C_8  and  O_9
REMARK    4  A    between atoms: O_9  and  C_10
REMARK    5  A    between atoms: C_10  and  C_11
REMARK    6  A    between atoms: C_10  and  C_12
REMARK                            x       y       z     vdW  Elec       q    Type
REMARK                         _______ _______ _______ _____ _____    ______ ____
ROOT
ATOM      1  C   UNL     1       5.401   4.772  15.389  0.00  0.00    +0.000 A 
ATOM      2  C   UNL     1       5.200   6.103  15.749  0.00  0.00    +0.000 A 
ATOM      3  C   UNL     1       4.802   6.426  17.052  0.00  0.00    +0.000 A 
ATOM      4  C   UNL     1       4.611   5.438  18.028  0.00  0.00    +0.000 A 
ATOM      5  C   UNL     1       4.729   4.100  17.640  0.00  0.00    +0.000 A 
ATOM      6 CL   UNL     1       4.358   2.745  18.647  0.00  0.00    +0.000 Cl
ATOM      7  C   UNL     1       5.128   3.778  16.330  0.00  0.00    +0.000 A 
ENDROOT
BRANCH   1  11
ATOM      8  C   UNL     1       7.221   4.084  12.161  0.00  0.00    +0.000 C 
ATOM      9  C   UNL     1       7.045   4.735  13.508  0.00  0.00    +0.000 C 
ATOM     10  O   UNL     1       7.897   5.496  13.956  0.00  0.00    +0.000 OA
ATOM     11  N   UNL     1       5.862   4.362  14.122  0.00  0.00    +0.000 N 
ATOM     12  H   UNL     1       5.323   3.637  13.660  0.00  0.00    +0.000 HD
ENDBRANCH   1  11
BRANCH   4  13
ATOM     13  O   UNL     1       4.275   5.962  19.243  0.00  0.00    +0.000 OA
BRANCH  13  14
ATOM     14  C   UNL     1       2.917   6.300  19.553  0.00  0.00    +0.000 C 
ATOM     15  C   UNL     1       2.153   6.900  18.370  0.00  0.00    +0.000 C 
BRANCH  14  16
ATOM     16  C   UNL     1       2.250   5.015  20.035  0.00  0.00    +0.000 A 
ATOM     17  C   UNL     1       2.569   4.490  21.297  0.00  0.00    +0.000 A 
ATOM     18  C   UNL     1       2.016   3.284  21.730  0.00  0.00    +0.000 A 
ATOM     19  C   UNL     1       1.130   2.589  20.909  0.00  0.00    +0.000 A 
ATOM     20  C   UNL     1       0.787   3.106  19.662  0.00  0.00    +0.000 A 
ATOM     21  C   UNL     1       1.341   4.312  19.227  0.00  0.00    +0.000 A 
ENDBRANCH  14  16
ENDBRANCH  13  14
ENDBRANCH   4  13
TORSDOF 4
ENDMDL
MODEL 2
REMARK VINA RESULT:      -7.7      2.974      6.521
REMARK  Name = 
REMARK  6 active torsions:
REMARK  status: ('A' for Active; 'I' for Inactive)
REMARK    1  A    between atoms: C_1  and  C_2
REMARK    2  A    between atoms: N_4  and  C_5
REMARK    3  A    between atoms: C_8  and  O_9
REMARK    4  A    between atoms: O_9  and  C_10
REMARK    5  A    between atoms: C_10  and  C_11
REMARK    6  A    between atoms: C_10  and  C_12
REMARK                            x       y       z     vdW  Elec       q    Type
REMARK                         _______ _______ _______ _____ _____    ______ ____
ROOT
ATOM      1  C   UNL     1       2.600   3.728  18.890  0.00  0.00    +0.000 A 
ATOM      2  C   UNL     1       3.118   2.840  17.951  0.00  0.00    +0.000 A 
ATOM      3  C   UNL     1       3.902   3.314  16.893  0.00  0.00    +0.000 A 
ATOM      4  C   UNL     1       4.201   4.677  16.754  0.00  0.00    +0.000 A 
ATOM      5  C   UNL     1       3.609   5.574  17.648  0.00  0.00    +0.000 A 
ATOM      6 CL   UNL     1       3.711   7.295  17.530  0.00  0.00    +0.000 Cl
ATOM      7  C   UNL     1       2.821   5.095  18.710  0.00  0.00    +0.000 A 
ENDROOT
BRANCH   1  11
ATOM      8  C   UNL     1       1.261   2.469  22.182  0.00  0.00    +0.000 C 
ATOM      9  C   UNL     1       2.345   2.736  21.169  0.00  0.00    +0.000 C 
ATOM     10  O   UNL     1       3.513   2.439  21.403  0.00  0.00    +0.000 OA
ATOM     11  N   UNL     1       1.856   3.332  20.020  0.00  0.00    +0.000 N 
ATOM     12  H   UNL     1       0.880   3.608  20.036  0.00  0.00    +0.000 HD
ENDBRANCH   1  11
BRANCH   4  13
ATOM     13  O   UNL     1       5.020   4.927  15.690  0.00  0.00    +0.000 OA
BRANCH  13  14
ATOM     14  C   UNL     1       6.406   4.564  15.723  0.00  0.00    +0.000 C 
ATOM     15  C   UNL     1       7.117   4.756  14.381  0.00  0.00    +0.000 C 
BRANCH  14  16
ATOM     16  C   UNL     1       7.053   5.421  16.807  0.00  0.00    +0.000 A 
ATOM     17  C   UNL     1       7.494   4.827  18.000  0.00  0.00    +0.000 A 
ATOM     18  C   UNL     1       8.032   5.603  19.028  0.00  0.00    +0.000 A 
ATOM     19  C   UNL     1       8.143   6.983  18.875  0.00  0.00    +0.000 A 
ATOM     20  C   UNL     1       7.729   7.586  17.689  0.00  0.00    +0.000 A 
ATOM     21  C   UNL     1       7.188   6.811  16.660  0.00  0.00    +0.000 A 
ENDBRANCH  14  16
ENDBRANCH  13  14
ENDBRANCH   4  13
TORSDOF 4
ENDMDL
MODEL 3
REMARK VINA RESULT:      -7.7      3.003      6.589
REMARK  Name = 
REMARK  6 active torsions:
REMARK  status: ('A' for Active; 'I' for Inactive)
REMARK    1  A    between atoms: C_1  and  C_2
REMARK    2  A    between atoms: N_4  and  C_5
REMARK    3  A    between atoms: C_8  and  O_9
REMARK    4  A    between atoms: O_9  and  C_10
REMARK    5  A    between atoms: C_10  and  C_11
REMARK    6  A    between atoms: C_10  and  C_12
REMARK                            x       y       z     vdW  Elec       q    Type
REMARK                         _______ _______ _______ _____ _____    ______ ____
ROOT
ATOM      1  C   UNL     1       2.570   3.736  18.969  0.00  0.00    +0.000 A 
ATOM      2  C   UNL     1       3.113   2.845  18.047  0.00  0.00    +0.000 A 
ATOM      3  C   UNL     1       3.897   3.319  16.989  0.00  0.00    +0.000 A 
ATOM      4  C   UNL     1       4.171   4.686  16.832  0.00  0.00    +0.000 A 
ATOM      5  C   UNL     1       3.554   5.583  17.708  0.00  0.00    +0.000 A 
ATOM      6 CL   UNL     1       3.623   7.304  17.567  0.00  0.00    +0.000 Cl
ATOM      7  C   UNL     1       2.766   5.104  18.771  0.00  0.00    +0.000 A 
ENDROOT
BRANCH   1  11
ATOM      8  C   UNL     1       1.226   2.467  22.255  0.00  0.00    +0.000 C 
ATOM      9  C   UNL     1       2.309   2.725  21.240  0.00  0.00    +0.000 C 
ATOM     10  O   UNL     1       3.473   2.405  21.464  0.00  0.00    +0.000 OA
ATOM     11  N   UNL     1       1.825   3.341  20.099  0.00  0.00    +0.000 N 
ATOM     12  H   UNL     1       0.854   3.635  20.123  0.00  0.00    +0.000 HD
ENDBRANCH   1  11
BRANCH   4  13
ATOM     13  O   UNL     1       4.992   4.936  15.771  0.00  0.00    +0.000 OA
BRANCH  13  14
ATOM     14  C   UNL     1       6.387   4.609  15.823  0.00  0.00    +0.000 C 
ATOM     15  C   UNL     1       7.112   4.820  14.491  0.00  0.00    +0.000 C 
BRANCH  14  16
ATOM     16  C   UNL     1       6.997   5.480  16.917  0.00  0.00    +0.000 A 
ATOM     17  C   UNL     1       7.146   6.861  16.712  0.00  0.00    +0.000 A 
ATOM     18  C   UNL     1       7.757   7.664  17.676  0.00  0.00    +0.000 A 
ATOM     19  C   UNL     1       8.221   7.100  18.862  0.00  0.00    +0.000 A 
ATOM     20  C   UNL     1       8.062   5.735  19.091  0.00  0.00    +0.000 A 
ATOM     21  C   UNL     1       7.453   4.929  18.126  0.00  0.00    +0.000 A 
ENDBRANCH  14  16
ENDBRANCH  13  14
ENDBRANCH   4  13
TORSDOF 4
ENDMDL
MODEL 4
REMARK VINA RESULT:      -7.6      1.795      2.056
REMARK  Name = 
REMARK  6 active torsions:
REMARK  status: ('A' for Active; 'I' for Inactive)
REMARK    1  A    between atoms: C_1  and  C_2
REMARK    2  A    between atoms: N_4  and  C_5
REMARK    3  A    between atoms: C_8  and  O_9
REMARK    4  A    between atoms: O_9  and  C_10
REMARK    5  A    between atoms: C_10  and  C_11
REMARK    6  A    between atoms: C_10  and  C_12
REMARK                            x       y       z     vdW  Elec       q    Type
REMARK                         _______ _______ _______ _____ _____    ______ ____
ROOT
ATOM      1  C   UNL     1       6.357   4.220  15.358  0.00  0.00    +0.000 A 
ATOM      2  C   UNL     1       5.413   3.517  16.102  0.00  0.00    +0.000 A 
ATOM      3  C   UNL     1       4.989   4.007  17.343  0.00  0.00    +0.000 A 
ATOM      4  C   UNL     1       5.483   5.212  17.864  0.00  0.00    +0.000 A 
ATOM      5  C   UNL     1       6.493   5.869  17.156  0.00  0.00    +0.000 A 
ATOM      6 CL   UNL     1       7.348   7.260  17.721  0.00  0.00    +0.000 Cl
ATOM      7  C   UNL     1       6.917   5.374  15.909  0.00  0.00    +0.000 A 
ENDROOT
BRANCH   1  11
ATOM      8  C   UNL     1       6.812   3.254  11.743  0.00  0.00    +0.000 C 
ATOM      9  C   UNL     1       6.003   3.646  12.952  0.00  0.00    +0.000 C 
ATOM     10  O   UNL     1       4.784   3.773  12.882  0.00  0.00    +0.000 OA
ATOM     11  N   UNL     1       6.792   3.834  14.074  0.00  0.00    +0.000 N 
ATOM     12  H   UNL     1       7.795   3.794  13.931  0.00  0.00    +0.000 HD
ENDBRANCH   1  11
BRANCH   4  13
ATOM     13  O   UNL     1       4.908   5.539  19.059  0.00  0.00    +0.000 OA
BRANCH  13  14
ATOM     14  C   UNL     1       3.630   6.187  19.111  0.00  0.00    +0.000 C 
ATOM     15  C   UNL     1       3.284   6.956  17.834  0.00  0.00    +0.000 C 
BRANCH  14  16
ATOM     16  C   UNL     1       2.601   5.094  19.382  0.00  0.00    +0.000 A 
ATOM     17  C   UNL     1       2.387   4.641  20.694  0.00  0.00    +0.000 A 
ATOM     18  C   UNL     1       1.494   3.600  20.954  0.00  0.00    +0.000 A 
ATOM     19  C   UNL     1       0.797   3.001  19.907  0.00  0.00    +0.000 A 
ATOM     20  C   UNL     1       0.982   3.453  18.602  0.00  0.00    +0.000 A 
ATOM     21  C   UNL     1       1.877   4.493  18.339  0.00  0.00    +0.000 A 
ENDBRANCH  14  16
ENDBRANCH  13  14
ENDBRANCH   4  13
TORSDOF 4
ENDMDL
MODEL 5
REMARK VINA RESULT:      -7.6      0.060      1.081
REMARK  Name = 
REMARK  6 active torsions:
REMARK  status: ('A' for Active; 'I' for Inactive)
REMARK    1  A    between atoms: C_1  and  C_2
REMARK    2  A    between atoms: N_4  and  C_5
REMARK    3  A    between atoms: C_8  and  O_9
REMARK    4  A    between atoms: O_9  and  C_10
REMARK    5  A    between atoms: C_10  and  C_11
REMARK    6  A    between atoms: C_10  and  C_12
REMARK                            x       y       z     vdW  Elec       q    Type
REMARK                         _______ _______ _______ _____ _____    ______ ____
ROOT
ATOM      1  C   UNL     1       5.430   4.815  15.356  0.00  0.00    +0.000 A 
ATOM      2  C   UNL     1       5.207   6.142  15.714  0.00  0.00    +0.000 A 
ATOM      3  C   UNL     1       4.809   6.460  17.018  0.00  0.00    +0.000 A 
ATOM      4  C   UNL     1       4.639   5.470  17.996  0.00  0.00    +0.000 A 
ATOM      5  C   UNL     1       4.780   4.135  17.611  0.00  0.00    +0.000 A 
ATOM      6 CL   UNL     1       4.438   2.775  18.621  0.00  0.00    +0.000 Cl
ATOM      7  C   UNL     1       5.180   3.817  16.300  0.00  0.00    +0.000 A 
ENDROOT
BRANCH   1  11
ATOM      8  C   UNL     1       7.263   4.129  12.134  0.00  0.00    +0.000 C 
ATOM      9  C   UNL     1       7.089   4.768  13.487  0.00  0.00    +0.000 C 
ATOM     10  O   UNL     1       7.951   5.508  13.951  0.00  0.00    +0.000 OA
ATOM     11  N   UNL     1       5.894   4.410  14.088  0.00  0.00    +0.000 N 
ATOM     12  H   UNL     1       5.346   3.701  13.613  0.00  0.00    +0.000 HD
ENDBRANCH   1  11
BRANCH   4  13
ATOM     13  O   UNL     1       4.299   5.991  19.212  0.00  0.00    +0.000 OA
BRANCH  13  14
ATOM     14  C   UNL     1       2.933   6.282  19.536  0.00  0.00    +0.000 C 
ATOM     15  C   UNL     1       2.139   6.863  18.363  0.00  0.00    +0.000 C 
BRANCH  14  16
ATOM     16  C   UNL     1       2.313   4.973  20.015  0.00  0.00    +0.000 A 
ATOM     17  C   UNL     1       1.402   4.287  19.196  0.00  0.00    +0.000 A 
ATOM     18  C   UNL     1       0.777   3.121  19.642  0.00  0.00    +0.000 A 
ATOM     19  C   UNL     1       1.060   2.620  20.911  0.00  0.00    +0.000 A 
ATOM     20  C   UNL     1       1.978   3.276  21.728  0.00  0.00    +0.000 A 
ATOM     21  C   UNL     1       2.602   4.445  21.284  0.00  0.00    +0.000 A 
ENDBRANCH  14  16
ENDBRANCH  13  14
ENDBRANCH   4  13
TORSDOF 4
ENDMDL
MODEL 6
REMARK VINA RESULT:      -7.4      1.950      2.734
REMARK  Name = 
REMARK  6 active torsions:
REMARK  status: ('A' for Active; 'I' for Inactive)
REMARK    1  A    between atoms: C_1  and  C_2
REMARK    2  A    between atoms: N_4  and  C_5
REMARK    3  A    between atoms: C_8  and  O_9
REMARK    4  A    between atoms: O_9  and  C_10
REMARK    5  A    between atoms: C_10  and  C_11
REMARK    6  A    between atoms: C_10  and  C_12
REMARK                            x       y       z     vdW  Elec       q    Type
REMARK                         _______ _______ _______ _____ _____    ______ ____
ROOT
ATOM      1  C   UNL     1       6.811   5.155  15.904  0.00  0.00    +0.000 A 
ATOM      2  C   UNL     1       7.565   4.590  16.930  0.00  0.00    +0.000 A 
ATOM      3  C   UNL     1       6.947   4.200  18.123  0.00  0.00    +0.000 A 
ATOM      4  C   UNL     1       5.566   4.349  18.319  0.00  0.00    +0.000 A 
ATOM      5  C   UNL     1       4.828   4.995  17.324  0.00  0.00    +0.000 A 
ATOM      6 CL   UNL     1       3.161   5.430  17.457  0.00  0.00    +0.000 Cl
ATOM      7  C   UNL     1       5.451   5.386  16.124  0.00  0.00    +0.000 A 
ENDROOT
BRANCH   1  11
ATOM      8  C   UNL     1       7.867   5.524  12.304  0.00  0.00    +0.000 C 
ATOM      9  C   UNL     1       7.178   4.835  13.453  0.00  0.00    +0.000 C 
ATOM     10  O   UNL     1       6.556   3.791  13.281  0.00  0.00    +0.000 OA
ATOM     11  N   UNL     1       7.338   5.516  14.647  0.00  0.00    +0.000 N 
ATOM     12  H   UNL     1       7.790   6.422  14.592  0.00  0.00    +0.000 HD
ENDBRANCH   1  11
BRANCH   4  13
ATOM     13  O   UNL     1       5.154   3.863  19.526  0.00  0.00    +0.000 OA
BRANCH  13  14
ATOM     14  C   UNL     1       4.566   2.560  19.637  0.00  0.00    +0.000 C 
ATOM     15  C   UNL     1       5.061   1.770  20.851  0.00  0.00    +0.000 C 
BRANCH  14  16
ATOM     16  C   UNL     1       3.057   2.770  19.705  0.00  0.00    +0.000 A 
ATOM     17  C   UNL     1       2.220   2.155  18.760  0.00  0.00    +0.000 A 
ATOM     18  C   UNL     1       0.843   2.384  18.768  0.00  0.00    +0.000 A 
ATOM     19  C   UNL     1       0.282   3.226  19.725  0.00  0.00    +0.000 A 
ATOM     20  C   UNL     1       1.095   3.829  20.683  0.00  0.00    +0.000 A 
ATOM     21  C   UNL     1       2.474   3.602  20.675  0.00  0.00    +0.000 A 
ENDBRANCH  14  16
ENDBRANCH  13  14
ENDBRANCH   4  13
TORSDOF 4
ENDMDL
MODEL 7
REMARK VINA RESULT:      -7.4      1.744      3.267
REMARK  Name = 
REMARK  6 active torsions:
REMARK  status: ('A' for Active; 'I' for Inactive)
REMARK    1  A    between atoms: C_1  and  C_2
REMARK    2  A    between atoms: N_4  and  C_5
REMARK    3  A    between atoms: C_8  and  O_9
REMARK    4  A    between atoms: O_9  and  C_10
REMARK    5  A    between atoms: C_10  and  C_11
REMARK    6  A    between atoms: C_10  and  C_12
REMARK                            x       y       z     vdW  Elec       q    Type
REMARK                         _______ _______ _______ _____ _____    ______ ____
ROOT
ATOM      1  C   UNL     1       5.759   4.400  15.075  0.00  0.00    +0.000 A 
ATOM      2  C   UNL     1       5.552   5.768  15.230  0.00  0.00    +0.000 A 
ATOM      3  C   UNL     1       4.973   6.262  16.405  0.00  0.00    +0.000 A 
ATOM      4  C   UNL     1       4.601   5.410  17.455  0.00  0.00    +0.000 A 
ATOM      5  C   UNL     1       4.731   4.033  17.261  0.00  0.00    +0.000 A 
ATOM      6 CL   UNL     1       4.164   2.824  18.358  0.00  0.00    +0.000 Cl
ATOM      7  C   UNL     1       5.313   3.539  16.079  0.00  0.00    +0.000 A 
ENDROOT
BRANCH   1  11
ATOM      8  C   UNL     1       6.797   2.917  11.768  0.00  0.00    +0.000 C 
ATOM      9  C   UNL     1       5.808   3.500  12.744  0.00  0.00    +0.000 C 
ATOM     10  O   UNL     1       4.630   3.652  12.434  0.00  0.00    +0.000 OA
ATOM     11  N   UNL     1       6.393   3.823  13.956  0.00  0.00    +0.000 N 
ATOM     12  H   UNL     1       7.403   3.734  14.007  0.00  0.00    +0.000 HD
ENDBRANCH   1  11
BRANCH   4  13
ATOM     13  O   UNL     1       4.103   6.091  18.529  0.00  0.00    +0.000 OA
BRANCH  13  14
ATOM     14  C   UNL     1       2.716   6.003  18.882  0.00  0.00    +0.000 C 
ATOM     15  C   UNL     1       2.469   5.267  20.201  0.00  0.00    +0.000 C 
BRANCH  14  16
ATOM     16  C   UNL     1       2.195   7.435  18.954  0.00  0.00    +0.000 A 
ATOM     17  C   UNL     1       1.676   7.933  20.160  0.00  0.00    +0.000 A 
ATOM     18  C   UNL     1       1.139   9.220  20.229  0.00  0.00    +0.000 A 
ATOM     19  C   UNL     1       1.119  10.029  19.096  0.00  0.00    +0.000 A 
ATOM     20  C   UNL     1       1.650   9.559  17.896  0.00  0.00    +0.000 A 
ATOM     21  C   UNL     1       2.185   8.270  17.824  0.00  0.00    +0.000 A 
ENDBRANCH  14  16
ENDBRANCH  13  14
ENDBRANCH   4  13
TORSDOF 4
ENDMDL
MODEL 8
REMARK VINA RESULT:      -7.3      1.936      2.544
REMARK  Name = 
REMARK  6 active torsions:
REMARK  status: ('A' for Active; 'I' for Inactive)
REMARK    1  A    between atoms: C_1  and  C_2
REMARK    2  A    between atoms: N_4  and  C_5
REMARK    3  A    between atoms: C_8  and  O_9
REMARK    4  A    between atoms: O_9  and  C_10
REMARK    5  A    between atoms: C_10  and  C_11
REMARK    6  A    between atoms: C_10  and  C_12
REMARK                            x       y       z     vdW  Elec       q    Type
REMARK                         _______ _______ _______ _____ _____    ______ ____
ROOT
ATOM      1  C   UNL     1       6.797   5.166  15.870  0.00  0.00    +0.000 A 
ATOM      2  C   UNL     1       7.555   4.577  16.879  0.00  0.00    +0.000 A 
ATOM      3  C   UNL     1       6.948   4.190  18.079  0.00  0.00    +0.000 A 
ATOM      4  C   UNL     1       5.574   4.366  18.297  0.00  0.00    +0.000 A 
ATOM      5  C   UNL     1       4.834   5.035  17.319  0.00  0.00    +0.000 A 
ATOM      6 CL   UNL     1       3.178   5.502  17.483  0.00  0.00    +0.000 Cl
ATOM      7  C   UNL     1       5.446   5.423  16.113  0.00  0.00    +0.000 A 
ENDROOT
BRANCH   1  11
ATOM      8  C   UNL     1       7.828   5.527  12.262  0.00  0.00    +0.000 C 
ATOM      9  C   UNL     1       7.157   4.834  13.419  0.00  0.00    +0.000 C 
ATOM     10  O   UNL     1       6.551   3.779  13.257  0.00  0.00    +0.000 OA
ATOM     11  N   UNL     1       7.311   5.526  14.608  0.00  0.00    +0.000 N 
ATOM     12  H   UNL     1       7.749   6.439  14.544  0.00  0.00    +0.000 HD
ENDBRANCH   1  11
BRANCH   4  13
ATOM     13  O   UNL     1       5.171   3.878  19.507  0.00  0.00    +0.000 OA
BRANCH  13  14
ATOM     14  C   UNL     1       4.551   2.590  19.616  0.00  0.00    +0.000 C 
ATOM     15  C   UNL     1       5.003   1.798  20.845  0.00  0.00    +0.000 C 
BRANCH  14  16
ATOM     16  C   UNL     1       3.046   2.835  19.651  0.00  0.00    +0.000 A 
ATOM     17  C   UNL     1       2.492   3.654  20.649  0.00  0.00    +0.000 A 
ATOM     18  C   UNL     1       1.111   3.840  20.735  0.00  0.00    +0.000 A 
ATOM     19  C   UNL     1       0.265   3.218  19.820  0.00  0.00    +0.000 A 
ATOM     20  C   UNL     1       0.800   2.420  18.811  0.00  0.00    +0.000 A 
ATOM     21  C   UNL     1       2.181   2.229  18.725  0.00  0.00    +0.000 A 
ENDBRANCH  14  16
ENDBRANCH  13  14
ENDBRANCH   4  13
TORSDOF 4
ENDMDL
MODEL 9
REMARK VINA RESULT:      -7.3      1.109      1.109
REMARK  Name = 
REMARK  6 active torsions:
REMARK  status: ('A' for Active; 'I' for Inactive)
REMARK    1  A    between atoms: C_1  and  C_2
REMARK    2  A    between atoms: N_4  and  C_5
REMARK    3  A    between atoms: C_8  and  O_9
REMARK    4  A    between atoms: O_9  and  C_10
REMARK    5  A    between atoms: C_10  and  C_11
REMARK    6  A    between atoms: C_10  and  C_12
REMARK                            x       y       z     vdW  Elec       q    Type
REMARK                         _______ _______ _______ _____ _____    ______ ____
ROOT
ATOM      1  C   UNL     1       5.939   4.347  15.244  0.00  0.00    +0.000 A 
ATOM      2  C   UNL     1       5.946   5.682  15.642  0.00  0.00    +0.000 A 
ATOM      3  C   UNL     1       5.395   6.050  16.874  0.00  0.00    +0.000 A 
ATOM      4  C   UNL     1       4.839   5.101  17.744  0.00  0.00    +0.000 A 
ATOM      5  C   UNL     1       4.756   3.778  17.305  0.00  0.00    +0.000 A 
ATOM      6 CL   UNL     1       3.948   2.506  18.152  0.00  0.00    +0.000 Cl
ATOM      7  C   UNL     1       5.310   3.409  16.065  0.00  0.00    +0.000 A 
ENDROOT
BRANCH   1  11
ATOM      8  C   UNL     1       6.835   3.138  11.787  0.00  0.00    +0.000 C 
ATOM      9  C   UNL     1       5.883   3.603  12.859  0.00  0.00    +0.000 C 
ATOM     10  O   UNL     1       4.682   3.711  12.632  0.00  0.00    +0.000 OA
ATOM     11  N   UNL     1       6.528   3.878  14.052  0.00  0.00    +0.000 N 
ATOM     12  H   UNL     1       7.542   3.841  14.036  0.00  0.00    +0.000 HD
ENDBRANCH   1  11
BRANCH   4  13
ATOM     13  O   UNL     1       4.403   5.656  18.913  0.00  0.00    +0.000 OA
BRANCH  13  14
ATOM     14  C   UNL     1       3.036   6.054  19.078  0.00  0.00    +0.000 C 
ATOM     15  C   UNL     1       2.337   6.395  17.759  0.00  0.00    +0.000 C 
BRANCH  14  16
ATOM     16  C   UNL     1       2.330   4.900  19.783  0.00  0.00    +0.000 A 
ATOM     17  C   UNL     1       2.709   4.538  21.086  0.00  0.00    +0.000 A 
ATOM     18  C   UNL     1       2.118   3.446  21.724  0.00  0.00    +0.000 A 
ATOM     19  C   UNL     1       1.135   2.705  21.072  0.00  0.00    +0.000 A 
ATOM     20  C   UNL     1       0.732   3.064  19.787  0.00  0.00    +0.000 A 
ATOM     21  C   UNL     1       1.324   4.155  19.146  0.00  0.00    +0.000 A 
ENDBRANCH  14  16
ENDBRANCH  13  14
ENDBRANCH   4  13
TORSDOF 4
ENDMDL
