MODEL 1
REMARK VINA RESULT:      -7.9      0.000      0.000
REMARK  Name = 
REMARK  3 active torsions:
REMARK  status: ('A' for Active; 'I' for Inactive)
REMARK    1  A    between atoms: C_5  and  C_6
REMARK    2  A    between atoms: C_6  and  C_7
REMARK    3  A    between atoms: C_6  and  C_14
REMARK                            x       y       z     vdW  Elec       q    Type
REMARK                         _______ _______ _______ _____ _____    ______ ____
ROOT
ATOM      1  C   UNL     1       3.358   5.873  19.402  0.00  0.00    +0.000 C 
ENDROOT
BRANCH   1   6
ATOM      2 CL   UNL     1       6.651   4.654  14.455  0.00  0.00    +0.000 Cl
ATOM      3  C   UNL     1       5.704   5.005  15.848  0.00  0.00    +0.000 A 
ATOM      4  C   UNL     1       5.994   6.127  16.619  0.00  0.00    +0.000 A 
ATOM      5  C   UNL     1       5.230   6.407  17.758  0.00  0.00    +0.000 A 
ATOM      6  C   UNL     1       4.166   5.568  18.132  0.00  0.00    +0.000 A 
ATOM      7  C   UNL     1       3.887   4.446  17.331  0.00  0.00    +0.000 A 
ATOM      8  C   UNL     1       4.655   4.162  16.200  0.00  0.00    +0.000 A 
ENDBRANCH   1   6
BRANCH   1   9
ATOM      9  C   UNL     1       2.502   7.142  19.229  0.00  0.00    +0.000 A 
ATOM     10  C   UNL     1       1.843   7.738  20.322  0.00  0.00    +0.000 A 
ATOM     11  C   UNL     1       1.123   8.924  20.163  0.00  0.00    +0.000 A 
ATOM     12  C   UNL     1       1.041   9.517  18.909  0.00  0.00    +0.000 A 
ATOM     13 CL   UNL     1       0.178  10.995  18.719  0.00  0.00    +0.000 Cl
ATOM     14  C   UNL     1       1.657   8.928  17.807  0.00  0.00    +0.000 A 
ATOM     15  C   UNL     1       2.381   7.741  17.965  0.00  0.00    +0.000 A 
ENDBRANCH   1   9
BRANCH   1  16
ATOM     16  C   UNL     1       2.568   4.706  19.975  0.00  0.00    +0.000 A 
ATOM     17  C   UNL     1       1.454   4.134  19.391  0.00  0.00    +0.000 A 
ATOM     18  N   UNL     1       0.711   3.162  19.964  0.00  0.00    +0.000 NA
ATOM     19  C   UNL     1       1.131   2.734  21.162  0.00  0.00    +0.000 A 
ATOM     20  N   UNL     1       2.224   3.161  21.808  0.00  0.00    +0.000 NA
ATOM     21  C   UNL     1       2.924   4.133  21.188  0.00  0.00    +0.000 A 
ENDBRANCH   1  16
TORSDOF 3
ENDMDL
MODEL 2
REMARK VINA RESULT:      -7.9      0.215      1.048
REMARK  Name = 
REMARK  3 active torsions:
REMARK  status: ('A' for Active; 'I' for Inactive)
REMARK    1  A    between atoms: C_5  and  C_6
REMARK    2  A    between atoms: C_6  and  C_7
REMARK    3  A    between atoms: C_6  and  C_14
REMARK                            x       y       z     vdW  Elec       q    Type
REMARK                         _______ _______ _______ _____ _____    ______ ____
ROOT
ATOM      1  C   UNL     1       3.254   5.991  19.462  0.00  0.00    +0.000 C 
ENDROOT
BRANCH   1   6
ATOM      2 CL   UNL     1       6.309   4.555  14.422  0.00  0.00    +0.000 Cl
ATOM      3  C   UNL     1       5.429   4.965  15.841  0.00  0.00    +0.000 A 
ATOM      4  C   UNL     1       5.662   6.182  16.475  0.00  0.00    +0.000 A 
ATOM      5  C   UNL     1       4.954   6.511  17.636  0.00  0.00    +0.000 A 
ATOM      6  C   UNL     1       4.001   5.627  18.170  0.00  0.00    +0.000 A 
ATOM      7  C   UNL     1       3.775   4.407  17.506  0.00  0.00    +0.000 A 
ATOM      8  C   UNL     1       4.489   4.076  16.353  0.00  0.00    +0.000 A 
ENDBRANCH   1   6
BRANCH   1   9
ATOM      9  C   UNL     1       2.401   7.261  19.276  0.00  0.00    +0.000 A 
ATOM     10  C   UNL     1       1.749   7.873  20.364  0.00  0.00    +0.000 A 
ATOM     11  C   UNL     1       1.032   9.059  20.193  0.00  0.00    +0.000 A 
ATOM     12  C   UNL     1       0.945   9.635  18.931  0.00  0.00    +0.000 A 
ATOM     13 CL   UNL     1       0.086  11.113  18.726  0.00  0.00    +0.000 Cl
ATOM     14  C   UNL     1       1.553   9.029  17.834  0.00  0.00    +0.000 A 
ATOM     15  C   UNL     1       2.275   7.842  18.005  0.00  0.00    +0.000 A 
ENDBRANCH   1   9
BRANCH   1  16
ATOM     16  C   UNL     1       2.482   4.856  20.118  0.00  0.00    +0.000 A 
ATOM     17  C   UNL     1       2.753   4.323  21.364  0.00  0.00    +0.000 A 
ATOM     18  N   UNL     1       2.117   3.252  21.886  0.00  0.00    +0.000 NA
ATOM     19  C   UNL     1       1.149   2.719  21.128  0.00  0.00    +0.000 A 
ATOM     20  N   UNL     1       0.749   3.175  19.934  0.00  0.00    +0.000 NA
ATOM     21  C   UNL     1       1.423   4.244  19.463  0.00  0.00    +0.000 A 
ENDBRANCH   1  16
TORSDOF 3
ENDMDL
MODEL 3
REMARK VINA RESULT:      -7.9      0.256      1.484
REMARK  Name = 
REMARK  3 active torsions:
REMARK  status: ('A' for Active; 'I' for Inactive)
REMARK    1  A    between atoms: C_5  and  C_6
REMARK    2  A    between atoms: C_6  and  C_7
REMARK    3  A    between atoms: C_6  and  C_14
REMARK                            x       y       z     vdW  Elec       q    Type
REMARK                         _______ _______ _______ _____ _____    ______ ____
ROOT
ATOM      1  C   UNL     1       3.257   6.014  19.462  0.00  0.00    +0.000 C 
ENDROOT
BRANCH   1   6
ATOM      2 CL   UNL     1       6.173   4.589  14.337  0.00  0.00    +0.000 Cl
ATOM      3  C   UNL     1       5.361   4.991  15.799  0.00  0.00    +0.000 A 
ATOM      4  C   UNL     1       4.491   4.076  16.384  0.00  0.00    +0.000 A 
ATOM      5  C   UNL     1       3.822   4.406  17.568  0.00  0.00    +0.000 A 
ATOM      6  C   UNL     1       4.022   5.655  18.180  0.00  0.00    +0.000 A 
ATOM      7  C   UNL     1       4.914   6.560  17.575  0.00  0.00    +0.000 A 
ATOM      8  C   UNL     1       5.574   6.233  16.389  0.00  0.00    +0.000 A 
ENDBRANCH   1   6
BRANCH   1   9
ATOM      9  C   UNL     1       2.399   7.279  19.265  0.00  0.00    +0.000 A 
ATOM     10  C   UNL     1       1.753   7.904  20.350  0.00  0.00    +0.000 A 
ATOM     11  C   UNL     1       1.031   9.085  20.168  0.00  0.00    +0.000 A 
ATOM     12  C   UNL     1       0.933   9.644  18.900  0.00  0.00    +0.000 A 
ATOM     13 CL   UNL     1       0.068  11.117  18.681  0.00  0.00    +0.000 Cl
ATOM     14  C   UNL     1       1.535   9.025  17.806  0.00  0.00    +0.000 A 
ATOM     15  C   UNL     1       2.261   7.843  17.987  0.00  0.00    +0.000 A 
ENDBRANCH   1   9
BRANCH   1  16
ATOM     16  C   UNL     1       2.483   4.874  20.107  0.00  0.00    +0.000 A 
ATOM     17  C   UNL     1       2.749   4.333  21.351  0.00  0.00    +0.000 A 
ATOM     18  N   UNL     1       2.112   3.259  21.863  0.00  0.00    +0.000 NA
ATOM     19  C   UNL     1       1.148   2.730  21.097  0.00  0.00    +0.000 A 
ATOM     20  N   UNL     1       0.752   3.193  19.904  0.00  0.00    +0.000 NA
ATOM     21  C   UNL     1       1.428   4.266  19.443  0.00  0.00    +0.000 A 
ENDBRANCH   1  16
TORSDOF 3
ENDMDL
MODEL 4
REMARK VINA RESULT:      -7.9      0.215      1.056
REMARK  Name = 
REMARK  3 active torsions:
REMARK  status: ('A' for Active; 'I' for Inactive)
REMARK    1  A    between atoms: C_5  and  C_6
REMARK    2  A    between atoms: C_6  and  C_7
REMARK    3  A    between atoms: C_6  and  C_14
REMARK                            x       y       z     vdW  Elec       q    Type
REMARK                         _______ _______ _______ _____ _____    ______ ____
ROOT
ATOM      1  C   UNL     1       3.300   5.918  19.401  0.00  0.00    +0.000 C 
ENDROOT
BRANCH   1   6
ATOM      2 CL   UNL     1       6.269   4.668  14.260  0.00  0.00    +0.000 Cl
ATOM      3  C   UNL     1       5.442   5.021  15.726  0.00  0.00    +0.000 A 
ATOM      4  C   UNL     1       4.647   4.049  16.327  0.00  0.00    +0.000 A 
ATOM      5  C   UNL     1       3.966   4.339  17.514  0.00  0.00    +0.000 A 
ATOM      6  C   UNL     1       4.079   5.605  18.114  0.00  0.00    +0.000 A 
ATOM      7  C   UNL     1       4.896   6.569  17.494  0.00  0.00    +0.000 A 
ATOM      8  C   UNL     1       5.568   6.281  16.304  0.00  0.00    +0.000 A 
ENDBRANCH   1   6
BRANCH   1   9
ATOM      9  C   UNL     1       2.447   7.191  19.242  0.00  0.00    +0.000 A 
ATOM     10  C   UNL     1       1.815   7.793  20.348  0.00  0.00    +0.000 A 
ATOM     11  C   UNL     1       1.097   8.982  20.201  0.00  0.00    +0.000 A 
ATOM     12  C   UNL     1       0.990   9.572  18.947  0.00  0.00    +0.000 A 
ATOM     13 CL   UNL     1       0.130  11.053  18.772  0.00  0.00    +0.000 Cl
ATOM     14  C   UNL     1       1.578   8.976  17.833  0.00  0.00    +0.000 A 
ATOM     15  C   UNL     1       2.300   7.786  17.980  0.00  0.00    +0.000 A 
ENDBRANCH   1   9
BRANCH   1  16
ATOM     16  C   UNL     1       2.517   4.756  19.994  0.00  0.00    +0.000 A 
ATOM     17  C   UNL     1       1.423   4.149  19.408  0.00  0.00    +0.000 A 
ATOM     18  N   UNL     1       0.684   3.184  19.996  0.00  0.00    +0.000 NA
ATOM     19  C   UNL     1       1.088   2.799  21.214  0.00  0.00    +0.000 A 
ATOM     20  N   UNL     1       2.163   3.261  21.866  0.00  0.00    +0.000 NA
ATOM     21  C   UNL     1       2.859   4.226  21.230  0.00  0.00    +0.000 A 
ENDBRANCH   1  16
TORSDOF 3
ENDMDL
MODEL 5
REMARK VINA RESULT:      -7.8      0.284      1.498
REMARK  Name = 
REMARK  3 active torsions:
REMARK  status: ('A' for Active; 'I' for Inactive)
REMARK    1  A    between atoms: C_5  and  C_6
REMARK    2  A    between atoms: C_6  and  C_7
REMARK    3  A    between atoms: C_6  and  C_14
REMARK                            x       y       z     vdW  Elec       q    Type
REMARK                         _______ _______ _______ _____ _____    ______ ____
ROOT
ATOM      1  C   UNL     1       3.263   6.017  19.423  0.00  0.00    +0.000 C 
ENDROOT
BRANCH   1   6
ATOM      2 CL   UNL     1       6.249   4.576  14.343  0.00  0.00    +0.000 Cl
ATOM      3  C   UNL     1       5.387   4.985  15.774  0.00  0.00    +0.000 A 
ATOM      4  C   UNL     1       5.517   6.258  16.322  0.00  0.00    +0.000 A 
ATOM      5  C   UNL     1       4.824   6.589  17.492  0.00  0.00    +0.000 A 
ATOM      6  C   UNL     1       3.991   5.648  18.122  0.00  0.00    +0.000 A 
ATOM      7  C   UNL     1       3.869   4.371  17.545  0.00  0.00    +0.000 A 
ATOM      8  C   UNL     1       4.567   4.040  16.382  0.00  0.00    +0.000 A 
ENDBRANCH   1   6
BRANCH   1   9
ATOM      9  C   UNL     1       2.432   7.304  19.253  0.00  0.00    +0.000 A 
ATOM     10  C   UNL     1       2.266   7.909  17.992  0.00  0.00    +0.000 A 
ATOM     11  C   UNL     1       1.458   9.038  17.842  0.00  0.00    +0.000 A 
ATOM     12  C   UNL     1       0.823   9.583  18.951  0.00  0.00    +0.000 A 
ATOM     13 CL   UNL     1      -0.197  10.957  18.760  0.00  0.00    +0.000 Cl
ATOM     14  C   UNL     1       1.000   9.021  20.214  0.00  0.00    +0.000 A 
ATOM     15  C   UNL     1       1.806   7.888  20.365  0.00  0.00    +0.000 A 
ENDBRANCH   1   9
BRANCH   1  16
ATOM     16  C   UNL     1       2.476   4.892  20.078  0.00  0.00    +0.000 A 
ATOM     17  C   UNL     1       2.732   4.364  21.329  0.00  0.00    +0.000 A 
ATOM     18  N   UNL     1       2.082   3.301  21.851  0.00  0.00    +0.000 NA
ATOM     19  C   UNL     1       1.116   2.773  21.088  0.00  0.00    +0.000 A 
ATOM     20  N   UNL     1       0.730   3.225  19.888  0.00  0.00    +0.000 NA
ATOM     21  C   UNL     1       1.417   4.286  19.417  0.00  0.00    +0.000 A 
ENDBRANCH   1  16
TORSDOF 3
ENDMDL
MODEL 6
REMARK VINA RESULT:      -7.8      0.197      1.072
REMARK  Name = 
REMARK  3 active torsions:
REMARK  status: ('A' for Active; 'I' for Inactive)
REMARK    1  A    between atoms: C_5  and  C_6
REMARK    2  A    between atoms: C_6  and  C_7
REMARK    3  A    between atoms: C_6  and  C_14
REMARK                            x       y       z     vdW  Elec       q    Type
REMARK                         _______ _______ _______ _____ _____    ______ ____
ROOT
ATOM      1  C   UNL     1       3.329   5.923  19.358  0.00  0.00    +0.000 C 
ENDROOT
BRANCH   1   6
ATOM      2 CL   UNL     1       6.428   4.700  14.289  0.00  0.00    +0.000 Cl
ATOM      3  C   UNL     1       5.534   5.048  15.716  0.00  0.00    +0.000 A 
ATOM      4  C   UNL     1       5.675   6.286  16.338  0.00  0.00    +0.000 A 
ATOM      5  C   UNL     1       4.957   6.566  17.506  0.00  0.00    +0.000 A 
ATOM      6  C   UNL     1       4.087   5.611  18.059  0.00  0.00    +0.000 A 
ATOM      7  C   UNL     1       3.954   4.371  17.408  0.00  0.00    +0.000 A 
ATOM      8  C   UNL     1       4.678   4.089  16.247  0.00  0.00    +0.000 A 
ENDBRANCH   1   6
BRANCH   1   9
ATOM      9  C   UNL     1       2.495   7.211  19.223  0.00  0.00    +0.000 A 
ATOM     10  C   UNL     1       2.325   7.849  17.978  0.00  0.00    +0.000 A 
ATOM     11  C   UNL     1       1.513   8.979  17.859  0.00  0.00    +0.000 A 
ATOM     12  C   UNL     1       0.878   9.494  18.982  0.00  0.00    +0.000 A 
ATOM     13 CL   UNL     1      -0.145  10.869  18.829  0.00  0.00    +0.000 Cl
ATOM     14  C   UNL     1       1.059   8.899  20.230  0.00  0.00    +0.000 A 
ATOM     15  C   UNL     1       1.868   7.765  20.351  0.00  0.00    +0.000 A 
ENDBRANCH   1   9
BRANCH   1  16
ATOM     16  C   UNL     1       2.535   4.769  19.951  0.00  0.00    +0.000 A 
ATOM     17  C   UNL     1       1.431   4.178  19.367  0.00  0.00    +0.000 A 
ATOM     18  N   UNL     1       0.683   3.219  19.955  0.00  0.00    +0.000 NA
ATOM     19  C   UNL     1       1.088   2.823  21.169  0.00  0.00    +0.000 A 
ATOM     20  N   UNL     1       2.171   3.270  21.818  0.00  0.00    +0.000 NA
ATOM     21  C   UNL     1       2.876   4.229  21.182  0.00  0.00    +0.000 A 
ENDBRANCH   1  16
TORSDOF 3
ENDMDL
MODEL 7
REMARK VINA RESULT:      -7.8      0.226      1.821
REMARK  Name = 
REMARK  3 active torsions:
REMARK  status: ('A' for Active; 'I' for Inactive)
REMARK    1  A    between atoms: C_5  and  C_6
REMARK    2  A    between atoms: C_6  and  C_7
REMARK    3  A    between atoms: C_6  and  C_14
REMARK                            x       y       z     vdW  Elec       q    Type
REMARK                         _______ _______ _______ _____ _____    ______ ____
ROOT
ATOM      1  C   UNL     1       3.311   6.002  19.466  0.00  0.00    +0.000 C 
ENDROOT
BRANCH   1   6
ATOM      2 CL   UNL     1       6.230   4.514  14.361  0.00  0.00    +0.000 Cl
ATOM      3  C   UNL     1       5.417   4.932  15.817  0.00  0.00    +0.000 A 
ATOM      4  C   UNL     1       4.452   4.078  16.344  0.00  0.00    +0.000 A 
ATOM      5  C   UNL     1       3.783   4.422  17.523  0.00  0.00    +0.000 A 
ATOM      6  C   UNL     1       4.077   5.625  18.189  0.00  0.00    +0.000 A 
ATOM      7  C   UNL     1       5.062   6.468  17.643  0.00  0.00    +0.000 A 
ATOM      8  C   UNL     1       5.723   6.127  16.462  0.00  0.00    +0.000 A 
ENDBRANCH   1   6
BRANCH   1   9
ATOM      9  C   UNL     1       2.482   7.285  19.261  0.00  0.00    +0.000 A 
ATOM     10  C   UNL     1       2.353   7.882  17.992  0.00  0.00    +0.000 A 
ATOM     11  C   UNL     1       1.547   9.007  17.809  0.00  0.00    +0.000 A 
ATOM     12  C   UNL     1       0.876   9.558  18.894  0.00  0.00    +0.000 A 
ATOM     13 CL   UNL     1      -0.141  10.927  18.663  0.00  0.00    +0.000 Cl
ATOM     14  C   UNL     1       1.015   9.005  20.166  0.00  0.00    +0.000 A 
ATOM     15  C   UNL     1       1.820   7.875  20.350  0.00  0.00    +0.000 A 
ENDBRANCH   1   9
BRANCH   1  16
ATOM     16  C   UNL     1       2.508   4.881  20.108  0.00  0.00    +0.000 A 
ATOM     17  C   UNL     1       2.746   4.345  21.359  0.00  0.00    +0.000 A 
ATOM     18  N   UNL     1       2.083   3.285  21.869  0.00  0.00    +0.000 NA
ATOM     19  C   UNL     1       1.121   2.768  21.094  0.00  0.00    +0.000 A 
ATOM     20  N   UNL     1       0.751   3.229  19.892  0.00  0.00    +0.000 NA
ATOM     21  C   UNL     1       1.451   4.286  19.433  0.00  0.00    +0.000 A 
ENDBRANCH   1  16
TORSDOF 3
ENDMDL
MODEL 8
REMARK VINA RESULT:      -7.7      0.997      2.047
REMARK  Name = 
REMARK  3 active torsions:
REMARK  status: ('A' for Active; 'I' for Inactive)
REMARK    1  A    between atoms: C_5  and  C_6
REMARK    2  A    between atoms: C_6  and  C_7
REMARK    3  A    between atoms: C_6  and  C_14
REMARK                            x       y       z     vdW  Elec       q    Type
REMARK                         _______ _______ _______ _____ _____    ______ ____
ROOT
ATOM      1  C   UNL     1       3.588   5.467  18.916  0.00  0.00    +0.000 C 
ENDROOT
BRANCH   1   6
ATOM      2 CL   UNL     1       7.436   5.079  14.243  0.00  0.00    +0.000 Cl
ATOM      3  C   UNL     1       6.357   5.181  15.578  0.00  0.00    +0.000 A 
ATOM      4  C   UNL     1       5.226   4.370  15.619  0.00  0.00    +0.000 A 
ATOM      5  C   UNL     1       4.341   4.460  16.700  0.00  0.00    +0.000 A 
ATOM      6  C   UNL     1       4.584   5.359  17.752  0.00  0.00    +0.000 A 
ATOM      7  C   UNL     1       5.739   6.161  17.693  0.00  0.00    +0.000 A 
ATOM      8  C   UNL     1       6.616   6.077  16.610  0.00  0.00    +0.000 A 
ENDBRANCH   1   6
BRANCH   1   9
ATOM      9  C   UNL     1       2.855   6.823  18.901  0.00  0.00    +0.000 A 
ATOM     10  C   UNL     1       2.831   7.631  17.748  0.00  0.00    +0.000 A 
ATOM     11  C   UNL     1       2.110   8.827  17.728  0.00  0.00    +0.000 A 
ATOM     12  C   UNL     1       1.421   9.235  18.864  0.00  0.00    +0.000 A 
ATOM     13 CL   UNL     1       0.508  10.694  18.830  0.00  0.00    +0.000 Cl
ATOM     14  C   UNL     1       1.458   8.468  20.027  0.00  0.00    +0.000 A 
ATOM     15  C   UNL     1       2.178   7.268  20.047  0.00  0.00    +0.000 A 
ENDBRANCH   1   9
BRANCH   1  16
ATOM     16  C   UNL     1       2.639   4.289  19.081  0.00  0.00    +0.000 A 
ATOM     17  C   UNL     1       2.755   3.301  20.041  0.00  0.00    +0.000 A 
ATOM     18  N   UNL     1       1.958   2.213  20.109  0.00  0.00    +0.000 NA
ATOM     19  C   UNL     1       0.989   2.138  19.187  0.00  0.00    +0.000 A 
ATOM     20  N   UNL     1       0.732   3.054  18.244  0.00  0.00    +0.000 NA
ATOM     21  C   UNL     1       1.563   4.117  18.223  0.00  0.00    +0.000 A 
ENDBRANCH   1  16
TORSDOF 3
ENDMDL
MODEL 9
REMARK VINA RESULT:      -7.7      0.984      1.760
REMARK  Name = 
REMARK  3 active torsions:
REMARK  status: ('A' for Active; 'I' for Inactive)
REMARK    1  A    between atoms: C_5  and  C_6
REMARK    2  A    between atoms: C_6  and  C_7
REMARK    3  A    between atoms: C_6  and  C_14
REMARK                            x       y       z     vdW  Elec       q    Type
REMARK                         _______ _______ _______ _____ _____    ______ ____
ROOT
ATOM      1  C   UNL     1       3.568   5.496  18.877  0.00  0.00    +0.000 C 
ENDROOT
BRANCH   1   6
ATOM      2 CL   UNL     1       7.466   5.069  14.249  0.00  0.00    +0.000 Cl
ATOM      3  C   UNL     1       6.349   5.199  15.551  0.00  0.00    +0.000 A 
ATOM      4  C   UNL     1       6.571   6.125  16.566  0.00  0.00    +0.000 A 
ATOM      5  C   UNL     1       5.668   6.223  17.631  0.00  0.00    +0.000 A 
ATOM      6  C   UNL     1       4.532   5.397  17.686  0.00  0.00    +0.000 A 
ATOM      7  C   UNL     1       4.324   4.475  16.644  0.00  0.00    +0.000 A 
ATOM      8  C   UNL     1       5.230   4.372  15.586  0.00  0.00    +0.000 A 
ENDBRANCH   1   6
BRANCH   1   9
ATOM      9  C   UNL     1       2.830   6.849  18.889  0.00  0.00    +0.000 A 
ATOM     10  C   UNL     1       2.782   7.668  17.744  0.00  0.00    +0.000 A 
ATOM     11  C   UNL     1       2.056   8.862  17.749  0.00  0.00    +0.000 A 
ATOM     12  C   UNL     1       1.387   9.257  18.901  0.00  0.00    +0.000 A 
ATOM     13 CL   UNL     1       0.469  10.713  18.898  0.00  0.00    +0.000 Cl
ATOM     14  C   UNL     1       1.449   8.479  20.056  0.00  0.00    +0.000 A 
ATOM     15  C   UNL     1       2.173   7.281  20.051  0.00  0.00    +0.000 A 
ENDBRANCH   1   9
BRANCH   1  16
ATOM     16  C   UNL     1       2.629   4.314  19.064  0.00  0.00    +0.000 A 
ATOM     17  C   UNL     1       2.750   3.346  20.042  0.00  0.00    +0.000 A 
ATOM     18  N   UNL     1       1.962   2.253  20.130  0.00  0.00    +0.000 NA
ATOM     19  C   UNL     1       0.995   2.153  19.208  0.00  0.00    +0.000 A 
ATOM     20  N   UNL     1       0.733   3.048  18.247  0.00  0.00    +0.000 NA
ATOM     21  C   UNL     1       1.555   4.117  18.208  0.00  0.00    +0.000 A 
ENDBRANCH   1  16
TORSDOF 3
ENDMDL
