MODEL 1
REMARK VINA RESULT:      -7.4      0.000      0.000
REMARK  Name = 
REMARK  6 active torsions:
REMARK  status: ('A' for Active; 'I' for Inactive)
REMARK    1  A    between atoms: C_1  and  C_2
REMARK    2  A    between atoms: C_6  and  C_7
REMARK    3  A    between atoms: C_7  and  S_8
REMARK    4  A    between atoms: S_8  and  C_9
REMARK    5  A    between atoms: CA_14  and  C_15
REMARK    6  A    between atoms: C_15  and  OXT_17
REMARK                            x       y       z     vdW  Elec       q    Type
REMARK                         _______ _______ _______ _____ _____    ______ ____
ROOT
ATOM      1  C   UNL     1       4.829   3.675  18.234  0.00  0.00    +0.000 A 
ATOM      2  N   UNL     1       5.301   4.156  19.392  0.00  0.00    +0.000 NA
ATOM      3  C   UNL     1       6.229   5.146  19.305  0.00  0.00    +0.000 A 
ATOM      4  C   UNL     1       6.704   5.673  18.127  0.00  0.00    +0.000 A 
ATOM      5 CL   UNL     1       7.877   6.923  18.177  0.00  0.00    +0.000 Cl
ATOM      6  CA  UNL     1       6.158   5.106  16.994  0.00  0.00    +0.000 A 
ATOM      7  N   UNL     1       5.219   4.111  17.022  0.00  0.00    +0.000 NA
ENDROOT
BRANCH   6   8
ATOM      8  C   UNL     1       6.537   5.534  15.605  0.00  0.00    +0.000 C 
ATOM      9  O   UNL     1       7.590   5.306  15.042  0.00  0.00    +0.000 OA
BRANCH   8  10
ATOM     10  OXT UNL     1       5.530   6.231  15.020  0.00  0.00    +0.000 OA
ATOM     11  HXT UNL     1       5.670   6.309  14.048  0.00  0.00    +0.000 HD
ENDBRANCH   8  10
ENDBRANCH   6   8
BRANCH   1  12
ATOM     12  S   UNL     1       3.612   2.384  18.212  0.00  0.00    +0.000 S 
BRANCH  12  13
ATOM     13  C   UNL     1       2.062   3.286  17.876  0.00  0.00    +0.000 C 
BRANCH  13  19
ATOM     14  C   UNL     1       2.622   8.310  17.896  0.00  0.00    +0.000 C 
ATOM     15  C   UNL     1       2.317   7.043  18.640  0.00  0.00    +0.000 A 
ATOM     16  C   UNL     1       2.032   7.060  20.009  0.00  0.00    +0.000 A 
ATOM     17  C   UNL     1       1.758   5.871  20.685  0.00  0.00    +0.000 A 
ATOM     18  C   UNL     1       1.760   4.655  19.998  0.00  0.00    +0.000 A 
ATOM     19  C   UNL     1       2.037   4.609  18.621  0.00  0.00    +0.000 A 
ATOM     20  C   UNL     1       2.320   5.815  17.954  0.00  0.00    +0.000 A 
ENDBRANCH  13  19
ENDBRANCH  12  13
ENDBRANCH   1  12
TORSDOF 5
ENDMDL
MODEL 2
REMARK VINA RESULT:      -7.1      3.711      6.425
REMARK  Name = 
REMARK  6 active torsions:
REMARK  status: ('A' for Active; 'I' for Inactive)
REMARK    1  A    between atoms: C_1  and  C_2
REMARK    2  A    between atoms: C_6  and  C_7
REMARK    3  A    between atoms: C_7  and  S_8
REMARK    4  A    between atoms: S_8  and  C_9
REMARK    5  A    between atoms: CA_14  and  C_15
REMARK    6  A    between atoms: C_15  and  OXT_17
REMARK                            x       y       z     vdW  Elec       q    Type
REMARK                         _______ _______ _______ _____ _____    ______ ____
ROOT
ATOM      1  C   UNL     1       4.578   5.461  17.538  0.00  0.00    +0.000 A 
ATOM      2  N   UNL     1       3.495   6.188  17.844  0.00  0.00    +0.000 NA
ATOM      3  C   UNL     1       2.526   5.563  18.563  0.00  0.00    +0.000 A 
ATOM      4  C   UNL     1       2.585   4.256  18.987  0.00  0.00    +0.000 A 
ATOM      5 CL   UNL     1       1.282   3.604  19.889  0.00  0.00    +0.000 Cl
ATOM      6  CA  UNL     1       3.738   3.595  18.617  0.00  0.00    +0.000 A 
ATOM      7  N   UNL     1       4.748   4.176  17.898  0.00  0.00    +0.000 NA
ENDROOT
BRANCH   6   8
ATOM      8  C   UNL     1       4.007   2.161  18.977  0.00  0.00    +0.000 C 
ATOM      9  O   UNL     1       3.444   1.185  18.522  0.00  0.00    +0.000 OA
BRANCH   8  10
ATOM     10  OXT UNL     1       4.993   2.071  19.906  0.00  0.00    +0.000 OA
ATOM     11  HXT UNL     1       5.106   2.921  20.389  0.00  0.00    +0.000 HD
ENDBRANCH   8  10
ENDBRANCH   6   8
BRANCH   1  12
ATOM     12  S   UNL     1       5.914   6.164  16.606  0.00  0.00    +0.000 S 
BRANCH  12  13
ATOM     13  C   UNL     1       6.871   4.698  16.091  0.00  0.00    +0.000 C 
BRANCH  13  19
ATOM     14  C   UNL     1       5.319   2.578  11.771  0.00  0.00    +0.000 C 
ATOM     15  C   UNL     1       6.194   3.570  12.481  0.00  0.00    +0.000 A 
ATOM     16  C   UNL     1       7.079   4.389  11.771  0.00  0.00    +0.000 A 
ATOM     17  C   UNL     1       7.889   5.300  12.448  0.00  0.00    +0.000 A 
ATOM     18  C   UNL     1       7.819   5.406  13.840  0.00  0.00    +0.000 A 
ATOM     19  C   UNL     1       6.933   4.600  14.576  0.00  0.00    +0.000 A 
ATOM     20  C   UNL     1       6.129   3.680  13.881  0.00  0.00    +0.000 A 
ENDBRANCH  13  19
ENDBRANCH  12  13
ENDBRANCH   1  12
TORSDOF 5
ENDMDL
MODEL 3
REMARK VINA RESULT:      -7.1      3.755      6.392
REMARK  Name = 
REMARK  6 active torsions:
REMARK  status: ('A' for Active; 'I' for Inactive)
REMARK    1  A    between atoms: C_1  and  C_2
REMARK    2  A    between atoms: C_6  and  C_7
REMARK    3  A    between atoms: C_7  and  S_8
REMARK    4  A    between atoms: S_8  and  C_9
REMARK    5  A    between atoms: CA_14  and  C_15
REMARK    6  A    between atoms: C_15  and  OXT_17
REMARK                            x       y       z     vdW  Elec       q    Type
REMARK                         _______ _______ _______ _____ _____    ______ ____
ROOT
ATOM      1  C   UNL     1       4.077   5.335  17.754  0.00  0.00    +0.000 A 
ATOM      2  N   UNL     1       3.604   6.136  18.719  0.00  0.00    +0.000 NA
ATOM      3  C   UNL     1       2.852   5.545  19.684  0.00  0.00    +0.000 A 
ATOM      4  C   UNL     1       2.551   4.204  19.731  0.00  0.00    +0.000 A 
ATOM      5 CL   UNL     1       1.588   3.602  21.017  0.00  0.00    +0.000 Cl
ATOM      6  CA  UNL     1       3.082   3.470  18.691  0.00  0.00    +0.000 A 
ATOM      7  N   UNL     1       3.849   4.011  17.695  0.00  0.00    +0.000 NA
ENDROOT
BRANCH   6   8
ATOM      8  C   UNL     1       2.875   1.988  18.551  0.00  0.00    +0.000 C 
ATOM      9  O   UNL     1       3.730   1.128  18.646  0.00  0.00    +0.000 OA
BRANCH   8  10
ATOM     10  OXT UNL     1       1.573   1.701  18.298  0.00  0.00    +0.000 OA
ATOM     11  HXT UNL     1       1.485   1.115  17.512  0.00  0.00    +0.000 HD
ENDBRANCH   8  10
ENDBRANCH   6   8
BRANCH   1  12
ATOM     12  S   UNL     1       5.075   5.985  16.438  0.00  0.00    +0.000 S 
BRANCH  12  13
ATOM     13  C   UNL     1       6.256   4.633  16.112  0.00  0.00    +0.000 C 
BRANCH  13  19
ATOM     14  C   UNL     1       5.373   2.467  11.630  0.00  0.00    +0.000 C 
ATOM     15  C   UNL     1       6.132   3.467  12.453  0.00  0.00    +0.000 A 
ATOM     16  C   UNL     1       7.117   4.277  11.878  0.00  0.00    +0.000 A 
ATOM     17  C   UNL     1       7.817   5.195  12.660  0.00  0.00    +0.000 A 
ATOM     18  C   UNL     1       7.536   5.316  14.023  0.00  0.00    +0.000 A 
ATOM     19  C   UNL     1       6.547   4.519  14.626  0.00  0.00    +0.000 A 
ATOM     20  C   UNL     1       5.856   3.591  13.826  0.00  0.00    +0.000 A 
ENDBRANCH  13  19
ENDBRANCH  12  13
ENDBRANCH   1  12
TORSDOF 5
ENDMDL
MODEL 4
REMARK VINA RESULT:      -6.9      3.563      5.339
REMARK  Name = 
REMARK  6 active torsions:
REMARK  status: ('A' for Active; 'I' for Inactive)
REMARK    1  A    between atoms: C_1  and  C_2
REMARK    2  A    between atoms: C_6  and  C_7
REMARK    3  A    between atoms: C_7  and  S_8
REMARK    4  A    between atoms: S_8  and  C_9
REMARK    5  A    between atoms: CA_14  and  C_15
REMARK    6  A    between atoms: C_15  and  OXT_17
REMARK                            x       y       z     vdW  Elec       q    Type
REMARK                         _______ _______ _______ _____ _____    ______ ____
ROOT
ATOM      1  C   UNL     1       2.856   5.659  18.834  0.00  0.00    +0.000 A 
ATOM      2  N   UNL     1       2.040   5.942  19.858  0.00  0.00    +0.000 NA
ATOM      3  C   UNL     1       1.787   4.931  20.730  0.00  0.00    +0.000 A 
ATOM      4  C   UNL     1       2.303   3.661  20.629  0.00  0.00    +0.000 A 
ATOM      5 CL   UNL     1       1.892   2.488  21.811  0.00  0.00    +0.000 Cl
ATOM      6  CA  UNL     1       3.127   3.473  19.539  0.00  0.00    +0.000 A 
ATOM      7  N   UNL     1       3.421   4.455  18.632  0.00  0.00    +0.000 NA
ENDROOT
BRANCH   6   8
ATOM      8  C   UNL     1       3.797   2.161  19.241  0.00  0.00    +0.000 C 
ATOM      9  O   UNL     1       3.370   1.280  18.520  0.00  0.00    +0.000 OA
BRANCH   8  10
ATOM     10  OXT UNL     1       4.985   2.064  19.891  0.00  0.00    +0.000 OA
ATOM     11  HXT UNL     1       5.350   2.954  20.099  0.00  0.00    +0.000 HD
ENDBRANCH   8  10
ENDBRANCH   6   8
BRANCH   1  12
ATOM     12  S   UNL     1       3.268   6.894  17.628  0.00  0.00    +0.000 S 
BRANCH  12  13
ATOM     13  C   UNL     1       4.694   6.159  16.759  0.00  0.00    +0.000 C 
BRANCH  13  19
ATOM     14  C   UNL     1       8.431   9.367  17.901  0.00  0.00    +0.000 C 
ATOM     15  C   UNL     1       7.807   8.009  18.042  0.00  0.00    +0.000 A 
ATOM     16  C   UNL     1       8.410   7.015  18.821  0.00  0.00    +0.000 A 
ATOM     17  C   UNL     1       7.819   5.757  18.936  0.00  0.00    +0.000 A 
ATOM     18  C   UNL     1       6.618   5.482  18.277  0.00  0.00    +0.000 A 
ATOM     19  C   UNL     1       5.988   6.464  17.493  0.00  0.00    +0.000 A 
ATOM     20  C   UNL     1       6.600   7.725  17.380  0.00  0.00    +0.000 A 
ENDBRANCH  13  19
ENDBRANCH  12  13
ENDBRANCH   1  12
TORSDOF 5
ENDMDL
MODEL 5
REMARK VINA RESULT:      -6.8      3.858      6.693
REMARK  Name = 
REMARK  6 active torsions:
REMARK  status: ('A' for Active; 'I' for Inactive)
REMARK    1  A    between atoms: C_1  and  C_2
REMARK    2  A    between atoms: C_6  and  C_7
REMARK    3  A    between atoms: C_7  and  S_8
REMARK    4  A    between atoms: S_8  and  C_9
REMARK    5  A    between atoms: CA_14  and  C_15
REMARK    6  A    between atoms: C_15  and  OXT_17
REMARK                            x       y       z     vdW  Elec       q    Type
REMARK                         _______ _______ _______ _____ _____    ______ ____
ROOT
ATOM      1  C   UNL     1       3.969   5.042  17.365  0.00  0.00    +0.000 A 
ATOM      2  N   UNL     1       3.511   3.872  16.899  0.00  0.00    +0.000 NA
ATOM      3  C   UNL     1       2.538   3.268  17.630  0.00  0.00    +0.000 A 
ATOM      4  C   UNL     1       2.005   3.770  18.794  0.00  0.00    +0.000 A 
ATOM      5 CL   UNL     1       0.777   2.890  19.606  0.00  0.00    +0.000 Cl
ATOM      6  CA  UNL     1       2.547   4.975  19.188  0.00  0.00    +0.000 A 
ATOM      7  N   UNL     1       3.525   5.631  18.490  0.00  0.00    +0.000 NA
ENDROOT
BRANCH   6   8
ATOM      8  C   UNL     1       2.109   5.699  20.429  0.00  0.00    +0.000 C 
ATOM      9  O   UNL     1       1.606   6.804  20.481  0.00  0.00    +0.000 OA
BRANCH   8  10
ATOM     10  OXT UNL     1       2.344   4.949  21.537  0.00  0.00    +0.000 OA
ATOM     11  HXT UNL     1       3.294   4.700  21.602  0.00  0.00    +0.000 HD
ENDBRANCH   8  10
ENDBRANCH   6   8
BRANCH   1  12
ATOM     12  S   UNL     1       5.237   5.933  16.501  0.00  0.00    +0.000 S 
BRANCH  12  13
ATOM     13  C   UNL     1       6.454   4.633  16.103  0.00  0.00    +0.000 C 
BRANCH  13  19
ATOM     14  C   UNL     1       5.255   2.571  11.646  0.00  0.00    +0.000 C 
ATOM     15  C   UNL     1       6.094   3.528  12.441  0.00  0.00    +0.000 A 
ATOM     16  C   UNL     1       7.077   4.310  11.825  0.00  0.00    +0.000 A 
ATOM     17  C   UNL     1       7.852   5.189  12.581  0.00  0.00    +0.000 A 
ATOM     18  C   UNL     1       7.648   5.299  13.959  0.00  0.00    +0.000 A 
ATOM     19  C   UNL     1       6.662   4.531  14.602  0.00  0.00    +0.000 A 
ATOM     20  C   UNL     1       5.895   3.642  13.828  0.00  0.00    +0.000 A 
ENDBRANCH  13  19
ENDBRANCH  12  13
ENDBRANCH   1  12
TORSDOF 5
ENDMDL
MODEL 6
REMARK VINA RESULT:      -6.8      3.728      5.571
REMARK  Name = 
REMARK  6 active torsions:
REMARK  status: ('A' for Active; 'I' for Inactive)
REMARK    1  A    between atoms: C_1  and  C_2
REMARK    2  A    between atoms: C_6  and  C_7
REMARK    3  A    between atoms: C_7  and  S_8
REMARK    4  A    between atoms: S_8  and  C_9
REMARK    5  A    between atoms: CA_14  and  C_15
REMARK    6  A    between atoms: C_15  and  OXT_17
REMARK                            x       y       z     vdW  Elec       q    Type
REMARK                         _______ _______ _______ _____ _____    ______ ____
ROOT
ATOM      1  C   UNL     1       3.668   3.658  17.363  0.00  0.00    +0.000 A 
ATOM      2  N   UNL     1       2.398   3.966  17.071  0.00  0.00    +0.000 NA
ATOM      3  C   UNL     1       1.482   3.762  18.054  0.00  0.00    +0.000 A 
ATOM      4  C   UNL     1       1.771   3.268  19.304  0.00  0.00    +0.000 A 
ATOM      5 CL   UNL     1       0.506   3.065  20.443  0.00  0.00    +0.000 Cl
ATOM      6  CA  UNL     1       3.106   2.979  19.502  0.00  0.00    +0.000 A 
ATOM      7  N   UNL     1       4.071   3.169  18.550  0.00  0.00    +0.000 NA
ENDROOT
BRANCH   6   8
ATOM      8  C   UNL     1       3.638   2.431  20.795  0.00  0.00    +0.000 C 
ATOM      9  O   UNL     1       3.076   2.449  21.873  0.00  0.00    +0.000 OA
BRANCH   8  10
ATOM     10  OXT UNL     1       4.870   1.886  20.621  0.00  0.00    +0.000 OA
ATOM     11  HXT UNL     1       5.537   2.324  21.198  0.00  0.00    +0.000 HD
ENDBRANCH   8  10
ENDBRANCH   6   8
BRANCH   1  12
ATOM     12  S   UNL     1       4.959   3.883  16.166  0.00  0.00    +0.000 S 
BRANCH  12  13
ATOM     13  C   UNL     1       5.184   5.693  16.139  0.00  0.00    +0.000 C 
BRANCH  13  19
ATOM     14  C   UNL     1       8.304   9.230  17.961  0.00  0.00    +0.000 C 
ATOM     15  C   UNL     1       7.786   7.821  18.000  0.00  0.00    +0.000 A 
ATOM     16  C   UNL     1       8.298   6.889  18.909  0.00  0.00    +0.000 A 
ATOM     17  C   UNL     1       7.810   5.583  18.926  0.00  0.00    +0.000 A 
ATOM     18  C   UNL     1       6.801   5.198  18.039  0.00  0.00    +0.000 A 
ATOM     19  C   UNL     1       6.264   6.116  17.120  0.00  0.00    +0.000 A 
ATOM     20  C   UNL     1       6.773   7.427  17.108  0.00  0.00    +0.000 A 
ENDBRANCH  13  19
ENDBRANCH  12  13
ENDBRANCH   1  12
TORSDOF 5
ENDMDL
MODEL 7
REMARK VINA RESULT:      -6.8      1.831      2.345
REMARK  Name = 
REMARK  6 active torsions:
REMARK  status: ('A' for Active; 'I' for Inactive)
REMARK    1  A    between atoms: C_1  and  C_2
REMARK    2  A    between atoms: C_6  and  C_7
REMARK    3  A    between atoms: C_7  and  S_8
REMARK    4  A    between atoms: S_8  and  C_9
REMARK    5  A    between atoms: CA_14  and  C_15
REMARK    6  A    between atoms: C_15  and  OXT_17
REMARK                            x       y       z     vdW  Elec       q    Type
REMARK                         _______ _______ _______ _____ _____    ______ ____
ROOT
ATOM      1  C   UNL     1       4.665   3.582  18.719  0.00  0.00    +0.000 A 
ATOM      2  N   UNL     1       4.529   3.340  17.409  0.00  0.00    +0.000 NA
ATOM      3  C   UNL     1       5.425   3.943  16.584  0.00  0.00    +0.000 A 
ATOM      4  C   UNL     1       6.441   4.770  17.001  0.00  0.00    +0.000 A 
ATOM      5 CL   UNL     1       7.497   5.459  15.839  0.00  0.00    +0.000 Cl
ATOM      6  CA  UNL     1       6.491   4.956  18.367  0.00  0.00    +0.000 A 
ATOM      7  N   UNL     1       5.619   4.372  19.245  0.00  0.00    +0.000 NA
ENDROOT
BRANCH   6   8
ATOM      8  C   UNL     1       7.523   5.821  19.034  0.00  0.00    +0.000 C 
ATOM      9  O   UNL     1       8.041   6.818  18.568  0.00  0.00    +0.000 OA
BRANCH   8  10
ATOM     10  OXT UNL     1       7.827   5.349  20.271  0.00  0.00    +0.000 OA
ATOM     11  HXT UNL     1       7.012   5.180  20.796  0.00  0.00    +0.000 HD
ENDBRANCH   8  10
ENDBRANCH   6   8
BRANCH   1  12
ATOM     12  S   UNL     1       3.560   2.851  19.900  0.00  0.00    +0.000 S 
BRANCH  12  13
ATOM     13  C   UNL     1       1.938   3.539  19.425  0.00  0.00    +0.000 C 
BRANCH  13  19
ATOM     14  C   UNL     1       2.762   8.173  17.578  0.00  0.00    +0.000 C 
ATOM     15  C   UNL     1       2.328   7.295  18.716  0.00  0.00    +0.000 A 
ATOM     16  C   UNL     1       1.929   7.844  19.939  0.00  0.00    +0.000 A 
ATOM     17  C   UNL     1       1.535   7.013  20.988  0.00  0.00    +0.000 A 
ATOM     18  C   UNL     1       1.531   5.625  20.821  0.00  0.00    +0.000 A 
ATOM     19  C   UNL     1       1.920   5.048  19.601  0.00  0.00    +0.000 A 
ATOM     20  C   UNL     1       2.324   5.898  18.555  0.00  0.00    +0.000 A 
ENDBRANCH  13  19
ENDBRANCH  12  13
ENDBRANCH   1  12
TORSDOF 5
ENDMDL
MODEL 8
REMARK VINA RESULT:      -6.8      4.054      6.711
REMARK  Name = 
REMARK  6 active torsions:
REMARK  status: ('A' for Active; 'I' for Inactive)
REMARK    1  A    between atoms: C_1  and  C_2
REMARK    2  A    between atoms: C_6  and  C_7
REMARK    3  A    between atoms: C_7  and  S_8
REMARK    4  A    between atoms: S_8  and  C_9
REMARK    5  A    between atoms: CA_14  and  C_15
REMARK    6  A    between atoms: C_15  and  OXT_17
REMARK                            x       y       z     vdW  Elec       q    Type
REMARK                         _______ _______ _______ _____ _____    ______ ____
ROOT
ATOM      1  C   UNL     1       4.547   3.784  17.784  0.00  0.00    +0.000 A 
ATOM      2  N   UNL     1       3.423   3.857  17.058  0.00  0.00    +0.000 NA
ATOM      3  C   UNL     1       2.279   3.449  17.668  0.00  0.00    +0.000 A 
ATOM      4  C   UNL     1       2.204   2.973  18.956  0.00  0.00    +0.000 A 
ATOM      5 CL   UNL     1       0.684   2.494  19.590  0.00  0.00    +0.000 Cl
ATOM      6  CA  UNL     1       3.416   2.934  19.614  0.00  0.00    +0.000 A 
ATOM      7  N   UNL     1       4.597   3.337  19.052  0.00  0.00    +0.000 NA
ENDROOT
BRANCH   6   8
ATOM      8  C   UNL     1       3.560   2.450  21.029  0.00  0.00    +0.000 C 
ATOM      9  O   UNL     1       2.772   2.630  21.937  0.00  0.00    +0.000 OA
BRANCH   8  10
ATOM     10  OXT UNL     1       4.716   1.756  21.189  0.00  0.00    +0.000 OA
ATOM     11  HXT UNL     1       5.438   2.339  21.516  0.00  0.00    +0.000 HD
ENDBRANCH   8  10
ENDBRANCH   6   8
BRANCH   1  12
ATOM     12  S   UNL     1       6.106   4.290  17.103  0.00  0.00    +0.000 S 
BRANCH  12  13
ATOM     13  C   UNL     1       5.618   5.424  15.759  0.00  0.00    +0.000 C 
BRANCH  13  19
ATOM     14  C   UNL     1       5.250   2.461  11.680  0.00  0.00    +0.000 C 
ATOM     15  C   UNL     1       6.001   3.506  12.452  0.00  0.00    +0.000 A 
ATOM     16  C   UNL     1       7.207   4.030  11.974  0.00  0.00    +0.000 A 
ATOM     17  C   UNL     1       7.894   4.995  12.709  0.00  0.00    +0.000 A 
ATOM     18  C   UNL     1       7.380   5.451  13.926  0.00  0.00    +0.000 A 
ATOM     19  C   UNL     1       6.167   4.947  14.426  0.00  0.00    +0.000 A 
ATOM     20  C   UNL     1       5.489   3.967  13.678  0.00  0.00    +0.000 A 
ENDBRANCH  13  19
ENDBRANCH  12  13
ENDBRANCH   1  12
TORSDOF 5
ENDMDL
MODEL 9
REMARK VINA RESULT:      -6.7      1.892      2.748
REMARK  Name = 
REMARK  6 active torsions:
REMARK  status: ('A' for Active; 'I' for Inactive)
REMARK    1  A    between atoms: C_1  and  C_2
REMARK    2  A    between atoms: C_6  and  C_7
REMARK    3  A    between atoms: C_7  and  S_8
REMARK    4  A    between atoms: S_8  and  C_9
REMARK    5  A    between atoms: CA_14  and  C_15
REMARK    6  A    between atoms: C_15  and  OXT_17
REMARK                            x       y       z     vdW  Elec       q    Type
REMARK                         _______ _______ _______ _____ _____    ______ ____
ROOT
ATOM      1  C   UNL     1       4.663   3.794  18.809  0.00  0.00    +0.000 A 
ATOM      2  N   UNL     1       4.468   3.429  17.534  0.00  0.00    +0.000 NA
ATOM      3  C   UNL     1       5.372   3.885  16.628  0.00  0.00    +0.000 A 
ATOM      4  C   UNL     1       6.451   4.682  16.930  0.00  0.00    +0.000 A 
ATOM      5 CL   UNL     1       7.509   5.178  15.674  0.00  0.00    +0.000 Cl
ATOM      6  CA  UNL     1       6.558   5.003  18.267  0.00  0.00    +0.000 A 
ATOM      7  N   UNL     1       5.681   4.569  19.223  0.00  0.00    +0.000 NA
ENDROOT
BRANCH   6   8
ATOM      8  C   UNL     1       7.663   5.862  18.813  0.00  0.00    +0.000 C 
ATOM      9  O   UNL     1       7.995   6.958  18.404  0.00  0.00    +0.000 OA
BRANCH   8  10
ATOM     10  OXT UNL     1       8.277   5.256  19.861  0.00  0.00    +0.000 OA
ATOM     11  HXT UNL     1       8.003   4.313  19.937  0.00  0.00    +0.000 HD
ENDBRANCH   8  10
ENDBRANCH   6   8
BRANCH   1  12
ATOM     12  S   UNL     1       3.554   3.261  20.088  0.00  0.00    +0.000 S 
BRANCH  12  13
ATOM     13  C   UNL     1       1.944   3.921  19.537  0.00  0.00    +0.000 C 
BRANCH  13  19
ATOM     14  C   UNL     1       1.364   8.508  21.583  0.00  0.00    +0.000 C 
ATOM     15  C   UNL     1       1.707   7.660  20.393  0.00  0.00    +0.000 A 
ATOM     16  C   UNL     1       2.053   8.240  19.168  0.00  0.00    +0.000 A 
ATOM     17  C   UNL     1       2.362   7.435  18.072  0.00  0.00    +0.000 A 
ATOM     18  C   UNL     1       2.335   6.043  18.191  0.00  0.00    +0.000 A 
ATOM     19  C   UNL     1       1.997   5.434  19.412  0.00  0.00    +0.000 A 
ATOM     20  C   UNL     1       1.679   6.258  20.506  0.00  0.00    +0.000 A 
ENDBRANCH  13  19
ENDBRANCH  12  13
ENDBRANCH   1  12
TORSDOF 5
ENDMDL
