MODEL 1
REMARK VINA RESULT:      -7.5      0.000      0.000
REMARK  Name = 
REMARK  5 active torsions:
REMARK  status: ('A' for Active; 'I' for Inactive)
REMARK    1  A    between atoms: C_1  and  O_2
REMARK    2  A    between atoms: O_2  and  C_3
REMARK    3  A    between atoms: N_14  and  C_15
REMARK    4  A    between atoms: C_20  and  C_22
REMARK    5  A    between atoms: N_24  and  C_25
REMARK                            x       y       z     vdW  Elec       q    Type
REMARK                         _______ _______ _______ _____ _____    ______ ____
ROOT
ATOM      1  C   UNL     1       2.568   6.969  19.340  0.00  0.00    +0.000 A 
ATOM      2  C   UNL     1       2.535   7.371  18.005  0.00  0.00    +0.000 A 
ATOM      3  C   UNL     1       1.824   8.520  17.605  0.00  0.00    +0.000 A 
ATOM      4  C   UNL     1       1.172   9.264  18.594  0.00  0.00    +0.000 A 
ATOM      5  N   UNL     1       0.473  10.465  18.532  0.00  0.00    +0.000 N 
ATOM      6  C   UNL     1       0.118  10.860  19.798  0.00  0.00    +0.000 A 
ATOM      7  C   UNL     1       0.384   9.794  20.642  0.00  0.00    +0.000 A 
ATOM      8  C   UNL     1       1.152   8.854  19.929  0.00  0.00    +0.000 A 
ATOM      9  C   UNL     1       1.852   7.693  20.296  0.00  0.00    +0.000 A 
ATOM     10  C   UNL     1      -0.007   9.814  22.077  0.00  0.00    +0.000 C 
ATOM     11  C   UNL     1      -1.023  10.952  22.393  0.00  0.00    +0.000 C 
ATOM     12  N   UNL     1      -1.513  11.749  21.231  0.00  0.00    +0.000 NA
ATOM     13  C   UNL     1      -2.562  12.661  21.643  0.00  0.00    +0.000 C 
ATOM     14  C   UNL     1      -0.416  12.203  20.323  0.00  0.00    +0.000 C 
ATOM     15  C   UNL     1       0.781  12.808  21.115  0.00  0.00    +0.000 C 
ATOM     16  C   UNL     1       0.461  14.215  21.556  0.00  0.00    +0.000 C 
ATOM     17  N   UNL     1       0.555  15.019  20.372  0.00  0.00    +0.000 N 
ATOM     18  C   UNL     1       1.856  15.461  20.095  0.00  0.00    +0.000 C 
ATOM     19  O   UNL     1       2.798  15.139  20.828  0.00  0.00    +0.000 OA
ATOM     20  C   UNL     1      -0.502  14.739  19.393  0.00  0.00    +0.000 C 
ATOM     21  C   UNL     1      -0.799  13.211  19.171  0.00  0.00    +0.000 C 
ATOM     22  H   UNL     1       0.321  10.982  17.676  0.00  0.00    +0.000 HD
ENDROOT
BRANCH  18  23
ATOM     23  C   UNL     1       2.134  16.329  18.961  0.00  0.00    +0.000 A 
ATOM     24  C   UNL     1       1.300  17.376  18.612  0.00  0.00    +0.000 A 
ATOM     25  N   UNL     1       1.660  17.718  17.348  0.00  0.00    +0.000 N 
ATOM     26  C   UNL     1       0.940  18.630  16.497  0.00  0.00    +0.000 C 
ATOM     27  C   UNL     1       2.734  16.949  17.001  0.00  0.00    +0.000 A 
ATOM     28  N   UNL     1       3.079  16.128  17.972  0.00  0.00    +0.000 NA
ENDBRANCH  18  23
BRANCH   1  30
ATOM     29  C   UNL     1       4.444   5.503  19.201  0.00  0.00    +0.000 C 
ATOM     30  O   UNL     1       3.253   5.905  19.859  0.00  0.00    +0.000 OA
ENDBRANCH   1  30
TORSDOF 2
ENDMDL
MODEL 2
REMARK VINA RESULT:      -7.5      2.078      2.583
REMARK  Name = 
REMARK  5 active torsions:
REMARK  status: ('A' for Active; 'I' for Inactive)
REMARK    1  A    between atoms: C_1  and  O_2
REMARK    2  A    between atoms: O_2  and  C_3
REMARK    3  A    between atoms: N_14  and  C_15
REMARK    4  A    between atoms: C_20  and  C_22
REMARK    5  A    between atoms: N_24  and  C_25
REMARK                            x       y       z     vdW  Elec       q    Type
REMARK                         _______ _______ _______ _____ _____    ______ ____
ROOT
ATOM      1  C   UNL     1       2.698   6.334  19.203  0.00  0.00    +0.000 A 
ATOM      2  C   UNL     1       3.313   6.724  18.013  0.00  0.00    +0.000 A 
ATOM      3  C   UNL     1       3.109   8.009  17.472  0.00  0.00    +0.000 A 
ATOM      4  C   UNL     1       2.291   8.896  18.181  0.00  0.00    +0.000 A 
ATOM      5  N   UNL     1       1.971  10.231  17.957  0.00  0.00    +0.000 N 
ATOM      6  C   UNL     1       1.222  10.708  19.004  0.00  0.00    +0.000 A 
ATOM      7  C   UNL     1       0.868   9.615  19.777  0.00  0.00    +0.000 A 
ATOM      8  C   UNL     1       1.629   8.511  19.349  0.00  0.00    +0.000 A 
ATOM      9  C   UNL     1       1.833   7.217  19.854  0.00  0.00    +0.000 A 
ATOM     10  C   UNL     1      -0.068   9.739  20.927  0.00  0.00    +0.000 C 
ATOM     11  C   UNL     1      -0.839  11.092  20.915  0.00  0.00    +0.000 C 
ATOM     12  N   UNL     1      -0.610  11.977  19.736  0.00  0.00    +0.000 NA
ATOM     13  C   UNL     1      -1.501  13.121  19.774  0.00  0.00    +0.000 C 
ATOM     14  C   UNL     1       0.835  12.144  19.395  0.00  0.00    +0.000 C 
ATOM     15  C   UNL     1       1.699  12.443  20.656  0.00  0.00    +0.000 C 
ATOM     16  C   UNL     1       1.550  13.889  21.063  0.00  0.00    +0.000 C 
ATOM     17  N   UNL     1       2.304  14.638  20.101  0.00  0.00    +0.000 N 
ATOM     18  C   UNL     1       3.666  14.747  20.416  0.00  0.00    +0.000 C 
ATOM     19  O   UNL     1       4.121  14.209  21.432  0.00  0.00    +0.000 OA
ATOM     20  C   UNL     1       1.715  14.618  18.757  0.00  0.00    +0.000 C 
ATOM     21  C   UNL     1       1.202  13.208  18.289  0.00  0.00    +0.000 C 
ATOM     22  H   UNL     1       2.308  10.764  17.166  0.00  0.00    +0.000 HD
ENDROOT
BRANCH  18  23
ATOM     23  C   UNL     1       4.576  15.514  19.579  0.00  0.00    +0.000 A 
ATOM     24  C   UNL     1       5.605  14.918  18.870  0.00  0.00    +0.000 A 
ATOM     25  N   UNL     1       6.432  15.934  18.515  0.00  0.00    +0.000 N 
ATOM     26  C   UNL     1       7.738  15.775  17.930  0.00  0.00    +0.000 C 
ATOM     27  C   UNL     1       5.858  17.102  18.929  0.00  0.00    +0.000 A 
ATOM     28  N   UNL     1       4.708  16.890  19.537  0.00  0.00    +0.000 NA
ENDBRANCH  18  23
BRANCH   1  30
ATOM     29  C   UNL     1       1.872   4.784  20.816  0.00  0.00    +0.000 C 
ATOM     30  O   UNL     1       2.848   5.138  19.849  0.00  0.00    +0.000 OA
ENDBRANCH   1  30
TORSDOF 2
ENDMDL
MODEL 3
REMARK VINA RESULT:      -6.9      4.050      5.713
REMARK  Name = 
REMARK  5 active torsions:
REMARK  status: ('A' for Active; 'I' for Inactive)
REMARK    1  A    between atoms: C_1  and  O_2
REMARK    2  A    between atoms: O_2  and  C_3
REMARK    3  A    between atoms: N_14  and  C_15
REMARK    4  A    between atoms: C_20  and  C_22
REMARK    5  A    between atoms: N_24  and  C_25
REMARK                            x       y       z     vdW  Elec       q    Type
REMARK                         _______ _______ _______ _____ _____    ______ ____
ROOT
ATOM      1  C   UNL     1       0.393   9.620  20.181  0.00  0.00    +0.000 A 
ATOM      2  C   UNL     1       1.002   9.173  19.008  0.00  0.00    +0.000 A 
ATOM      3  C   UNL     1       1.725  10.054  18.179  0.00  0.00    +0.000 A 
ATOM      4  C   UNL     1       1.839  11.389  18.583  0.00  0.00    +0.000 A 
ATOM      5  N   UNL     1       2.541  12.459  18.038  0.00  0.00    +0.000 N 
ATOM      6  C   UNL     1       2.440  13.549  18.867  0.00  0.00    +0.000 A 
ATOM      7  C   UNL     1       1.481  13.244  19.818  0.00  0.00    +0.000 A 
ATOM      8  C   UNL     1       1.197  11.868  19.728  0.00  0.00    +0.000 A 
ATOM      9  C   UNL     1       0.465  10.972  20.524  0.00  0.00    +0.000 A 
ATOM     10  C   UNL     1       1.007  14.252  20.804  0.00  0.00    +0.000 C 
ATOM     11  C   UNL     1       1.424  15.700  20.411  0.00  0.00    +0.000 C 
ATOM     12  N   UNL     1       2.114  15.860  19.098  0.00  0.00    +0.000 NA
ATOM     13  C   UNL     1       2.303  17.264  18.788  0.00  0.00    +0.000 C 
ATOM     14  C   UNL     1       3.218  14.874  18.888  0.00  0.00    +0.000 C 
ATOM     15  C   UNL     1       4.139  14.758  20.139  0.00  0.00    +0.000 C 
ATOM     16  C   UNL     1       5.092  15.927  20.200  0.00  0.00    +0.000 C 
ATOM     17  N   UNL     1       6.072  15.676  19.183  0.00  0.00    +0.000 N 
ATOM     18  C   UNL     1       7.131  14.862  19.613  0.00  0.00    +0.000 C 
ATOM     19  O   UNL     1       7.151  14.415  20.765  0.00  0.00    +0.000 OA
ATOM     20  C   UNL     1       5.535  15.767  17.821  0.00  0.00    +0.000 C 
ATOM     21  C   UNL     1       4.138  15.074  17.622  0.00  0.00    +0.000 C 
ATOM     22  H   UNL     1       3.090  12.396  17.191  0.00  0.00    +0.000 HD
ENDROOT
BRANCH  18  23
ATOM     23  C   UNL     1       8.243  14.542  18.732  0.00  0.00    +0.000 A 
ATOM     24  C   UNL     1       8.619  13.237  18.464  0.00  0.00    +0.000 A 
ATOM     25  N   UNL     1       9.862  13.325  17.925  0.00  0.00    +0.000 N 
ATOM     26  C   UNL     1      10.737  12.210  17.668  0.00  0.00    +0.000 C 
ATOM     27  C   UNL     1      10.168  14.650  17.801  0.00  0.00    +0.000 A 
ATOM     28  N   UNL     1       9.190  15.418  18.236  0.00  0.00    +0.000 NA
ENDBRANCH  18  23
BRANCH   1  30
ATOM     29  C   UNL     1      -0.204   9.224  22.455  0.00  0.00    +0.000 C 
ATOM     30  O   UNL     1      -0.296   8.861  21.087  0.00  0.00    +0.000 OA
ENDBRANCH   1  30
TORSDOF 2
ENDMDL
MODEL 4
REMARK VINA RESULT:      -6.7      3.702      5.287
REMARK  Name = 
REMARK  5 active torsions:
REMARK  status: ('A' for Active; 'I' for Inactive)
REMARK    1  A    between atoms: C_1  and  O_2
REMARK    2  A    between atoms: O_2  and  C_3
REMARK    3  A    between atoms: N_14  and  C_15
REMARK    4  A    between atoms: C_20  and  C_22
REMARK    5  A    between atoms: N_24  and  C_25
REMARK                            x       y       z     vdW  Elec       q    Type
REMARK                         _______ _______ _______ _____ _____    ______ ____
ROOT
ATOM      1  C   UNL     1      -3.341  10.414  15.101  0.00  0.00    +0.000 A 
ATOM      2  C   UNL     1      -4.407  11.100  15.684  0.00  0.00    +0.000 A 
ATOM      3  C   UNL     1      -4.365  11.506  17.032  0.00  0.00    +0.000 A 
ATOM      4  C   UNL     1      -3.206  11.225  17.766  0.00  0.00    +0.000 A 
ATOM      5  N   UNL     1      -2.833  11.562  19.063  0.00  0.00    +0.000 N 
ATOM      6  C   UNL     1      -1.541  11.160  19.291  0.00  0.00    +0.000 A 
ATOM      7  C   UNL     1      -1.173  10.360  18.223  0.00  0.00    +0.000 A 
ATOM      8  C   UNL     1      -2.147  10.499  17.216  0.00  0.00    +0.000 A 
ATOM      9  C   UNL     1      -2.225  10.087  15.876  0.00  0.00    +0.000 A 
ATOM     10  C   UNL     1       0.124   9.631  18.200  0.00  0.00    +0.000 C 
ATOM     11  C   UNL     1       0.798   9.586  19.603  0.00  0.00    +0.000 C 
ATOM     12  N   UNL     1       0.017  10.165  20.735  0.00  0.00    +0.000 NA
ATOM     13  C   UNL     1       0.686   9.917  21.997  0.00  0.00    +0.000 C 
ATOM     14  C   UNL     1      -0.563  11.507  20.426  0.00  0.00    +0.000 C 
ATOM     15  C   UNL     1       0.480  12.451  19.758  0.00  0.00    +0.000 C 
ATOM     16  C   UNL     1       1.420  13.012  20.797  0.00  0.00    +0.000 C 
ATOM     17  N   UNL     1       0.660  13.998  21.510  0.00  0.00    +0.000 N 
ATOM     18  C   UNL     1       0.667  15.261  20.901  0.00  0.00    +0.000 C 
ATOM     19  O   UNL     1       1.272  15.443  19.838  0.00  0.00    +0.000 OA
ATOM     20  C   UNL     1      -0.417  13.424  22.325  0.00  0.00    +0.000 C 
ATOM     21  C   UNL     1      -1.244  12.293  21.612  0.00  0.00    +0.000 C 
ATOM     22  H   UNL     1      -3.423  12.084  19.698  0.00  0.00    +0.000 HD
ENDROOT
BRANCH  18  23
ATOM     23  C   UNL     1      -0.010  16.396  21.509  0.00  0.00    +0.000 A 
ATOM     24  C   UNL     1       0.476  17.023  22.643  0.00  0.00    +0.000 A 
ATOM     25  N   UNL     1      -0.559  17.766  23.114  0.00  0.00    +0.000 N 
ATOM     26  C   UNL     1      -0.585  18.440  24.387  0.00  0.00    +0.000 C 
ATOM     27  C   UNL     1      -1.593  17.644  22.231  0.00  0.00    +0.000 A 
ATOM     28  N   UNL     1      -1.280  16.859  21.220  0.00  0.00    +0.000 NA
ENDBRANCH  18  23
BRANCH   1  30
ATOM     29  C   UNL     1      -4.447   9.781  13.086  0.00  0.00    +0.000 C 
ATOM     30  O   UNL     1      -3.242  10.006  13.800  0.00  0.00    +0.000 OA
ENDBRANCH   1  30
TORSDOF 2
ENDMDL
MODEL 5
REMARK VINA RESULT:      -6.5      2.752      5.704
REMARK  Name = 
REMARK  5 active torsions:
REMARK  status: ('A' for Active; 'I' for Inactive)
REMARK    1  A    between atoms: C_1  and  O_2
REMARK    2  A    between atoms: O_2  and  C_3
REMARK    3  A    between atoms: N_14  and  C_15
REMARK    4  A    between atoms: C_20  and  C_22
REMARK    5  A    between atoms: N_24  and  C_25
REMARK                            x       y       z     vdW  Elec       q    Type
REMARK                         _______ _______ _______ _____ _____    ______ ____
ROOT
ATOM      1  C   UNL     1       2.044   7.008  18.897  0.00  0.00    +0.000 A 
ATOM      2  C   UNL     1       1.734   6.627  20.203  0.00  0.00    +0.000 A 
ATOM      3  C   UNL     1       1.347   7.576  21.169  0.00  0.00    +0.000 A 
ATOM      4  C   UNL     1       1.255   8.915  20.773  0.00  0.00    +0.000 A 
ATOM      5  N   UNL     1       0.830  10.050  21.455  0.00  0.00    +0.000 N 
ATOM      6  C   UNL     1       0.806  11.123  20.598  0.00  0.00    +0.000 A 
ATOM      7  C   UNL     1       1.439  10.723  19.434  0.00  0.00    +0.000 A 
ATOM      8  C   UNL     1       1.606   9.326  19.485  0.00  0.00    +0.000 A 
ATOM      9  C   UNL     1       2.009   8.361  18.547  0.00  0.00    +0.000 A 
ATOM     10  C   UNL     1       1.722  11.677  18.329  0.00  0.00    +0.000 C 
ATOM     11  C   UNL     1       1.565  13.160  18.777  0.00  0.00    +0.000 C 
ATOM     12  N   UNL     1       1.272  13.390  20.222  0.00  0.00    +0.000 NA
ATOM     13  C   UNL     1       1.308  14.807  20.531  0.00  0.00    +0.000 C 
ATOM     14  C   UNL     1       0.178  12.518  20.748  0.00  0.00    +0.000 C 
ATOM     15  C   UNL     1      -1.052  12.490  19.794  0.00  0.00    +0.000 C 
ATOM     16  C   UNL     1      -1.872  13.747  19.958  0.00  0.00    +0.000 C 
ATOM     17  N   UNL     1      -2.561  13.596  21.207  0.00  0.00    +0.000 N 
ATOM     18  C   UNL     1      -3.768  12.888  21.100  0.00  0.00    +0.000 C 
ATOM     19  O   UNL     1      -4.140  12.443  20.009  0.00  0.00    +0.000 OA
ATOM     20  C   UNL     1      -1.670  13.637  22.372  0.00  0.00    +0.000 C 
ATOM     21  C   UNL     1      -0.343  12.811  22.209  0.00  0.00    +0.000 C 
ATOM     22  H   UNL     1       0.526  10.043  22.420  0.00  0.00    +0.000 HD
ENDROOT
BRANCH  18  23
ATOM     23  C   UNL     1      -4.626  12.681  22.256  0.00  0.00    +0.000 A 
ATOM     24  C   UNL     1      -5.940  13.114  22.286  0.00  0.00    +0.000 A 
ATOM     25  N   UNL     1      -6.301  13.079  23.594  0.00  0.00    +0.000 N 
ATOM     26  C   UNL     1      -7.518  13.626  24.135  0.00  0.00    +0.000 C 
ATOM     27  C   UNL     1      -5.254  12.557  24.299  0.00  0.00    +0.000 A 
ATOM     28  N   UNL     1      -4.239  12.259  23.515  0.00  0.00    +0.000 NA
ENDBRANCH  18  23
BRANCH   1  30
ATOM     29  C   UNL     1       2.145   4.795  18.016  0.00  0.00    +0.000 C 
ATOM     30  O   UNL     1       2.388   6.184  17.862  0.00  0.00    +0.000 OA
ENDBRANCH   1  30
TORSDOF 2
ENDMDL
MODEL 6
REMARK VINA RESULT:      -6.4      2.828      5.416
REMARK  Name = 
REMARK  5 active torsions:
REMARK  status: ('A' for Active; 'I' for Inactive)
REMARK    1  A    between atoms: C_1  and  O_2
REMARK    2  A    between atoms: O_2  and  C_3
REMARK    3  A    between atoms: N_14  and  C_15
REMARK    4  A    between atoms: C_20  and  C_22
REMARK    5  A    between atoms: N_24  and  C_25
REMARK                            x       y       z     vdW  Elec       q    Type
REMARK                         _______ _______ _______ _____ _____    ______ ____
ROOT
ATOM      1  C   UNL     1       2.109   5.997  19.002  0.00  0.00    +0.000 A 
ATOM      2  C   UNL     1       1.695   5.811  20.321  0.00  0.00    +0.000 A 
ATOM      3  C   UNL     1       1.341   6.903  21.137  0.00  0.00    +0.000 A 
ATOM      4  C   UNL     1       1.389   8.184  20.575  0.00  0.00    +0.000 A 
ATOM      5  N   UNL     1       1.029   9.427  21.084  0.00  0.00    +0.000 N 
ATOM      6  C   UNL     1       1.147  10.380  20.103  0.00  0.00    +0.000 A 
ATOM      7  C   UNL     1       1.807   9.786  19.041  0.00  0.00    +0.000 A 
ATOM      8  C   UNL     1       1.846   8.398  19.272  0.00  0.00    +0.000 A 
ATOM      9  C   UNL     1       2.213   7.292  18.489  0.00  0.00    +0.000 A 
ATOM     10  C   UNL     1       2.234  10.566  17.849  0.00  0.00    +0.000 C 
ATOM     11  C   UNL     1       2.184  12.101  18.102  0.00  0.00    +0.000 C 
ATOM     12  N   UNL     1       1.833  12.537  19.485  0.00  0.00    +0.000 NA
ATOM     13  C   UNL     1       1.976  13.973  19.621  0.00  0.00    +0.000 C 
ATOM     14  C   UNL     1       0.639  11.830  20.040  0.00  0.00    +0.000 C 
ATOM     15  C   UNL     1      -0.535  11.780  19.017  0.00  0.00    +0.000 C 
ATOM     16  C   UNL     1      -1.248  13.110  18.972  0.00  0.00    +0.000 C 
ATOM     17  N   UNL     1      -2.016  13.175  20.182  0.00  0.00    +0.000 N 
ATOM     18  C   UNL     1      -3.272  12.560  20.082  0.00  0.00    +0.000 C 
ATOM     19  O   UNL     1      -3.622  12.011  19.031  0.00  0.00    +0.000 OA
ATOM     20  C   UNL     1      -1.190  13.291  21.389  0.00  0.00    +0.000 C 
ATOM     21  C   UNL     1       0.065  12.347  21.417  0.00  0.00    +0.000 C 
ATOM     22  H   UNL     1       0.673   9.568  22.020  0.00  0.00    +0.000 HD
ENDROOT
BRANCH  18  23
ATOM     23  C   UNL     1      -4.209  12.571  21.195  0.00  0.00    +0.000 A 
ATOM     24  C   UNL     1      -5.517  12.998  21.054  0.00  0.00    +0.000 A 
ATOM     25  N   UNL     1      -5.966  13.209  22.318  0.00  0.00    +0.000 N 
ATOM     26  C   UNL     1      -7.211  13.844  22.662  0.00  0.00    +0.000 C 
ATOM     27  C   UNL     1      -4.974  12.832  23.178  0.00  0.00    +0.000 A 
ATOM     28  N   UNL     1      -3.911  12.395  22.534  0.00  0.00    +0.000 NA
ENDBRANCH  18  23
BRANCH   1  30
ATOM     29  C   UNL     1       1.675   3.826  18.117  0.00  0.00    +0.000 C 
ATOM     30  O   UNL     1       2.436   5.022  18.100  0.00  0.00    +0.000 OA
ENDBRANCH   1  30
TORSDOF 2
ENDMDL
MODEL 7
REMARK VINA RESULT:      -6.4      2.604      7.869
REMARK  Name = 
REMARK  5 active torsions:
REMARK  status: ('A' for Active; 'I' for Inactive)
REMARK    1  A    between atoms: C_1  and  O_2
REMARK    2  A    between atoms: O_2  and  C_3
REMARK    3  A    between atoms: N_14  and  C_15
REMARK    4  A    between atoms: C_20  and  C_22
REMARK    5  A    between atoms: N_24  and  C_25
REMARK                            x       y       z     vdW  Elec       q    Type
REMARK                         _______ _______ _______ _____ _____    ______ ____
ROOT
ATOM      1  C   UNL     1       5.357  16.621  19.785  0.00  0.00    +0.000 A 
ATOM      2  C   UNL     1       5.944  15.836  20.778  0.00  0.00    +0.000 A 
ATOM      3  C   UNL     1       5.252  14.756  21.361  0.00  0.00    +0.000 A 
ATOM      4  C   UNL     1       3.963  14.475  20.894  0.00  0.00    +0.000 A 
ATOM      5  N   UNL     1       3.076  13.448  21.202  0.00  0.00    +0.000 N 
ATOM      6  C   UNL     1       1.974  13.531  20.387  0.00  0.00    +0.000 A 
ATOM      7  C   UNL     1       2.051  14.744  19.726  0.00  0.00    +0.000 A 
ATOM      8  C   UNL     1       3.338  15.275  19.935  0.00  0.00    +0.000 A 
ATOM      9  C   UNL     1       4.044  16.358  19.386  0.00  0.00    +0.000 A 
ATOM     10  C   UNL     1       0.947  15.235  18.858  0.00  0.00    +0.000 C 
ATOM     11  C   UNL     1      -0.372  14.439  19.078  0.00  0.00    +0.000 C 
ATOM     12  N   UNL     1      -0.358  13.415  20.164  0.00  0.00    +0.000 NA
ATOM     13  C   UNL     1      -1.685  12.864  20.365  0.00  0.00    +0.000 C 
ATOM     14  C   UNL     1       0.842  12.525  20.119  0.00  0.00    +0.000 C 
ATOM     15  C   UNL     1       1.126  12.004  18.679  0.00  0.00    +0.000 C 
ATOM     16  C   UNL     1       0.183  10.876  18.334  0.00  0.00    +0.000 C 
ATOM     17  N   UNL     1       0.655   9.742  19.074  0.00  0.00    +0.000 N 
ATOM     18  C   UNL     1       1.665   9.024  18.417  0.00  0.00    +0.000 C 
ATOM     19  O   UNL     1       2.084   9.395  17.315  0.00  0.00    +0.000 OA
ATOM     20  C   UNL     1       0.479   9.878  20.524  0.00  0.00    +0.000 C 
ATOM     21  C   UNL     1       0.865  11.289  21.100  0.00  0.00    +0.000 C 
ATOM     22  H   UNL     1       3.270  12.725  21.881  0.00  0.00    +0.000 HD
ENDROOT
BRANCH  18  23
ATOM     23  C   UNL     1       2.230   7.815  18.994  0.00  0.00    +0.000 A 
ATOM     24  C   UNL     1       3.035   6.956  18.266  0.00  0.00    +0.000 A 
ATOM     25  N   UNL     1       3.072   5.803  18.983  0.00  0.00    +0.000 N 
ATOM     26  C   UNL     1       3.630   4.558  18.523  0.00  0.00    +0.000 C 
ATOM     27  C   UNL     1       2.379   6.012  20.141  0.00  0.00    +0.000 A 
ATOM     28  N   UNL     1       1.895   7.235  20.204  0.00  0.00    +0.000 NA
ENDBRANCH  18  23
BRANCH   1  30
ATOM     29  C   UNL     1       7.242  17.469  18.598  0.00  0.00    +0.000 C 
ATOM     30  O   UNL     1       5.935  17.662  19.114  0.00  0.00    +0.000 OA
ENDBRANCH   1  30
TORSDOF 2
ENDMDL
MODEL 8
REMARK VINA RESULT:      -6.3      3.631      8.360
REMARK  Name = 
REMARK  5 active torsions:
REMARK  status: ('A' for Active; 'I' for Inactive)
REMARK    1  A    between atoms: C_1  and  O_2
REMARK    2  A    between atoms: O_2  and  C_3
REMARK    3  A    between atoms: N_14  and  C_15
REMARK    4  A    between atoms: C_20  and  C_22
REMARK    5  A    between atoms: N_24  and  C_25
REMARK                            x       y       z     vdW  Elec       q    Type
REMARK                         _______ _______ _______ _____ _____    ______ ____
ROOT
ATOM      1  C   UNL     1      -5.740  11.799  19.185  0.00  0.00    +0.000 A 
ATOM      2  C   UNL     1      -5.825  10.809  18.207  0.00  0.00    +0.000 A 
ATOM      3  C   UNL     1      -4.668  10.268  17.612  0.00  0.00    +0.000 A 
ATOM      4  C   UNL     1      -3.424  10.734  18.055  0.00  0.00    +0.000 A 
ATOM      5  N   UNL     1      -2.128  10.347  17.732  0.00  0.00    +0.000 N 
ATOM      6  C   UNL     1      -1.233  11.022  18.524  0.00  0.00    +0.000 A 
ATOM      7  C   UNL     1      -1.945  12.010  19.184  0.00  0.00    +0.000 A 
ATOM      8  C   UNL     1      -3.317  11.758  18.999  0.00  0.00    +0.000 A 
ATOM      9  C   UNL     1      -4.488  12.294  19.559  0.00  0.00    +0.000 A 
ATOM     10  C   UNL     1      -1.269  13.031  20.029  0.00  0.00    +0.000 C 
ATOM     11  C   UNL     1       0.269  13.072  19.785  0.00  0.00    +0.000 C 
ATOM     12  N   UNL     1       0.794  12.189  18.702  0.00  0.00    +0.000 NA
ATOM     13  C   UNL     1       2.204  12.441  18.477  0.00  0.00    +0.000 C 
ATOM     14  C   UNL     1       0.267  10.792  18.773  0.00  0.00    +0.000 C 
ATOM     15  C   UNL     1       0.332  10.218  20.219  0.00  0.00    +0.000 C 
ATOM     16  C   UNL     1       1.740   9.785  20.548  0.00  0.00    +0.000 C 
ATOM     17  N   UNL     1       1.946   8.566  19.821  0.00  0.00    +0.000 N 
ATOM     18  C   UNL     1       1.494   7.424  20.500  0.00  0.00    +0.000 C 
ATOM     19  O   UNL     1       0.958   7.524  21.609  0.00  0.00    +0.000 OA
ATOM     20  C   UNL     1       1.998   8.757  18.367  0.00  0.00    +0.000 C 
ATOM     21  C   UNL     1       0.901   9.727  17.796  0.00  0.00    +0.000 C 
ATOM     22  H   UNL     1      -1.910   9.624  17.058  0.00  0.00    +0.000 HD
ENDROOT
BRANCH  18  23
ATOM     23  C   UNL     1       1.665   6.094  19.937  0.00  0.00    +0.000 A 
ATOM     24  C   UNL     1       1.138   4.965  20.539  0.00  0.00    +0.000 A 
ATOM     25  N   UNL     1       1.779   3.917  19.961  0.00  0.00    +0.000 N 
ATOM     26  C   UNL     1       1.701   2.549  20.405  0.00  0.00    +0.000 C 
ATOM     27  C   UNL     1       2.595   4.416  18.986  0.00  0.00    +0.000 A 
ATOM     28  N   UNL     1       2.515   5.728  18.910  0.00  0.00    +0.000 NA
ENDBRANCH  18  23
BRANCH   1  30
ATOM     29  C   UNL     1      -7.481  11.564  20.798  0.00  0.00    +0.000 C 
ATOM     30  O   UNL     1      -6.780  12.371  19.865  0.00  0.00    +0.000 OA
ENDBRANCH   1  30
TORSDOF 2
ENDMDL
MODEL 9
REMARK VINA RESULT:      -6.3      3.437      7.722
REMARK  Name = 
REMARK  5 active torsions:
REMARK  status: ('A' for Active; 'I' for Inactive)
REMARK    1  A    between atoms: C_1  and  O_2
REMARK    2  A    between atoms: O_2  and  C_3
REMARK    3  A    between atoms: N_14  and  C_15
REMARK    4  A    between atoms: C_20  and  C_22
REMARK    5  A    between atoms: N_24  and  C_25
REMARK                            x       y       z     vdW  Elec       q    Type
REMARK                         _______ _______ _______ _____ _____    ______ ____
ROOT
ATOM      1  C   UNL     1      -6.808  11.610  20.385  0.00  0.00    +0.000 A 
ATOM      2  C   UNL     1      -6.731  10.865  19.208  0.00  0.00    +0.000 A 
ATOM      3  C   UNL     1      -5.536  10.792  18.465  0.00  0.00    +0.000 A 
ATOM      4  C   UNL     1      -4.415  11.469  18.959  0.00  0.00    +0.000 A 
ATOM      5  N   UNL     1      -3.099  11.520  18.511  0.00  0.00    +0.000 N 
ATOM      6  C   UNL     1      -2.333  12.225  19.406  0.00  0.00    +0.000 A 
ATOM      7  C   UNL     1      -3.206  12.823  20.300  0.00  0.00    +0.000 A 
ATOM      8  C   UNL     1      -4.481  12.258  20.109  0.00  0.00    +0.000 A 
ATOM      9  C   UNL     1      -5.691  12.330  20.818  0.00  0.00    +0.000 A 
ATOM     10  C   UNL     1      -2.733  13.783  21.333  0.00  0.00    +0.000 C 
ATOM     11  C   UNL     1      -1.286  14.285  21.051  0.00  0.00    +0.000 C 
ATOM     12  N   UNL     1      -0.659  13.826  19.777  0.00  0.00    +0.000 NA
ATOM     13  C   UNL     1       0.614  14.488  19.566  0.00  0.00    +0.000 C 
ATOM     14  C   UNL     1      -0.808  12.358  19.543  0.00  0.00    +0.000 C 
ATOM     15  C   UNL     1      -0.464  11.528  20.815  0.00  0.00    +0.000 C 
ATOM     16  C   UNL     1       1.033  11.427  20.986  0.00  0.00    +0.000 C 
ATOM     17  N   UNL     1       1.470  10.491  19.992  0.00  0.00    +0.000 N 
ATOM     18  C   UNL     1       1.388   9.153  20.405  0.00  0.00    +0.000 C 
ATOM     19  O   UNL     1       0.951   8.867  21.525  0.00  0.00    +0.000 OA
ATOM     20  C   UNL     1       1.335  10.994  18.620  0.00  0.00    +0.000 C 
ATOM     21  C   UNL     1      -0.020  11.734  18.326  0.00  0.00    +0.000 C 
ATOM     22  H   UNL     1      -2.770  11.043  17.682  0.00  0.00    +0.000 HD
ENDROOT
BRANCH  18  23
ATOM     23  C   UNL     1       1.835   8.068  19.545  0.00  0.00    +0.000 A 
ATOM     24  C   UNL     1       2.236   6.844  20.050  0.00  0.00    +0.000 A 
ATOM     25  N   UNL     1       2.904   6.237  19.036  0.00  0.00    +0.000 N 
ATOM     26  C   UNL     1       3.670   5.024  19.155  0.00  0.00    +0.000 C 
ATOM     27  C   UNL     1       2.820   7.048  17.940  0.00  0.00    +0.000 A 
ATOM     28  N   UNL     1       2.139   8.146  18.198  0.00  0.00    +0.000 NA
ENDBRANCH  18  23
BRANCH   1  30
ATOM     29  C   UNL     1      -7.912  12.816  22.120  0.00  0.00    +0.000 C 
ATOM     30  O   UNL     1      -7.889  11.725  21.213  0.00  0.00    +0.000 OA
ENDBRANCH   1  30
TORSDOF 2
ENDMDL
