MODEL 1
REMARK VINA RESULT:      -8.1      0.000      0.000
REMARK  Name = 
REMARK  8 active torsions:
REMARK  status: ('A' for Active; 'I' for Inactive)
REMARK    1  A    between atoms: C_1  and  C_2
REMARK    2  A    between atoms: C_2  and  O_3
REMARK    3  A    between atoms: C_2  and  C_4
REMARK    4  A    between atoms: C_2  and  C_24
REMARK    5  A    between atoms: N_6  and  C_7
REMARK    6  A    between atoms: C_10  and  S_11
REMARK    7  A    between atoms: S_11  and  C_14
REMARK    8  A    between atoms: C_20  and  C_21
REMARK                            x       y       z     vdW  Elec       q    Type
REMARK                         _______ _______ _______ _____ _____    ______ ____
ROOT
ATOM      1  C   UNL     1       2.125   7.781  19.167  0.00  0.00    +0.000 A 
ATOM      2  C   UNL     1       3.092   7.648  18.171  0.00  0.00    +0.000 A 
ATOM      3  C   UNL     1       3.798   6.459  18.010  0.00  0.00    +0.000 A 
ATOM      4  C   UNL     1       3.568   5.382  18.872  0.00  0.00    +0.000 A 
ATOM      5  C   UNL     1       2.670   5.522  19.938  0.00  0.00    +0.000 A 
ATOM      6  C   UNL     1       1.960   6.735  20.084  0.00  0.00    +0.000 A 
ENDROOT
BRANCH   1   9
ATOM      7  C   UNL     1       1.373  10.043  18.446  0.00  0.00    +0.000 C 
ATOM      8  O   UNL     1       2.109  10.144  17.466  0.00  0.00    +0.000 OA
ATOM      9  N   UNL     1       1.293   8.920  19.267  0.00  0.00    +0.000 N 
ATOM     10  H   UNL     1       0.481   8.858  19.877  0.00  0.00    +0.000 HD
BRANCH   7  12
ATOM     11  C   UNL     1       0.318  11.344  20.317  0.00  0.00    +0.000 C 
ATOM     12  C   UNL     1       0.387  11.163  18.793  0.00  0.00    +0.000 C 
BRANCH  12  13
ATOM     13  C   UNL     1      -1.001  10.791  18.231  0.00  0.00    +0.000 C 
ATOM     14  F   UNL     1      -1.838  10.326  19.191  0.00  0.00    +0.000 F 
ATOM     15  F   UNL     1      -1.610  11.868  17.674  0.00  0.00    +0.000 F 
ATOM     16  F   UNL     1      -0.954   9.844  17.267  0.00  0.00    +0.000 F 
ENDBRANCH  12  13
BRANCH  12  17
ATOM     17  O   UNL     1       0.925  12.381  18.221  0.00  0.00    +0.000 OA
ATOM     18  H   UNL     1       1.836  12.483  18.555  0.00  0.00    +0.000 HD
ENDBRANCH  12  17
ENDBRANCH   7  12
ENDBRANCH   1   9
BRANCH   4  19
ATOM     19  S   UNL     1       4.310   3.824  18.422  0.00  0.00    +0.000 S 
ATOM     20  O   UNL     1       5.128   3.392  19.534  0.00  0.00    +0.000 OA
ATOM     21  O   UNL     1       3.227   2.967  17.968  0.00  0.00    +0.000 OA
BRANCH  19  22
ATOM     22  C   UNL     1       5.366   4.092  17.021  0.00  0.00    +0.000 A 
ATOM     23  C   UNL     1       4.844   3.975  15.732  0.00  0.00    +0.000 A 
ATOM     24  C   UNL     1       5.641   4.308  14.637  0.00  0.00    +0.000 A 
ATOM     25  C   UNL     1       6.947   4.763  14.831  0.00  0.00    +0.000 A 
ATOM     26  C   UNL     1       7.465   4.881  16.121  0.00  0.00    +0.000 A 
ATOM     27  C   UNL     1       6.675   4.548  17.222  0.00  0.00    +0.000 A 
ENDBRANCH  19  22
ENDBRANCH   4  19
BRANCH   5  28
ATOM     28  C   UNL     1       2.433   4.491  20.909  0.00  0.00    +0.000 C 
ATOM     29  N   UNL     1       2.172   3.675  21.688  0.00  0.00    +0.000 NA
ENDBRANCH   5  28
TORSDOF 7
ENDMDL
MODEL 2
REMARK VINA RESULT:      -7.9      0.724      1.249
REMARK  Name = 
REMARK  8 active torsions:
REMARK  status: ('A' for Active; 'I' for Inactive)
REMARK    1  A    between atoms: C_1  and  C_2
REMARK    2  A    between atoms: C_2  and  O_3
REMARK    3  A    between atoms: C_2  and  C_4
REMARK    4  A    between atoms: C_2  and  C_24
REMARK    5  A    between atoms: N_6  and  C_7
REMARK    6  A    between atoms: C_10  and  S_11
REMARK    7  A    between atoms: S_11  and  C_14
REMARK    8  A    between atoms: C_20  and  C_21
REMARK                            x       y       z     vdW  Elec       q    Type
REMARK                         _______ _______ _______ _____ _____    ______ ____
ROOT
ATOM      1  C   UNL     1       1.893   7.666  19.757  0.00  0.00    +0.000 A 
ATOM      2  C   UNL     1       2.830   7.620  18.724  0.00  0.00    +0.000 A 
ATOM      3  C   UNL     1       3.525   6.448  18.439  0.00  0.00    +0.000 A 
ATOM      4  C   UNL     1       3.318   5.300  19.210  0.00  0.00    +0.000 A 
ATOM      5  C   UNL     1       2.453   5.348  20.311  0.00  0.00    +0.000 A 
ATOM      6  C   UNL     1       1.753   6.545  20.585  0.00  0.00    +0.000 A 
ENDROOT
BRANCH   1   9
ATOM      7  C   UNL     1       0.706   9.725  19.011  0.00  0.00    +0.000 C 
ATOM      8  O   UNL     1       0.973   9.630  17.814  0.00  0.00    +0.000 OA
ATOM      9  N   UNL     1       1.070   8.794  19.982  0.00  0.00    +0.000 N 
ATOM     10  H   UNL     1       0.582   8.850  20.874  0.00  0.00    +0.000 HD
BRANCH   7  12
ATOM     11  C   UNL     1      -0.417  10.714  21.029  0.00  0.00    +0.000 C 
ATOM     12  C   UNL     1      -0.157  10.883  19.524  0.00  0.00    +0.000 C 
BRANCH  12  13
ATOM     13  C   UNL     1      -1.489  10.887  18.745  0.00  0.00    +0.000 C 
ATOM     14  F   UNL     1      -1.956   9.636  18.514  0.00  0.00    +0.000 F 
ATOM     15  F   UNL     1      -2.458  11.541  19.434  0.00  0.00    +0.000 F 
ATOM     16  F   UNL     1      -1.405  11.497  17.541  0.00  0.00    +0.000 F 
ENDBRANCH  12  13
BRANCH  12  17
ATOM     17  O   UNL     1       0.618  12.092  19.335  0.00  0.00    +0.000 OA
ATOM     18  H   UNL     1       1.560  11.845  19.375  0.00  0.00    +0.000 HD
ENDBRANCH  12  17
ENDBRANCH   7  12
ENDBRANCH   1   9
BRANCH   4  19
ATOM     19  S   UNL     1       4.039   3.788  18.604  0.00  0.00    +0.000 S 
ATOM     20  O   UNL     1       4.796   3.198  19.687  0.00  0.00    +0.000 OA
ATOM     21  O   UNL     1       2.957   3.025  18.004  0.00  0.00    +0.000 OA
BRANCH  19  22
ATOM     22  C   UNL     1       5.164   4.191  17.291  0.00  0.00    +0.000 A 
ATOM     23  C   UNL     1       6.477   4.552  17.596  0.00  0.00    +0.000 A 
ATOM     24  C   UNL     1       7.392   4.746  16.561  0.00  0.00    +0.000 A 
ATOM     25  C   UNL     1       6.998   4.569  15.232  0.00  0.00    +0.000 A 
ATOM     26  C   UNL     1       5.686   4.204  14.932  0.00  0.00    +0.000 A 
ATOM     27  C   UNL     1       4.763   4.011  15.961  0.00  0.00    +0.000 A 
ENDBRANCH  19  22
ENDBRANCH   4  19
BRANCH   5  28
ATOM     28  C   UNL     1       2.242   4.238  21.196  0.00  0.00    +0.000 C 
ATOM     29  N   UNL     1       2.140   3.324  21.901  0.00  0.00    +0.000 NA
ENDBRANCH   5  28
TORSDOF 7
ENDMDL
MODEL 3
REMARK VINA RESULT:      -7.8      1.448      1.905
REMARK  Name = 
REMARK  8 active torsions:
REMARK  status: ('A' for Active; 'I' for Inactive)
REMARK    1  A    between atoms: C_1  and  C_2
REMARK    2  A    between atoms: C_2  and  O_3
REMARK    3  A    between atoms: C_2  and  C_4
REMARK    4  A    between atoms: C_2  and  C_24
REMARK    5  A    between atoms: N_6  and  C_7
REMARK    6  A    between atoms: C_10  and  S_11
REMARK    7  A    between atoms: S_11  and  C_14
REMARK    8  A    between atoms: C_20  and  C_21
REMARK                            x       y       z     vdW  Elec       q    Type
REMARK                         _______ _______ _______ _____ _____    ______ ____
ROOT
ATOM      1  C   UNL     1       1.889   7.632  19.818  0.00  0.00    +0.000 A 
ATOM      2  C   UNL     1       2.835   7.602  18.794  0.00  0.00    +0.000 A 
ATOM      3  C   UNL     1       3.538   6.437  18.501  0.00  0.00    +0.000 A 
ATOM      4  C   UNL     1       3.329   5.279  19.257  0.00  0.00    +0.000 A 
ATOM      5  C   UNL     1       2.454   5.310  20.350  0.00  0.00    +0.000 A 
ATOM      6  C   UNL     1       1.746   6.500  20.631  0.00  0.00    +0.000 A 
ENDROOT
BRANCH   1   9
ATOM      7  C   UNL     1       0.604   9.628  19.065  0.00  0.00    +0.000 C 
ATOM      8  O   UNL     1       0.785   9.479  17.857  0.00  0.00    +0.000 OA
ATOM      9  N   UNL     1       1.059   8.753  20.049  0.00  0.00    +0.000 N 
ATOM     10  H   UNL     1       0.636   8.844  20.971  0.00  0.00    +0.000 HD
BRANCH   7  12
ATOM     11  C   UNL     1      -1.568  10.861  18.804  0.00  0.00    +0.000 C 
ATOM     12  C   UNL     1      -0.246  10.793  19.583  0.00  0.00    +0.000 C 
BRANCH  12  13
ATOM     13  C   UNL     1       0.551  12.102  19.408  0.00  0.00    +0.000 C 
ATOM     14  F   UNL     1       0.293  12.709  18.224  0.00  0.00    +0.000 F 
ATOM     15  F   UNL     1       0.241  12.999  20.379  0.00  0.00    +0.000 F 
ATOM     16  F   UNL     1       1.891  11.928  19.470  0.00  0.00    +0.000 F 
ENDBRANCH  12  13
BRANCH  12  17
ATOM     17  O   UNL     1      -0.556  10.495  20.967  0.00  0.00    +0.000 OA
ATOM     18  H   UNL     1      -1.098   9.684  20.977  0.00  0.00    +0.000 HD
ENDBRANCH  12  17
ENDBRANCH   7  12
ENDBRANCH   1   9
BRANCH   4  19
ATOM     19  S   UNL     1       4.062   3.776  18.638  0.00  0.00    +0.000 S 
ATOM     20  O   UNL     1       4.832   3.191  19.714  0.00  0.00    +0.000 OA
ATOM     21  O   UNL     1       2.984   3.005  18.043  0.00  0.00    +0.000 OA
BRANCH  19  22
ATOM     22  C   UNL     1       5.173   4.197  17.320  0.00  0.00    +0.000 A 
ATOM     23  C   UNL     1       6.498   4.523  17.613  0.00  0.00    +0.000 A 
ATOM     24  C   UNL     1       7.399   4.730  16.569  0.00  0.00    +0.000 A 
ATOM     25  C   UNL     1       6.981   4.601  15.243  0.00  0.00    +0.000 A 
ATOM     26  C   UNL     1       5.657   4.272  14.954  0.00  0.00    +0.000 A 
ATOM     27  C   UNL     1       4.747   4.066  15.992  0.00  0.00    +0.000 A 
ENDBRANCH  19  22
ENDBRANCH   4  19
BRANCH   5  28
ATOM     28  C   UNL     1       2.239   4.188  21.219  0.00  0.00    +0.000 C 
ATOM     29  N   UNL     1       2.137   3.276  21.927  0.00  0.00    +0.000 NA
ENDBRANCH   5  28
TORSDOF 7
ENDMDL
MODEL 4
REMARK VINA RESULT:      -7.8      1.422      1.668
REMARK  Name = 
REMARK  8 active torsions:
REMARK  status: ('A' for Active; 'I' for Inactive)
REMARK    1  A    between atoms: C_1  and  C_2
REMARK    2  A    between atoms: C_2  and  O_3
REMARK    3  A    between atoms: C_2  and  C_4
REMARK    4  A    between atoms: C_2  and  C_24
REMARK    5  A    between atoms: N_6  and  C_7
REMARK    6  A    between atoms: C_10  and  S_11
REMARK    7  A    between atoms: S_11  and  C_14
REMARK    8  A    between atoms: C_20  and  C_21
REMARK                            x       y       z     vdW  Elec       q    Type
REMARK                         _______ _______ _______ _____ _____    ______ ____
ROOT
ATOM      1  C   UNL     1       2.039   7.629  19.654  0.00  0.00    +0.000 A 
ATOM      2  C   UNL     1       2.980   7.527  18.630  0.00  0.00    +0.000 A 
ATOM      3  C   UNL     1       3.646   6.329  18.385  0.00  0.00    +0.000 A 
ATOM      4  C   UNL     1       3.403   5.211  19.188  0.00  0.00    +0.000 A 
ATOM      5  C   UNL     1       2.532   5.315  20.281  0.00  0.00    +0.000 A 
ATOM      6  C   UNL     1       1.862   6.537  20.513  0.00  0.00    +0.000 A 
ENDROOT
BRANCH   1   9
ATOM      7  C   UNL     1       0.715   9.565  18.813  0.00  0.00    +0.000 C 
ATOM      8  O   UNL     1       0.787   9.290  17.616  0.00  0.00    +0.000 OA
ATOM      9  N   UNL     1       1.245   8.785  19.839  0.00  0.00    +0.000 N 
ATOM     10  H   UNL     1       0.905   8.976  20.779  0.00  0.00    +0.000 HD
BRANCH   7  12
ATOM     11  C   UNL     1      -1.322  10.976  18.404  0.00  0.00    +0.000 C 
ATOM     12  C   UNL     1      -0.073  10.792  19.280  0.00  0.00    +0.000 C 
BRANCH  12  13
ATOM     13  C   UNL     1       0.840  12.032  19.182  0.00  0.00    +0.000 C 
ATOM     14  F   UNL     1       2.077  11.727  18.718  0.00  0.00    +0.000 F 
ATOM     15  F   UNL     1       0.325  12.955  18.332  0.00  0.00    +0.000 F 
ATOM     16  F   UNL     1       1.016  12.665  20.364  0.00  0.00    +0.000 F 
ENDBRANCH  12  13
BRANCH  12  17
ATOM     17  O   UNL     1      -0.511  10.513  20.633  0.00  0.00    +0.000 OA
ATOM     18  H   UNL     1      -1.030  11.280  20.937  0.00  0.00    +0.000 HD
ENDBRANCH  12  17
ENDBRANCH   7  12
ENDBRANCH   1   9
BRANCH   4  19
ATOM     19  S   UNL     1       4.087   3.662  18.632  0.00  0.00    +0.000 S 
ATOM     20  O   UNL     1       4.831   3.092  19.734  0.00  0.00    +0.000 OA
ATOM     21  O   UNL     1       2.986   2.906  18.059  0.00  0.00    +0.000 OA
BRANCH  19  22
ATOM     22  C   UNL     1       5.218   3.994  17.305  0.00  0.00    +0.000 A 
ATOM     23  C   UNL     1       4.761   3.969  15.987  0.00  0.00    +0.000 A 
ATOM     24  C   UNL     1       5.619   4.352  14.956  0.00  0.00    +0.000 A 
ATOM     25  C   UNL     1       6.921   4.768  15.244  0.00  0.00    +0.000 A 
ATOM     26  C   UNL     1       7.374   4.794  16.563  0.00  0.00    +0.000 A 
ATOM     27  C   UNL     1       6.523   4.410  17.600  0.00  0.00    +0.000 A 
ENDBRANCH  19  22
ENDBRANCH   4  19
BRANCH   5  28
ATOM     28  C   UNL     1       2.285   4.237  21.196  0.00  0.00    +0.000 C 
ATOM     29  N   UNL     1       2.090   3.322  21.880  0.00  0.00    +0.000 NA
ENDBRANCH   5  28
TORSDOF 7
ENDMDL
MODEL 5
REMARK VINA RESULT:      -7.8      2.311      2.697
REMARK  Name = 
REMARK  8 active torsions:
REMARK  status: ('A' for Active; 'I' for Inactive)
REMARK    1  A    between atoms: C_1  and  C_2
REMARK    2  A    between atoms: C_2  and  O_3
REMARK    3  A    between atoms: C_2  and  C_4
REMARK    4  A    between atoms: C_2  and  C_24
REMARK    5  A    between atoms: N_6  and  C_7
REMARK    6  A    between atoms: C_10  and  S_11
REMARK    7  A    between atoms: S_11  and  C_14
REMARK    8  A    between atoms: C_20  and  C_21
REMARK                            x       y       z     vdW  Elec       q    Type
REMARK                         _______ _______ _______ _____ _____    ______ ____
ROOT
ATOM      1  C   UNL     1       1.829   7.276  20.070  0.00  0.00    +0.000 A 
ATOM      2  C   UNL     1       2.781   7.336  19.053  0.00  0.00    +0.000 A 
ATOM      3  C   UNL     1       3.531   6.215  18.706  0.00  0.00    +0.000 A 
ATOM      4  C   UNL     1       3.361   5.011  19.398  0.00  0.00    +0.000 A 
ATOM      5  C   UNL     1       2.478   4.952  20.484  0.00  0.00    +0.000 A 
ATOM      6  C   UNL     1       1.723   6.098  20.821  0.00  0.00    +0.000 A 
ENDROOT
BRANCH   1   9
ATOM      7  C   UNL     1       1.114   9.257  21.399  0.00  0.00    +0.000 C 
ATOM      8  O   UNL     1       2.088   9.298  22.149  0.00  0.00    +0.000 OA
ATOM      9  N   UNL     1       0.955   8.351  20.352  0.00  0.00    +0.000 N 
ATOM     10  H   UNL     1       0.246   8.577  19.657  0.00  0.00    +0.000 HD
BRANCH   7  12
ATOM     11  C   UNL     1       0.611  11.715  21.528  0.00  0.00    +0.000 C 
ATOM     12  C   UNL     1       0.002  10.304  21.517  0.00  0.00    +0.000 C 
BRANCH  12  13
ATOM     13  C   UNL     1      -0.783  10.046  22.820  0.00  0.00    +0.000 C 
ATOM     14  F   UNL     1      -0.011  10.188  23.924  0.00  0.00    +0.000 F 
ATOM     15  F   UNL     1      -1.813  10.919  22.953  0.00  0.00    +0.000 F 
ATOM     16  F   UNL     1      -1.327   8.809  22.884  0.00  0.00    +0.000 F 
ENDBRANCH  12  13
BRANCH  12  17
ATOM     17  O   UNL     1      -0.814  10.178  20.326  0.00  0.00    +0.000 OA
ATOM     18  H   UNL     1      -1.426  10.936  20.309  0.00  0.00    +0.000 HD
ENDBRANCH  12  17
ENDBRANCH   7  12
ENDBRANCH   1   9
BRANCH   4  19
ATOM     19  S   UNL     1       4.155   3.572  18.708  0.00  0.00    +0.000 S 
ATOM     20  O   UNL     1       4.972   2.983  19.748  0.00  0.00    +0.000 OA
ATOM     21  O   UNL     1       3.105   2.773  18.100  0.00  0.00    +0.000 OA
BRANCH  19  22
ATOM     22  C   UNL     1       5.221   4.099  17.390  0.00  0.00    +0.000 A 
ATOM     23  C   UNL     1       6.533   4.480  17.676  0.00  0.00    +0.000 A 
ATOM     24  C   UNL     1       7.404   4.772  16.627  0.00  0.00    +0.000 A 
ATOM     25  C   UNL     1       6.970   4.673  15.303  0.00  0.00    +0.000 A 
ATOM     26  C   UNL     1       5.659   4.288  15.022  0.00  0.00    +0.000 A 
ATOM     27  C   UNL     1       4.779   3.997  16.065  0.00  0.00    +0.000 A 
ENDBRANCH  19  22
ENDBRANCH   4  19
BRANCH   5  28
ATOM     28  C   UNL     1       2.301   3.778  21.292  0.00  0.00    +0.000 C 
ATOM     29  N   UNL     1       2.088   2.843  21.942  0.00  0.00    +0.000 NA
ENDBRANCH   5  28
TORSDOF 7
ENDMDL
MODEL 6
REMARK VINA RESULT:      -7.7      4.056      8.300
REMARK  Name = 
REMARK  8 active torsions:
REMARK  status: ('A' for Active; 'I' for Inactive)
REMARK    1  A    between atoms: C_1  and  C_2
REMARK    2  A    between atoms: C_2  and  O_3
REMARK    3  A    between atoms: C_2  and  C_4
REMARK    4  A    between atoms: C_2  and  C_24
REMARK    5  A    between atoms: N_6  and  C_7
REMARK    6  A    between atoms: C_10  and  S_11
REMARK    7  A    between atoms: S_11  and  C_14
REMARK    8  A    between atoms: C_20  and  C_21
REMARK                            x       y       z     vdW  Elec       q    Type
REMARK                         _______ _______ _______ _____ _____    ______ ____
ROOT
ATOM      1  C   UNL     1       2.574   7.144  19.184  0.00  0.00    +0.000 A 
ATOM      2  C   UNL     1       2.613   8.032  18.108  0.00  0.00    +0.000 A 
ATOM      3  C   UNL     1       1.928   9.243  18.153  0.00  0.00    +0.000 A 
ATOM      4  C   UNL     1       1.159   9.576  19.273  0.00  0.00    +0.000 A 
ATOM      5  C   UNL     1       1.028   8.661  20.326  0.00  0.00    +0.000 A 
ATOM      6  C   UNL     1       1.733   7.438  20.265  0.00  0.00    +0.000 A 
ENDROOT
BRANCH   1   9
ATOM      7  C   UNL     1       2.985   4.728  18.739  0.00  0.00    +0.000 C 
ATOM      8  O   UNL     1       1.948   4.510  18.114  0.00  0.00    +0.000 OA
ATOM      9  N   UNL     1       3.368   5.975  19.229  0.00  0.00    +0.000 N 
ATOM     10  H   UNL     1       4.345   6.079  19.497  0.00  0.00    +0.000 HD
BRANCH   7  12
ATOM     11  C   UNL     1       4.202   2.821  17.648  0.00  0.00    +0.000 C 
ATOM     12  C   UNL     1       4.011   3.611  18.952  0.00  0.00    +0.000 C 
BRANCH  12  13
ATOM     13  C   UNL     1       3.503   2.682  20.075  0.00  0.00    +0.000 C 
ATOM     14  F   UNL     1       2.871   3.363  21.062  0.00  0.00    +0.000 F 
ATOM     15  F   UNL     1       2.612   1.777  19.597  0.00  0.00    +0.000 F 
ATOM     16  F   UNL     1       4.487   1.967  20.666  0.00  0.00    +0.000 F 
ENDBRANCH  12  13
BRANCH  12  17
ATOM     17  O   UNL     1       5.267   4.258  19.272  0.00  0.00    +0.000 OA
ATOM     18  H   UNL     1       5.633   4.613  18.441  0.00  0.00    +0.000 HD
ENDBRANCH  12  17
ENDBRANCH   7  12
ENDBRANCH   1   9
BRANCH   4  19
ATOM     19  S   UNL     1       0.549  11.249  19.356  0.00  0.00    +0.000 S 
ATOM     20  O   UNL     1       0.592  11.662  20.742  0.00  0.00    +0.000 OA
ATOM     21  O   UNL     1       1.300  12.011  18.371  0.00  0.00    +0.000 OA
BRANCH  19  22
ATOM     22  C   UNL     1      -1.143  11.256  18.821  0.00  0.00    +0.000 A 
ATOM     23  C   UNL     1      -1.585  10.284  17.922  0.00  0.00    +0.000 A 
ATOM     24  C   UNL     1      -2.940  10.215  17.601  0.00  0.00    +0.000 A 
ATOM     25  C   UNL     1      -3.847  11.103  18.183  0.00  0.00    +0.000 A 
ATOM     26  C   UNL     1      -3.402  12.071  19.083  0.00  0.00    +0.000 A 
ATOM     27  C   UNL     1      -2.047  12.150  19.409  0.00  0.00    +0.000 A 
ENDBRANCH  19  22
ENDBRANCH   4  19
BRANCH   5  28
ATOM     28  C   UNL     1       0.201   8.895  21.475  0.00  0.00    +0.000 C 
ATOM     29  N   UNL     1      -0.429   9.143  22.415  0.00  0.00    +0.000 NA
ENDBRANCH   5  28
TORSDOF 7
ENDMDL
MODEL 7
REMARK VINA RESULT:      -7.7      4.053      8.531
REMARK  Name = 
REMARK  8 active torsions:
REMARK  status: ('A' for Active; 'I' for Inactive)
REMARK    1  A    between atoms: C_1  and  C_2
REMARK    2  A    between atoms: C_2  and  O_3
REMARK    3  A    between atoms: C_2  and  C_4
REMARK    4  A    between atoms: C_2  and  C_24
REMARK    5  A    between atoms: N_6  and  C_7
REMARK    6  A    between atoms: C_10  and  S_11
REMARK    7  A    between atoms: S_11  and  C_14
REMARK    8  A    between atoms: C_20  and  C_21
REMARK                            x       y       z     vdW  Elec       q    Type
REMARK                         _______ _______ _______ _____ _____    ______ ____
ROOT
ATOM      1  C   UNL     1       2.056   7.145  19.553  0.00  0.00    +0.000 A 
ATOM      2  C   UNL     1       1.920   7.981  18.445  0.00  0.00    +0.000 A 
ATOM      3  C   UNL     1       1.473   9.292  18.587  0.00  0.00    +0.000 A 
ATOM      4  C   UNL     1       1.121   9.784  19.848  0.00  0.00    +0.000 A 
ATOM      5  C   UNL     1       1.159   8.935  20.962  0.00  0.00    +0.000 A 
ATOM      6  C   UNL     1       1.618   7.608  20.800  0.00  0.00    +0.000 A 
ENDROOT
BRANCH   1   9
ATOM      7  C   UNL     1       2.059   4.684  19.938  0.00  0.00    +0.000 C 
ATOM      8  O   UNL     1       0.923   4.601  20.404  0.00  0.00    +0.000 OA
ATOM      9  N   UNL     1       2.638   5.859  19.464  0.00  0.00    +0.000 N 
ATOM     10  H   UNL     1       3.465   5.756  18.878  0.00  0.00    +0.000 HD
BRANCH   7  12
ATOM     11  C   UNL     1       4.350   3.825  19.372  0.00  0.00    +0.000 C 
ATOM     12  C   UNL     1       2.917   3.428  19.760  0.00  0.00    +0.000 C 
BRANCH  12  13
ATOM     13  C   UNL     1       2.285   2.550  18.659  0.00  0.00    +0.000 C 
ATOM     14  F   UNL     1       1.293   1.759  19.137  0.00  0.00    +0.000 F 
ATOM     15  F   UNL     1       1.735   3.311  17.680  0.00  0.00    +0.000 F 
ATOM     16  F   UNL     1       3.173   1.732  18.048  0.00  0.00    +0.000 F 
ENDBRANCH  12  13
BRANCH  12  17
ATOM     17  O   UNL     1       2.968   2.774  21.052  0.00  0.00    +0.000 OA
ATOM     18  H   UNL     1       3.123   3.464  21.723  0.00  0.00    +0.000 HD
ENDBRANCH  12  17
ENDBRANCH   7  12
ENDBRANCH   1   9
BRANCH   4  19
ATOM     19  S   UNL     1       0.828  11.538  19.969  0.00  0.00    +0.000 S 
ATOM     20  O   UNL     1       1.431  11.998  21.202  0.00  0.00    +0.000 OA
ATOM     21  O   UNL     1       1.266  12.118  18.711  0.00  0.00    +0.000 OA
BRANCH  19  22
ATOM     22  C   UNL     1      -0.924  11.808  20.069  0.00  0.00    +0.000 A 
ATOM     23  C   UNL     1      -1.463  12.418  21.203  0.00  0.00    +0.000 A 
ATOM     24  C   UNL     1      -2.819  12.742  21.226  0.00  0.00    +0.000 A 
ATOM     25  C   UNL     1      -3.627  12.468  20.119  0.00  0.00    +0.000 A 
ATOM     26  C   UNL     1      -3.083  11.860  18.987  0.00  0.00    +0.000 A 
ATOM     27  C   UNL     1      -1.728  11.530  18.956  0.00  0.00    +0.000 A 
ENDBRANCH  19  22
ENDBRANCH   4  19
BRANCH   5  28
ATOM     28  C   UNL     1       0.744   9.340  22.275  0.00  0.00    +0.000 C 
ATOM     29  N   UNL     1       0.348   9.632  23.324  0.00  0.00    +0.000 NA
ENDBRANCH   5  28
TORSDOF 7
ENDMDL
MODEL 8
REMARK VINA RESULT:      -7.7      4.035      8.390
REMARK  Name = 
REMARK  8 active torsions:
REMARK  status: ('A' for Active; 'I' for Inactive)
REMARK    1  A    between atoms: C_1  and  C_2
REMARK    2  A    between atoms: C_2  and  O_3
REMARK    3  A    between atoms: C_2  and  C_4
REMARK    4  A    between atoms: C_2  and  C_24
REMARK    5  A    between atoms: N_6  and  C_7
REMARK    6  A    between atoms: C_10  and  S_11
REMARK    7  A    between atoms: S_11  and  C_14
REMARK    8  A    between atoms: C_20  and  C_21
REMARK                            x       y       z     vdW  Elec       q    Type
REMARK                         _______ _______ _______ _____ _____    ______ ____
ROOT
ATOM      1  C   UNL     1       2.501   7.218  19.166  0.00  0.00    +0.000 A 
ATOM      2  C   UNL     1       2.492   8.115  18.098  0.00  0.00    +0.000 A 
ATOM      3  C   UNL     1       1.828   9.335  18.191  0.00  0.00    +0.000 A 
ATOM      4  C   UNL     1       1.128   9.668  19.355  0.00  0.00    +0.000 A 
ATOM      5  C   UNL     1       1.043   8.745  20.405  0.00  0.00    +0.000 A 
ATOM      6  C   UNL     1       1.725   7.513  20.295  0.00  0.00    +0.000 A 
ENDROOT
BRANCH   1   9
ATOM      7  C   UNL     1       2.853   4.802  18.671  0.00  0.00    +0.000 C 
ATOM      8  O   UNL     1       1.783   4.606  18.097  0.00  0.00    +0.000 OA
ATOM      9  N   UNL     1       3.279   6.037  19.157  0.00  0.00    +0.000 N 
ATOM     10  H   UNL     1       4.269   6.124  19.376  0.00  0.00    +0.000 HD
BRANCH   7  12
ATOM     11  C   UNL     1       4.020   2.921  17.484  0.00  0.00    +0.000 C 
ATOM     12  C   UNL     1       3.872   3.668  18.819  0.00  0.00    +0.000 C 
BRANCH  12  13
ATOM     13  C   UNL     1       3.385   2.707  19.923  0.00  0.00    +0.000 C 
ATOM     14  F   UNL     1       4.406   2.039  20.513  0.00  0.00    +0.000 F 
ATOM     15  F   UNL     1       2.740   3.379  20.910  0.00  0.00    +0.000 F 
ATOM     16  F   UNL     1       2.517   1.771  19.476  0.00  0.00    +0.000 F 
ENDBRANCH  12  13
BRANCH  12  17
ATOM     17  O   UNL     1       5.144   4.291  19.126  0.00  0.00    +0.000 OA
ATOM     18  H   UNL     1       5.778   4.017  18.438  0.00  0.00    +0.000 HD
ENDBRANCH  12  17
ENDBRANCH   7  12
ENDBRANCH   1   9
BRANCH   4  19
ATOM     19  S   UNL     1       0.548  11.349  19.486  0.00  0.00    +0.000 S 
ATOM     20  O   UNL     1       0.786  11.789  20.844  0.00  0.00    +0.000 OA
ATOM     21  O   UNL     1       1.160  12.083  18.390  0.00  0.00    +0.000 OA
BRANCH  19  22
ATOM     22  C   UNL     1      -1.202  11.363  19.191  0.00  0.00    +0.000 A 
ATOM     23  C   UNL     1      -2.001  12.309  19.835  0.00  0.00    +0.000 A 
ATOM     24  C   UNL     1      -3.354  12.399  19.507  0.00  0.00    +0.000 A 
ATOM     25  C   UNL     1      -3.899  11.556  18.535  0.00  0.00    +0.000 A 
ATOM     26  C   UNL     1      -3.096  10.614  17.892  0.00  0.00    +0.000 A 
ATOM     27  C   UNL     1      -1.743  10.515  18.216  0.00  0.00    +0.000 A 
ENDBRANCH  19  22
ENDBRANCH   4  19
BRANCH   5  28
ATOM     28  C   UNL     1       0.283   8.980  21.600  0.00  0.00    +0.000 C 
ATOM     29  N   UNL     1      -0.357   9.227  22.534  0.00  0.00    +0.000 NA
ENDBRANCH   5  28
TORSDOF 7
ENDMDL
MODEL 9
REMARK VINA RESULT:      -7.7      4.231      8.342
REMARK  Name = 
REMARK  8 active torsions:
REMARK  status: ('A' for Active; 'I' for Inactive)
REMARK    1  A    between atoms: C_1  and  C_2
REMARK    2  A    between atoms: C_2  and  O_3
REMARK    3  A    between atoms: C_2  and  C_4
REMARK    4  A    between atoms: C_2  and  C_24
REMARK    5  A    between atoms: N_6  and  C_7
REMARK    6  A    between atoms: C_10  and  S_11
REMARK    7  A    between atoms: S_11  and  C_14
REMARK    8  A    between atoms: C_20  and  C_21
REMARK                            x       y       z     vdW  Elec       q    Type
REMARK                         _______ _______ _______ _____ _____    ______ ____
ROOT
ATOM      1  C   UNL     1       2.361   6.808  19.543  0.00  0.00    +0.000 A 
ATOM      2  C   UNL     1       2.469   7.624  18.417  0.00  0.00    +0.000 A 
ATOM      3  C   UNL     1       1.967   8.922  18.421  0.00  0.00    +0.000 A 
ATOM      4  C   UNL     1       1.313   9.421  19.552  0.00  0.00    +0.000 A 
ATOM      5  C   UNL     1       1.109   8.591  20.661  0.00  0.00    +0.000 A 
ATOM      6  C   UNL     1       1.628   7.276  20.642  0.00  0.00    +0.000 A 
ENDROOT
BRANCH   1   9
ATOM      7  C   UNL     1       2.337   4.320  19.426  0.00  0.00    +0.000 C 
ATOM      8  O   UNL     1       1.169   4.196  19.061  0.00  0.00    +0.000 OA
ATOM      9  N   UNL     1       2.982   5.540  19.622  0.00  0.00    +0.000 N 
ATOM     10  H   UNL     1       3.998   5.516  19.672  0.00  0.00    +0.000 HD
BRANCH   7  12
ATOM     11  C   UNL     1       4.691   3.450  19.323  0.00  0.00    +0.000 C 
ATOM     12  C   UNL     1       3.226   3.087  19.614  0.00  0.00    +0.000 C 
BRANCH  12  13
ATOM     13  C   UNL     1       2.744   1.980  18.652  0.00  0.00    +0.000 C 
ATOM     14  F   UNL     1       2.561   2.437  17.390  0.00  0.00    +0.000 F 
ATOM     15  F   UNL     1       3.650   0.972  18.572  0.00  0.00    +0.000 F 
ATOM     16  F   UNL     1       1.578   1.410  19.032  0.00  0.00    +0.000 F 
ENDBRANCH  12  13
BRANCH  12  17
ATOM     17  O   UNL     1       3.126   2.713  21.010  0.00  0.00    +0.000 OA
ATOM     18  H   UNL     1       2.777   1.803  21.045  0.00  0.00    +0.000 HD
ENDBRANCH  12  17
ENDBRANCH   7  12
ENDBRANCH   1   9
BRANCH   4  19
ATOM     19  S   UNL     1       0.953  11.167  19.563  0.00  0.00    +0.000 S 
ATOM     20  O   UNL     1       1.145  11.645  20.915  0.00  0.00    +0.000 OA
ATOM     21  O   UNL     1       1.736  11.757  18.490  0.00  0.00    +0.000 OA
BRANCH  19  22
ATOM     22  C   UNL     1      -0.753  11.390  19.128  0.00  0.00    +0.000 A 
ATOM     23  C   UNL     1      -1.317  10.601  18.124  0.00  0.00    +0.000 A 
ATOM     24  C   UNL     1      -2.685  10.689  17.871  0.00  0.00    +0.000 A 
ATOM     25  C   UNL     1      -3.485  11.553  18.623  0.00  0.00    +0.000 A 
ATOM     26  C   UNL     1      -2.918  12.338  19.627  0.00  0.00    +0.000 A 
ATOM     27  C   UNL     1      -1.550  12.258  19.886  0.00  0.00    +0.000 A 
ENDBRANCH  19  22
ENDBRANCH   4  19
BRANCH   5  28
ATOM     28  C   UNL     1       0.384   9.002  21.830  0.00  0.00    +0.000 C 
ATOM     29  N   UNL     1      -0.198   9.266  22.796  0.00  0.00    +0.000 NA
ENDBRANCH   5  28
TORSDOF 7
ENDMDL
