MODEL 1
REMARK VINA RESULT:      -6.7      0.000      0.000
REMARK  Name = 
REMARK  6 active torsions:
REMARK  status: ('A' for Active; 'I' for Inactive)
REMARK    1  A    between atoms: C_1  and  C_2
REMARK    2  A    between atoms: C_2  and  C_3
REMARK    3  A    between atoms: C_3  and  O_4
REMARK    4  A    between atoms: N_8  and  C_9
REMARK    5  A    between atoms: C_9  and  C_10
REMARK    6  A    between atoms: C_10  and  C_11
REMARK                            x       y       z     vdW  Elec       q    Type
REMARK                         _______ _______ _______ _____ _____    ______ ____
ROOT
ATOM      1  C   UNL     1       7.502   7.592  17.379  0.00  0.00    +0.000 C 
ATOM      2  C   UNL     1       6.842   6.200  17.466  0.00  0.00    +0.000 C 
ATOM      3  C   UNL     1       7.090   5.467  16.131  0.00  0.00    +0.000 C 
ATOM      4  C   UNL     1       6.294   4.173  16.048  0.00  0.00    +0.000 C 
ATOM      5  C   UNL     1       4.810   4.417  16.314  0.00  0.00    +0.000 C 
ATOM      6  N   UNL     1       4.562   5.103  17.594  0.00  0.00    +0.000 NA
ATOM      7  C   UNL     1       5.311   6.376  17.662  0.00  0.00    +0.000 C 
ENDROOT
BRANCH   2   8
ATOM      8  C   UNL     1       7.440   5.423  18.666  0.00  0.00    +0.000 C 
BRANCH   8   9
ATOM      9  O   UNL     1       6.460   5.137  19.661  0.00  0.00    +0.000 OA
ATOM     10  H   UNL     1       6.035   4.295  19.430  0.00  0.00    +0.000 HD
ENDBRANCH   8   9
ENDBRANCH   2   8
BRANCH   6  11
ATOM     11  C   UNL     1       3.113   5.355  17.794  0.00  0.00    +0.000 C 
BRANCH  11  12
ATOM     12  C   UNL     1       2.282   4.066  17.950  0.00  0.00    +0.000 C 
BRANCH  12  13
ATOM     13  C   UNL     1       2.326   3.493  19.344  0.00  0.00    +0.000 A 
ATOM     14  C   UNL     1       3.475   2.850  19.817  0.00  0.00    +0.000 A 
ATOM     15  C   UNL     1       3.480   2.378  21.123  0.00  0.00    +0.000 A 
ATOM     16  N   UNL     1       2.435   2.495  21.968  0.00  0.00    +0.000 NA
ATOM     17  C   UNL     1       1.336   3.116  21.489  0.00  0.00    +0.000 A 
ATOM     18  C   UNL     1       1.232   3.618  20.200  0.00  0.00    +0.000 A 
ENDBRANCH  12  13
ENDBRANCH  11  12
ENDBRANCH   6  11
TORSDOF 5
ENDMDL
MODEL 2
REMARK VINA RESULT:      -6.7      1.675      5.611
REMARK  Name = 
REMARK  6 active torsions:
REMARK  status: ('A' for Active; 'I' for Inactive)
REMARK    1  A    between atoms: C_1  and  C_2
REMARK    2  A    between atoms: C_2  and  C_3
REMARK    3  A    between atoms: C_3  and  O_4
REMARK    4  A    between atoms: N_8  and  C_9
REMARK    5  A    between atoms: C_9  and  C_10
REMARK    6  A    between atoms: C_10  and  C_11
REMARK                            x       y       z     vdW  Elec       q    Type
REMARK                         _______ _______ _______ _____ _____    ______ ____
ROOT
ATOM      1  C   UNL     1       1.399   1.882  18.676  0.00  0.00    +0.000 C 
ATOM      2  C   UNL     1       2.236   3.035  19.267  0.00  0.00    +0.000 C 
ATOM      3  C   UNL     1       1.486   3.595  20.494  0.00  0.00    +0.000 C 
ATOM      4  C   UNL     1       2.133   4.871  21.011  0.00  0.00    +0.000 C 
ATOM      5  C   UNL     1       2.286   5.905  19.897  0.00  0.00    +0.000 C 
ATOM      6  N   UNL     1       3.015   5.385  18.727  0.00  0.00    +0.000 NA
ATOM      7  C   UNL     1       2.368   4.162  18.206  0.00  0.00    +0.000 C 
ENDROOT
BRANCH   2   8
ATOM      8  C   UNL     1       3.641   2.505  19.648  0.00  0.00    +0.000 C 
BRANCH   8   9
ATOM      9  O   UNL     1       4.634   2.888  18.700  0.00  0.00    +0.000 OA
ATOM     10  H   UNL     1       4.233   3.520  18.082  0.00  0.00    +0.000 HD
ENDBRANCH   8   9
ENDBRANCH   2   8
BRANCH   6  11
ATOM     11  C   UNL     1       3.107   6.408  17.656  0.00  0.00    +0.000 C 
BRANCH  11  12
ATOM     12  C   UNL     1       4.490   7.084  17.572  0.00  0.00    +0.000 C 
BRANCH  12  13
ATOM     13  C   UNL     1       5.610   6.118  17.278  0.00  0.00    +0.000 A 
ATOM     14  C   UNL     1       5.725   5.517  16.021  0.00  0.00    +0.000 A 
ATOM     15  C   UNL     1       6.798   4.668  15.787  0.00  0.00    +0.000 A 
ATOM     16  N   UNL     1       7.741   4.379  16.708  0.00  0.00    +0.000 NA
ATOM     17  C   UNL     1       7.608   4.968  17.916  0.00  0.00    +0.000 A 
ATOM     18  C   UNL     1       6.570   5.826  18.247  0.00  0.00    +0.000 A 
ENDBRANCH  12  13
ENDBRANCH  11  12
ENDBRANCH   6  11
TORSDOF 5
ENDMDL
MODEL 3
REMARK VINA RESULT:      -6.6      1.605      5.510
REMARK  Name = 
REMARK  6 active torsions:
REMARK  status: ('A' for Active; 'I' for Inactive)
REMARK    1  A    between atoms: C_1  and  C_2
REMARK    2  A    between atoms: C_2  and  C_3
REMARK    3  A    between atoms: C_3  and  O_4
REMARK    4  A    between atoms: N_8  and  C_9
REMARK    5  A    between atoms: C_9  and  C_10
REMARK    6  A    between atoms: C_10  and  C_11
REMARK                            x       y       z     vdW  Elec       q    Type
REMARK                         _______ _______ _______ _____ _____    ______ ____
ROOT
ATOM      1  C   UNL     1       1.928   1.647  18.746  0.00  0.00    +0.000 C 
ATOM      2  C   UNL     1       2.594   2.902  19.348  0.00  0.00    +0.000 C 
ATOM      3  C   UNL     1       1.691   3.427  20.484  0.00  0.00    +0.000 C 
ATOM      4  C   UNL     1       2.162   4.781  20.992  0.00  0.00    +0.000 C 
ATOM      5  C   UNL     1       2.304   5.783  19.848  0.00  0.00    +0.000 C 
ATOM      6  N   UNL     1       3.177   5.298  18.765  0.00  0.00    +0.000 NA
ATOM      7  C   UNL     1       2.701   3.996  18.251  0.00  0.00    +0.000 C 
ENDROOT
BRANCH   2   8
ATOM      8  C   UNL     1       4.008   2.535  19.863  0.00  0.00    +0.000 C 
BRANCH   8   9
ATOM      9  O   UNL     1       5.037   3.043  19.017  0.00  0.00    +0.000 OA
ATOM     10  H   UNL     1       5.856   3.091  19.536  0.00  0.00    +0.000 HD
ENDBRANCH   8   9
ENDBRANCH   2   8
BRANCH   6  11
ATOM     11  C   UNL     1       3.256   6.284  17.658  0.00  0.00    +0.000 C 
BRANCH  11  12
ATOM     12  C   UNL     1       4.611   7.015  17.584  0.00  0.00    +0.000 C 
BRANCH  12  13
ATOM     13  C   UNL     1       5.779   6.086  17.369  0.00  0.00    +0.000 A 
ATOM     14  C   UNL     1       6.771   5.945  18.346  0.00  0.00    +0.000 A 
ATOM     15  C   UNL     1       7.802   5.044  18.119  0.00  0.00    +0.000 A 
ATOM     16  N   UNL     1       7.913   4.295  17.002  0.00  0.00    +0.000 NA
ATOM     17  C   UNL     1       6.947   4.450  16.071  0.00  0.00    +0.000 A 
ATOM     18  C   UNL     1       5.879   5.326  16.204  0.00  0.00    +0.000 A 
ENDBRANCH  12  13
ENDBRANCH  11  12
ENDBRANCH   6  11
TORSDOF 5
ENDMDL
MODEL 4
REMARK VINA RESULT:      -6.5      1.619      5.633
REMARK  Name = 
REMARK  6 active torsions:
REMARK  status: ('A' for Active; 'I' for Inactive)
REMARK    1  A    between atoms: C_1  and  C_2
REMARK    2  A    between atoms: C_2  and  C_3
REMARK    3  A    between atoms: C_3  and  O_4
REMARK    4  A    between atoms: N_8  and  C_9
REMARK    5  A    between atoms: C_9  and  C_10
REMARK    6  A    between atoms: C_10  and  C_11
REMARK                            x       y       z     vdW  Elec       q    Type
REMARK                         _______ _______ _______ _____ _____    ______ ____
ROOT
ATOM      1  C   UNL     1       2.565   1.785  18.037  0.00  0.00    +0.000 C 
ATOM      2  C   UNL     1       2.903   2.742  19.198  0.00  0.00    +0.000 C 
ATOM      3  C   UNL     1       1.730   2.713  20.201  0.00  0.00    +0.000 C 
ATOM      4  C   UNL     1       1.881   3.787  21.269  0.00  0.00    +0.000 C 
ATOM      5  C   UNL     1       2.083   5.165  20.644  0.00  0.00    +0.000 C 
ATOM      6  N   UNL     1       3.210   5.207  19.697  0.00  0.00    +0.000 NA
ATOM      7  C   UNL     1       3.048   4.185  18.641  0.00  0.00    +0.000 C 
ENDROOT
BRANCH   2   8
ATOM      8  C   UNL     1       4.232   2.298  19.859  0.00  0.00    +0.000 C 
BRANCH   8   9
ATOM      9  O   UNL     1       5.351   3.017  19.349  0.00  0.00    +0.000 OA
ATOM     10  H   UNL     1       5.083   3.443  18.518  0.00  0.00    +0.000 HD
ENDBRANCH   8   9
ENDBRANCH   2   8
BRANCH   6  11
ATOM     11  C   UNL     1       3.347   6.552  19.085  0.00  0.00    +0.000 C 
BRANCH  11  12
ATOM     12  C   UNL     1       3.462   6.518  17.548  0.00  0.00    +0.000 C 
BRANCH  12  13
ATOM     13  C   UNL     1       4.868   6.271  17.061  0.00  0.00    +0.000 A 
ATOM     14  C   UNL     1       5.103   5.530  15.899  0.00  0.00    +0.000 A 
ATOM     15  C   UNL     1       6.412   5.367  15.469  0.00  0.00    +0.000 A 
ATOM     16  N   UNL     1       7.483   5.878  16.111  0.00  0.00    +0.000 NA
ATOM     17  C   UNL     1       7.233   6.587  17.233  0.00  0.00    +0.000 A 
ATOM     18  C   UNL     1       5.962   6.802  17.745  0.00  0.00    +0.000 A 
ENDBRANCH  12  13
ENDBRANCH  11  12
ENDBRANCH   6  11
TORSDOF 5
ENDMDL
MODEL 5
REMARK VINA RESULT:      -6.4      2.603      3.803
REMARK  Name = 
REMARK  6 active torsions:
REMARK  status: ('A' for Active; 'I' for Inactive)
REMARK    1  A    between atoms: C_1  and  C_2
REMARK    2  A    between atoms: C_2  and  C_3
REMARK    3  A    between atoms: C_3  and  O_4
REMARK    4  A    between atoms: N_8  and  C_9
REMARK    5  A    between atoms: C_9  and  C_10
REMARK    6  A    between atoms: C_10  and  C_11
REMARK                            x       y       z     vdW  Elec       q    Type
REMARK                         _______ _______ _______ _____ _____    ______ ____
ROOT
ATOM      1  C   UNL     1       7.631   7.588  17.427  0.00  0.00    +0.000 C 
ATOM      2  C   UNL     1       6.963   6.200  17.517  0.00  0.00    +0.000 C 
ATOM      3  C   UNL     1       7.118   5.503  16.149  0.00  0.00    +0.000 C 
ATOM      4  C   UNL     1       6.305   4.218  16.081  0.00  0.00    +0.000 C 
ATOM      5  C   UNL     1       4.844   4.468  16.448  0.00  0.00    +0.000 C 
ATOM      6  N   UNL     1       4.684   5.120  17.759  0.00  0.00    +0.000 NA
ATOM      7  C   UNL     1       5.449   6.383  17.814  0.00  0.00    +0.000 C 
ENDROOT
BRANCH   2   8
ATOM      8  C   UNL     1       7.627   5.385  18.655  0.00  0.00    +0.000 C 
BRANCH   8   9
ATOM      9  O   UNL     1       6.801   5.310  19.814  0.00  0.00    +0.000 OA
ATOM     10  H   UNL     1       6.376   6.174  19.938  0.00  0.00    +0.000 HD
ENDBRANCH   8   9
ENDBRANCH   2   8
BRANCH   6  11
ATOM     11  C   UNL     1       3.253   5.379  18.058  0.00  0.00    +0.000 C 
BRANCH  11  12
ATOM     12  C   UNL     1       3.028   6.088  19.408  0.00  0.00    +0.000 C 
BRANCH  12  13
ATOM     13  C   UNL     1       2.277   7.389  19.280  0.00  0.00    +0.000 A 
ATOM     14  C   UNL     1       1.646   7.963  20.389  0.00  0.00    +0.000 A 
ATOM     15  C   UNL     1       1.005   9.184  20.229  0.00  0.00    +0.000 A 
ATOM     16  N   UNL     1       0.945   9.853  19.059  0.00  0.00    +0.000 NA
ATOM     17  C   UNL     1       1.559   9.279  18.002  0.00  0.00    +0.000 A 
ATOM     18  C   UNL     1       2.221   8.062  18.060  0.00  0.00    +0.000 A 
ENDBRANCH  12  13
ENDBRANCH  11  12
ENDBRANCH   6  11
TORSDOF 5
ENDMDL
MODEL 6
REMARK VINA RESULT:      -6.2      2.118      6.213
REMARK  Name = 
REMARK  6 active torsions:
REMARK  status: ('A' for Active; 'I' for Inactive)
REMARK    1  A    between atoms: C_1  and  C_2
REMARK    2  A    between atoms: C_2  and  C_3
REMARK    3  A    between atoms: C_3  and  O_4
REMARK    4  A    between atoms: N_8  and  C_9
REMARK    5  A    between atoms: C_9  and  C_10
REMARK    6  A    between atoms: C_10  and  C_11
REMARK                            x       y       z     vdW  Elec       q    Type
REMARK                         _______ _______ _______ _____ _____    ______ ____
ROOT
ATOM      1  C   UNL     1       0.539   2.214  19.262  0.00  0.00    +0.000 C 
ATOM      2  C   UNL     1       1.493   3.134  20.052  0.00  0.00    +0.000 C 
ATOM      3  C   UNL     1       0.972   4.582  19.932  0.00  0.00    +0.000 C 
ATOM      4  C   UNL     1       1.967   5.582  20.502  0.00  0.00    +0.000 C 
ATOM      5  C   UNL     1       3.350   5.404  19.879  0.00  0.00    +0.000 C 
ATOM      6  N   UNL     1       3.863   4.029  20.001  0.00  0.00    +0.000 NA
ATOM      7  C   UNL     1       2.910   3.059  19.420  0.00  0.00    +0.000 C 
ENDROOT
BRANCH   2   8
ATOM      8  C   UNL     1       1.550   2.666  21.528  0.00  0.00    +0.000 C 
BRANCH   8   9
ATOM      9  O   UNL     1       2.883   2.397  21.954  0.00  0.00    +0.000 OA
ATOM     10  H   UNL     1       3.174   3.134  22.516  0.00  0.00    +0.000 HD
ENDBRANCH   8   9
ENDBRANCH   2   8
BRANCH   6  11
ATOM     11  C   UNL     1       5.189   3.891  19.350  0.00  0.00    +0.000 C 
BRANCH  11  12
ATOM     12  C   UNL     1       5.777   5.231  18.867  0.00  0.00    +0.000 C 
BRANCH  12  13
ATOM     13  C   UNL     1       5.959   5.298  17.372  0.00  0.00    +0.000 A 
ATOM     14  C   UNL     1       5.120   6.093  16.584  0.00  0.00    +0.000 A 
ATOM     15  C   UNL     1       5.356   6.155  15.218  0.00  0.00    +0.000 A 
ATOM     16  N   UNL     1       6.348   5.484  14.595  0.00  0.00    +0.000 NA
ATOM     17  C   UNL     1       7.143   4.720  15.375  0.00  0.00    +0.000 A 
ATOM     18  C   UNL     1       6.986   4.591  16.747  0.00  0.00    +0.000 A 
ENDBRANCH  12  13
ENDBRANCH  11  12
ENDBRANCH   6  11
TORSDOF 5
ENDMDL
MODEL 7
REMARK VINA RESULT:      -6.2      1.170      1.449
REMARK  Name = 
REMARK  6 active torsions:
REMARK  status: ('A' for Active; 'I' for Inactive)
REMARK    1  A    between atoms: C_1  and  C_2
REMARK    2  A    between atoms: C_2  and  C_3
REMARK    3  A    between atoms: C_3  and  O_4
REMARK    4  A    between atoms: N_8  and  C_9
REMARK    5  A    between atoms: C_9  and  C_10
REMARK    6  A    between atoms: C_10  and  C_11
REMARK                            x       y       z     vdW  Elec       q    Type
REMARK                         _______ _______ _______ _____ _____    ______ ____
ROOT
ATOM      1  C   UNL     1       7.788   7.383  17.824  0.00  0.00    +0.000 C 
ATOM      2  C   UNL     1       6.830   6.181  17.956  0.00  0.00    +0.000 C 
ATOM      3  C   UNL     1       7.098   5.222  16.778  0.00  0.00    +0.000 C 
ATOM      4  C   UNL     1       6.055   4.116  16.709  0.00  0.00    +0.000 C 
ATOM      5  C   UNL     1       4.640   4.691  16.686  0.00  0.00    +0.000 C 
ATOM      6  N   UNL     1       4.369   5.597  17.815  0.00  0.00    +0.000 NA
ATOM      7  C   UNL     1       5.365   6.688  17.863  0.00  0.00    +0.000 C 
ENDROOT
BRANCH   2   8
ATOM      8  C   UNL     1       7.061   5.490  19.323  0.00  0.00    +0.000 C 
BRANCH   8   9
ATOM      9  O   UNL     1       8.431   5.522  19.716  0.00  0.00    +0.000 OA
ATOM     10  H   UNL     1       8.833   6.324  19.343  0.00  0.00    +0.000 HD
ENDBRANCH   8   9
ENDBRANCH   2   8
BRANCH   6  11
ATOM     11  C   UNL     1       2.999   6.161  17.732  0.00  0.00    +0.000 C 
BRANCH  11  12
ATOM     12  C   UNL     1       2.295   6.265  19.100  0.00  0.00    +0.000 C 
BRANCH  12  13
ATOM     13  C   UNL     1       1.984   4.923  19.713  0.00  0.00    +0.000 A 
ATOM     14  C   UNL     1       1.407   3.903  18.949  0.00  0.00    +0.000 A 
ATOM     15  C   UNL     1       1.180   2.673  19.549  0.00  0.00    +0.000 A 
ATOM     16  N   UNL     1       1.477   2.398  20.836  0.00  0.00    +0.000 NA
ATOM     17  C   UNL     1       2.030   3.398  21.556  0.00  0.00    +0.000 A 
ATOM     18  C   UNL     1       2.292   4.662  21.049  0.00  0.00    +0.000 A 
ENDBRANCH  12  13
ENDBRANCH  11  12
ENDBRANCH   6  11
TORSDOF 5
ENDMDL
MODEL 8
REMARK VINA RESULT:      -6.2      1.501      2.155
REMARK  Name = 
REMARK  6 active torsions:
REMARK  status: ('A' for Active; 'I' for Inactive)
REMARK    1  A    between atoms: C_1  and  C_2
REMARK    2  A    between atoms: C_2  and  C_3
REMARK    3  A    between atoms: C_3  and  O_4
REMARK    4  A    between atoms: N_8  and  C_9
REMARK    5  A    between atoms: C_9  and  C_10
REMARK    6  A    between atoms: C_10  and  C_11
REMARK                            x       y       z     vdW  Elec       q    Type
REMARK                         _______ _______ _______ _____ _____    ______ ____
ROOT
ATOM      1  C   UNL     1       7.746   4.557  17.656  0.00  0.00    +0.000 C 
ATOM      2  C   UNL     1       6.450   5.044  16.977  0.00  0.00    +0.000 C 
ATOM      3  C   UNL     1       6.059   6.400  17.601  0.00  0.00    +0.000 C 
ATOM      4  C   UNL     1       4.680   6.850  17.142  0.00  0.00    +0.000 C 
ATOM      5  C   UNL     1       3.632   5.767  17.391  0.00  0.00    +0.000 C 
ATOM      6  N   UNL     1       3.989   4.473  16.785  0.00  0.00    +0.000 NA
ATOM      7  C   UNL     1       5.315   4.021  17.256  0.00  0.00    +0.000 C 
ENDROOT
BRANCH   2   8
ATOM      8  C   UNL     1       6.686   5.164  15.450  0.00  0.00    +0.000 C 
BRANCH   8   9
ATOM      9  O   UNL     1       5.975   4.169  14.717  0.00  0.00    +0.000 OA
ATOM     10  H   UNL     1       6.404   3.313  14.877  0.00  0.00    +0.000 HD
ENDBRANCH   8   9
ENDBRANCH   2   8
BRANCH   6  11
ATOM     11  C   UNL     1       2.964   3.441  17.083  0.00  0.00    +0.000 C 
BRANCH  11  12
ATOM     12  C   UNL     1       1.882   3.919  18.072  0.00  0.00    +0.000 C 
BRANCH  12  13
ATOM     13  C   UNL     1       2.081   3.395  19.472  0.00  0.00    +0.000 A 
ATOM     14  C   UNL     1       3.238   2.687  19.814  0.00  0.00    +0.000 A 
ATOM     15  C   UNL     1       3.393   2.264  21.126  0.00  0.00    +0.000 A 
ATOM     16  N   UNL     1       2.486   2.487  22.100  0.00  0.00    +0.000 NA
ATOM     17  C   UNL     1       1.375   3.170  21.747  0.00  0.00    +0.000 A 
ATOM     18  C   UNL     1       1.127   3.631  20.463  0.00  0.00    +0.000 A 
ENDBRANCH  12  13
ENDBRANCH  11  12
ENDBRANCH   6  11
TORSDOF 5
ENDMDL
MODEL 9
REMARK VINA RESULT:      -6.2      2.094      5.837
REMARK  Name = 
REMARK  6 active torsions:
REMARK  status: ('A' for Active; 'I' for Inactive)
REMARK    1  A    between atoms: C_1  and  C_2
REMARK    2  A    between atoms: C_2  and  C_3
REMARK    3  A    between atoms: C_3  and  O_4
REMARK    4  A    between atoms: N_8  and  C_9
REMARK    5  A    between atoms: C_9  and  C_10
REMARK    6  A    between atoms: C_10  and  C_11
REMARK                            x       y       z     vdW  Elec       q    Type
REMARK                         _______ _______ _______ _____ _____    ______ ____
ROOT
ATOM      1  C   UNL     1       1.234   2.701  21.483  0.00  0.00    +0.000 C 
ATOM      2  C   UNL     1       2.148   2.971  20.270  0.00  0.00    +0.000 C 
ATOM      3  C   UNL     1       3.540   2.382  20.577  0.00  0.00    +0.000 C 
ATOM      4  C   UNL     1       4.563   2.789  19.526  0.00  0.00    +0.000 C 
ATOM      5  C   UNL     1       4.597   4.305  19.344  0.00  0.00    +0.000 C 
ATOM      6  N   UNL     1       3.275   4.876  19.036  0.00  0.00    +0.000 NA
ATOM      7  C   UNL     1       2.288   4.506  20.073  0.00  0.00    +0.000 C 
ENDROOT
BRANCH   2   8
ATOM      8  C   UNL     1       1.522   2.334  19.005  0.00  0.00    +0.000 C 
BRANCH   8   9
ATOM      9  O   UNL     1       1.156   3.313  18.035  0.00  0.00    +0.000 OA
ATOM     10  H   UNL     1       1.449   2.998  17.164  0.00  0.00    +0.000 HD
ENDBRANCH   8   9
ENDBRANCH   2   8
BRANCH   6  11
ATOM     11  C   UNL     1       3.346   6.352  18.905  0.00  0.00    +0.000 C 
BRANCH  11  12
ATOM     12  C   UNL     1       3.571   6.830  17.457  0.00  0.00    +0.000 C 
BRANCH  12  13
ATOM     13  C   UNL     1       4.937   6.485  16.921  0.00  0.00    +0.000 A 
ATOM     14  C   UNL     1       6.087   7.063  17.468  0.00  0.00    +0.000 A 
ATOM     15  C   UNL     1       7.324   6.680  16.969  0.00  0.00    +0.000 A 
ATOM     16  N   UNL     1       7.488   5.782  15.975  0.00  0.00    +0.000 NA
ATOM     17  C   UNL     1       6.364   5.239  15.459  0.00  0.00    +0.000 A 
ATOM     18  C   UNL     1       5.084   5.560  15.887  0.00  0.00    +0.000 A 
ENDBRANCH  12  13
ENDBRANCH  11  12
ENDBRANCH   6  11
TORSDOF 5
ENDMDL
