MODEL 1
REMARK VINA RESULT:      -7.5      0.000      0.000
REMARK  Name = 
REMARK  14 active torsions:
REMARK  status: ('A' for Active; 'I' for Inactive)
REMARK    1  A    between atoms: C_1  and  C_2
REMARK    2  A    between atoms: C_3  and  C_4
REMARK    3  A    between atoms: C_3  and  C_5
REMARK    4  A    between atoms: C_5  and  C_7
REMARK    5  A    between atoms: N_11  and  C_12
REMARK    6  A    between atoms: C_12  and  C_13
REMARK    7  A    between atoms: C_14  and  C_15
REMARK    8  A    between atoms: C_14  and  C_16
REMARK    9  A    between atoms: C_17  and  C_18
REMARK   10  A    between atoms: C_19  and  C_20
REMARK   11  A    between atoms: C_20  and  C_21
REMARK   12  A    between atoms: C_20  and  C_22
REMARK   13  A    between atoms: C_22  and  C_23
REMARK   14  A    between atoms: C_30  and  C_31
REMARK                            x       y       z     vdW  Elec       q    Type
REMARK                         _______ _______ _______ _____ _____    ______ ____
ROOT
ATOM      1  C   UNL     1       1.059  13.014  19.250  0.00  0.00    +0.000 C 
ATOM      2  C   UNL     1       0.357  11.974  19.733  0.00  0.00    +0.000 C 
ATOM      3  C   UNL     1       0.674  10.568  19.797  0.00  0.00    +0.000 C 
ATOM      4  C   UNL     1       1.129   9.874  18.737  0.00  0.00    +0.000 C 
ATOM      5  N   UNL     1       1.607   8.557  18.777  0.00  0.00    +0.000 N 
ATOM      6  C   UNL     1       1.634   7.893  20.032  0.00  0.00    +0.000 C 
ATOM      7  C   UNL     1       1.097   8.465  21.137  0.00  0.00    +0.000 C 
ATOM      8  C   UNL     1       0.504   9.808  21.056  0.00  0.00    +0.000 C 
ATOM      9  C   UNL     1      -0.139  10.395  22.092  0.00  0.00    +0.000 C 
ATOM     10 CL   UNL     1      -0.387   9.630  23.629  0.00  0.00    +0.000 Cl
ATOM     11  C   UNL     1      -0.697  11.793  21.965  0.00  0.00    +0.000 C 
ATOM     12  O   UNL     1      -1.085  12.410  22.959  0.00  0.00    +0.000 OA
ATOM     13  C   UNL     1      -0.804  12.398  20.548  0.00  0.00    +0.000 C 
ATOM     14  C   UNL     1      -2.160  12.038  19.941  0.00  0.00    +0.000 C 
ATOM     15  O   UNL     1      -0.704  13.811  20.541  0.00  0.00    +0.000 OA
ATOM     16  C   UNL     1       0.344  14.192  19.759  0.00  0.00    +0.000 C 
ATOM     17  O   UNL     1       0.625  15.361  19.576  0.00  0.00    +0.000 OA
ENDROOT
BRANCH   1  18
ATOM     18  C   UNL     1       2.392  12.917  18.587  0.00  0.00    +0.000 C 
ATOM     19  O   UNL     1       2.551  12.057  17.714  0.00  0.00    +0.000 OA
BRANCH  18  22
ATOM     20  C   UNL     1       5.635  14.903  17.908  0.00  0.00    +0.000 C 
ATOM     21  C   UNL     1       4.342  14.149  17.842  0.00  0.00    +0.000 C 
ATOM     22  C   UNL     1       3.555  13.827  18.897  0.00  0.00    +0.000 C 
ATOM     23  C   UNL     1       3.904  14.221  20.292  0.00  0.00    +0.000 C 
ENDBRANCH  18  22
ENDBRANCH   1  18
BRANCH   6  24
ATOM     24  C   UNL     1       2.331   6.623  20.174  0.00  0.00    +0.000 C 
ATOM     25  C   UNL     1       1.754   5.431  20.393  0.00  0.00    +0.000 C 
BRANCH  25  26
ATOM     26  C   UNL     1       2.532   4.136  20.358  0.00  0.00    +0.000 C 
ATOM     27  C   UNL     1       2.232   3.275  21.586  0.00  0.00    +0.000 C 
BRANCH  26  28
ATOM     28  C   UNL     1       2.206   3.366  19.064  0.00  0.00    +0.000 C 
ATOM     29  C   UNL     1       0.870   2.632  19.131  0.00  0.00    +0.000 C 
ENDBRANCH  26  28
ENDBRANCH  25  26
ENDBRANCH   6  24
BRANCH   5  30
ATOM     30  C   UNL     1       2.269   8.032  17.560  0.00  0.00    +0.000 C 
BRANCH  30  31
ATOM     31  C   UNL     1       3.765   8.047  17.729  0.00  0.00    +0.000 C 
ATOM     32  C   UNL     1       4.599   7.022  17.453  0.00  0.00    +0.000 C 
ATOM     33  C   UNL     1       4.153   5.658  17.002  0.00  0.00    +0.000 C 
ATOM     34  C   UNL     1       6.092   7.181  17.563  0.00  0.00    +0.000 C 
ENDBRANCH  30  31
ENDBRANCH   5  30
TORSDOF 7
ENDMDL
MODEL 2
REMARK VINA RESULT:      -7.3      5.314      8.403
REMARK  Name = 
REMARK  14 active torsions:
REMARK  status: ('A' for Active; 'I' for Inactive)
REMARK    1  A    between atoms: C_1  and  C_2
REMARK    2  A    between atoms: C_3  and  C_4
REMARK    3  A    between atoms: C_3  and  C_5
REMARK    4  A    between atoms: C_5  and  C_7
REMARK    5  A    between atoms: N_11  and  C_12
REMARK    6  A    between atoms: C_12  and  C_13
REMARK    7  A    between atoms: C_14  and  C_15
REMARK    8  A    between atoms: C_14  and  C_16
REMARK    9  A    between atoms: C_17  and  C_18
REMARK   10  A    between atoms: C_19  and  C_20
REMARK   11  A    between atoms: C_20  and  C_21
REMARK   12  A    between atoms: C_20  and  C_22
REMARK   13  A    between atoms: C_22  and  C_23
REMARK   14  A    between atoms: C_30  and  C_31
REMARK                            x       y       z     vdW  Elec       q    Type
REMARK                         _______ _______ _______ _____ _____    ______ ____
ROOT
ATOM      1  C   UNL     1      -5.808  13.666  21.760  0.00  0.00    +0.000 C 
ATOM      2  C   UNL     1      -4.618  13.505  22.366  0.00  0.00    +0.000 C 
ATOM      3  C   UNL     1      -3.289  13.377  21.819  0.00  0.00    +0.000 C 
ATOM      4  C   UNL     1      -2.991  12.522  20.823  0.00  0.00    +0.000 C 
ATOM      5  N   UNL     1      -1.765  12.469  20.143  0.00  0.00    +0.000 N 
ATOM      6  C   UNL     1      -0.755  13.395  20.514  0.00  0.00    +0.000 C 
ATOM      7  C   UNL     1      -0.918  14.221  21.575  0.00  0.00    +0.000 C 
ATOM      8  C   UNL     1      -2.171  14.192  22.344  0.00  0.00    +0.000 C 
ATOM      9  C   UNL     1      -2.361  14.913  23.473  0.00  0.00    +0.000 C 
ATOM     10 CL   UNL     1      -1.147  15.928  24.183  0.00  0.00    +0.000 Cl
ATOM     11  C   UNL     1      -3.683  14.874  24.204  0.00  0.00    +0.000 C 
ATOM     12  O   UNL     1      -3.935  15.686  25.097  0.00  0.00    +0.000 OA
ATOM     13  C   UNL     1      -4.681  13.758  23.823  0.00  0.00    +0.000 C 
ATOM     14  C   UNL     1      -4.418  12.524  24.685  0.00  0.00    +0.000 C 
ATOM     15  O   UNL     1      -6.033  14.131  24.028  0.00  0.00    +0.000 OA
ATOM     16  C   UNL     1      -6.714  14.044  22.853  0.00  0.00    +0.000 C 
ATOM     17  O   UNL     1      -7.902  14.294  22.772  0.00  0.00    +0.000 OA
ENDROOT
BRANCH   1  18
ATOM     18  C   UNL     1      -6.023  13.699  20.284  0.00  0.00    +0.000 C 
ATOM     19  O   UNL     1      -5.620  14.683  19.655  0.00  0.00    +0.000 OA
BRANCH  18  22
ATOM     20  C   UNL     1      -6.840  10.061  19.275  0.00  0.00    +0.000 C 
ATOM     21  C   UNL     1      -6.438  11.334  19.955  0.00  0.00    +0.000 C 
ATOM     22  C   UNL     1      -6.680  12.587  19.503  0.00  0.00    +0.000 C 
ATOM     23  C   UNL     1      -7.419  12.839  18.233  0.00  0.00    +0.000 C 
ENDBRANCH  18  22
ENDBRANCH   1  18
BRANCH   6  24
ATOM     24  C   UNL     1       0.439  13.542  19.694  0.00  0.00    +0.000 C 
ATOM     25  C   UNL     1       1.386  14.482  19.848  0.00  0.00    +0.000 C 
BRANCH  25  26
ATOM     26  C   UNL     1       2.679  14.465  19.065  0.00  0.00    +0.000 C 
ATOM     27  C   UNL     1       2.810  13.185  18.238  0.00  0.00    +0.000 C 
BRANCH  26  28
ATOM     28  C   UNL     1       2.755  15.707  18.157  0.00  0.00    +0.000 C 
ATOM     29  C   UNL     1       1.894  16.863  18.660  0.00  0.00    +0.000 C 
ENDBRANCH  26  28
ENDBRANCH  25  26
ENDBRANCH   6  24
BRANCH   5  30
ATOM     30  C   UNL     1      -1.690  11.617  18.934  0.00  0.00    +0.000 C 
BRANCH  30  31
ATOM     31  C   UNL     1      -2.952  11.743  18.124  0.00  0.00    +0.000 C 
ATOM     32  C   UNL     1      -3.282  10.985  17.057  0.00  0.00    +0.000 C 
ATOM     33  C   UNL     1      -2.393   9.933  16.451  0.00  0.00    +0.000 C 
ATOM     34  C   UNL     1      -4.620  11.130  16.381  0.00  0.00    +0.000 C 
ENDBRANCH  30  31
ENDBRANCH   5  30
TORSDOF 7
ENDMDL
MODEL 3
REMARK VINA RESULT:      -7.3      3.987      7.436
REMARK  Name = 
REMARK  14 active torsions:
REMARK  status: ('A' for Active; 'I' for Inactive)
REMARK    1  A    between atoms: C_1  and  C_2
REMARK    2  A    between atoms: C_3  and  C_4
REMARK    3  A    between atoms: C_3  and  C_5
REMARK    4  A    between atoms: C_5  and  C_7
REMARK    5  A    between atoms: N_11  and  C_12
REMARK    6  A    between atoms: C_12  and  C_13
REMARK    7  A    between atoms: C_14  and  C_15
REMARK    8  A    between atoms: C_14  and  C_16
REMARK    9  A    between atoms: C_17  and  C_18
REMARK   10  A    between atoms: C_19  and  C_20
REMARK   11  A    between atoms: C_20  and  C_21
REMARK   12  A    between atoms: C_20  and  C_22
REMARK   13  A    between atoms: C_22  and  C_23
REMARK   14  A    between atoms: C_30  and  C_31
REMARK                            x       y       z     vdW  Elec       q    Type
REMARK                         _______ _______ _______ _____ _____    ______ ____
ROOT
ATOM      1  C   UNL     1      -5.200  13.583  22.718  0.00  0.00    +0.000 C 
ATOM      2  C   UNL     1      -5.037  13.532  21.384  0.00  0.00    +0.000 C 
ATOM      3  C   UNL     1      -3.880  13.206  20.586  0.00  0.00    +0.000 C 
ATOM      4  C   UNL     1      -2.671  13.757  20.796  0.00  0.00    +0.000 C 
ATOM      5  N   UNL     1      -1.481  13.364  20.167  0.00  0.00    +0.000 N 
ATOM      6  C   UNL     1      -1.539  12.287  19.242  0.00  0.00    +0.000 C 
ATOM      7  C   UNL     1      -2.724  11.738  18.881  0.00  0.00    +0.000 C 
ATOM      8  C   UNL     1      -3.975  12.235  19.473  0.00  0.00    +0.000 C 
ATOM      9  C   UNL     1      -5.198  11.804  19.083  0.00  0.00    +0.000 C 
ATOM     10 CL   UNL     1      -5.453  10.652  17.812  0.00  0.00    +0.000 Cl
ATOM     11  C   UNL     1      -6.450  12.321  19.752  0.00  0.00    +0.000 C 
ATOM     12  O   UNL     1      -7.539  11.779  19.555  0.00  0.00    +0.000 OA
ATOM     13  C   UNL     1      -6.321  13.572  20.649  0.00  0.00    +0.000 C 
ATOM     14  C   UNL     1      -6.519  14.828  19.802  0.00  0.00    +0.000 C 
ATOM     15  O   UNL     1      -7.286  13.610  21.687  0.00  0.00    +0.000 OA
ATOM     16  C   UNL     1      -6.657  13.660  22.893  0.00  0.00    +0.000 C 
ATOM     17  O   UNL     1      -7.270  13.720  23.942  0.00  0.00    +0.000 OA
ENDROOT
BRANCH   1  18
ATOM     18  C   UNL     1      -4.127  13.341  23.725  0.00  0.00    +0.000 C 
ATOM     19  O   UNL     1      -3.944  12.185  24.121  0.00  0.00    +0.000 OA
BRANCH  18  22
ATOM     20  C   UNL     1      -3.187  16.808  25.146  0.00  0.00    +0.000 C 
ATOM     21  C   UNL     1      -3.854  15.540  24.706  0.00  0.00    +0.000 C 
ATOM     22  C   UNL     1      -3.226  14.422  24.272  0.00  0.00    +0.000 C 
ATOM     23  C   UNL     1      -1.740  14.327  24.200  0.00  0.00    +0.000 C 
ENDBRANCH  18  22
ENDBRANCH   1  18
BRANCH   6  24
ATOM     24  C   UNL     1      -0.311  11.685  18.741  0.00  0.00    +0.000 C 
ATOM     25  C   UNL     1      -0.054  10.370  18.673  0.00  0.00    +0.000 C 
BRANCH  25  26
ATOM     26  C   UNL     1       1.174   9.820  17.983  0.00  0.00    +0.000 C 
ATOM     27  C   UNL     1       2.257  10.890  17.841  0.00  0.00    +0.000 C 
BRANCH  26  28
ATOM     28  C   UNL     1       1.711   8.605  18.765  0.00  0.00    +0.000 C 
ATOM     29  C   UNL     1       2.749   7.808  17.981  0.00  0.00    +0.000 C 
ENDBRANCH  26  28
ENDBRANCH  25  26
ENDBRANCH   6  24
BRANCH   5  30
ATOM     30  C   UNL     1      -0.214  13.933  20.680  0.00  0.00    +0.000 C 
BRANCH  30  31
ATOM     31  C   UNL     1       0.072  15.255  20.021  0.00  0.00    +0.000 C 
ATOM     32  C   UNL     1       1.062  15.495  19.134  0.00  0.00    +0.000 C 
ATOM     33  C   UNL     1       2.098  14.486  18.719  0.00  0.00    +0.000 C 
ATOM     34  C   UNL     1       1.195  16.833  18.458  0.00  0.00    +0.000 C 
ENDBRANCH  30  31
ENDBRANCH   5  30
TORSDOF 7
ENDMDL
MODEL 4
REMARK VINA RESULT:      -7.2      4.817      8.188
REMARK  Name = 
REMARK  14 active torsions:
REMARK  status: ('A' for Active; 'I' for Inactive)
REMARK    1  A    between atoms: C_1  and  C_2
REMARK    2  A    between atoms: C_3  and  C_4
REMARK    3  A    between atoms: C_3  and  C_5
REMARK    4  A    between atoms: C_5  and  C_7
REMARK    5  A    between atoms: N_11  and  C_12
REMARK    6  A    between atoms: C_12  and  C_13
REMARK    7  A    between atoms: C_14  and  C_15
REMARK    8  A    between atoms: C_14  and  C_16
REMARK    9  A    between atoms: C_17  and  C_18
REMARK   10  A    between atoms: C_19  and  C_20
REMARK   11  A    between atoms: C_20  and  C_21
REMARK   12  A    between atoms: C_20  and  C_22
REMARK   13  A    between atoms: C_22  and  C_23
REMARK   14  A    between atoms: C_30  and  C_31
REMARK                            x       y       z     vdW  Elec       q    Type
REMARK                         _______ _______ _______ _____ _____    ______ ____
ROOT
ATOM      1  C   UNL     1      -2.454  13.313  22.007  0.00  0.00    +0.000 C 
ATOM      2  C   UNL     1      -1.892  12.313  21.305  0.00  0.00    +0.000 C 
ATOM      3  C   UNL     1      -2.129  11.857  19.957  0.00  0.00    +0.000 C 
ATOM      4  C   UNL     1      -3.362  11.612  19.477  0.00  0.00    +0.000 C 
ATOM      5  N   UNL     1      -3.667  11.326  18.138  0.00  0.00    +0.000 N 
ATOM      6  C   UNL     1      -2.601  11.306  17.200  0.00  0.00    +0.000 C 
ATOM      7  C   UNL     1      -1.314  11.432  17.601  0.00  0.00    +0.000 C 
ATOM      8  C   UNL     1      -1.002  11.626  19.025  0.00  0.00    +0.000 C 
ATOM      9  C   UNL     1       0.262  11.656  19.507  0.00  0.00    +0.000 C 
ATOM     10 CL   UNL     1       1.673  11.427  18.524  0.00  0.00    +0.000 Cl
ATOM     11  C   UNL     1       0.526  11.897  20.975  0.00  0.00    +0.000 C 
ATOM     12  O   UNL     1       1.664  12.141  21.380  0.00  0.00    +0.000 OA
ATOM     13  C   UNL     1      -0.669  11.781  21.947  0.00  0.00    +0.000 C 
ATOM     14  C   UNL     1      -0.794  10.337  22.431  0.00  0.00    +0.000 C 
ATOM     15  O   UNL     1      -0.527  12.597  23.097  0.00  0.00    +0.000 OA
ATOM     16  C   UNL     1      -1.574  13.464  23.174  0.00  0.00    +0.000 C 
ATOM     17  O   UNL     1      -1.692  14.259  24.088  0.00  0.00    +0.000 OA
ENDROOT
BRANCH   1  18
ATOM     18  C   UNL     1      -3.555  14.193  21.519  0.00  0.00    +0.000 C 
ATOM     19  O   UNL     1      -3.299  15.017  20.635  0.00  0.00    +0.000 OA
BRANCH  18  22
ATOM     20  C   UNL     1      -6.895  15.506  22.949  0.00  0.00    +0.000 C 
ATOM     21  C   UNL     1      -5.559  15.311  22.298  0.00  0.00    +0.000 C 
ATOM     22  C   UNL     1      -4.977  14.120  22.021  0.00  0.00    +0.000 C 
ATOM     23  C   UNL     1      -5.642  12.823  22.334  0.00  0.00    +0.000 C 
ENDBRANCH  18  22
ENDBRANCH   1  18
BRANCH   6  24
ATOM     24  C   UNL     1      -2.884  11.250  15.772  0.00  0.00    +0.000 C 
ATOM     25  C   UNL     1      -2.950  10.134  15.029  0.00  0.00    +0.000 C 
BRANCH  25  26
ATOM     26  C   UNL     1      -3.416  10.146  13.591  0.00  0.00    +0.000 C 
ATOM     27  C   UNL     1      -2.443   9.389  12.686  0.00  0.00    +0.000 C 
BRANCH  26  28
ATOM     28  C   UNL     1      -4.829   9.538  13.497  0.00  0.00    +0.000 C 
ATOM     29  C   UNL     1      -5.339   9.445  12.061  0.00  0.00    +0.000 C 
ENDBRANCH  26  28
ENDBRANCH  25  26
ENDBRANCH   6  24
BRANCH   5  30
ATOM     30  C   UNL     1      -5.097  11.300  17.752  0.00  0.00    +0.000 C 
BRANCH  30  31
ATOM     31  C   UNL     1      -5.904  12.175  18.673  0.00  0.00    +0.000 C 
ATOM     32  C   UNL     1      -6.639  13.245  18.299  0.00  0.00    +0.000 C 
ATOM     33  C   UNL     1      -6.704  13.787  16.897  0.00  0.00    +0.000 C 
ATOM     34  C   UNL     1      -7.491  13.990  19.292  0.00  0.00    +0.000 C 
ENDBRANCH  30  31
ENDBRANCH   5  30
TORSDOF 7
ENDMDL
MODEL 5
REMARK VINA RESULT:      -7.2      0.831      1.165
REMARK  Name = 
REMARK  14 active torsions:
REMARK  status: ('A' for Active; 'I' for Inactive)
REMARK    1  A    between atoms: C_1  and  C_2
REMARK    2  A    between atoms: C_3  and  C_4
REMARK    3  A    between atoms: C_3  and  C_5
REMARK    4  A    between atoms: C_5  and  C_7
REMARK    5  A    between atoms: N_11  and  C_12
REMARK    6  A    between atoms: C_12  and  C_13
REMARK    7  A    between atoms: C_14  and  C_15
REMARK    8  A    between atoms: C_14  and  C_16
REMARK    9  A    between atoms: C_17  and  C_18
REMARK   10  A    between atoms: C_19  and  C_20
REMARK   11  A    between atoms: C_20  and  C_21
REMARK   12  A    between atoms: C_20  and  C_22
REMARK   13  A    between atoms: C_22  and  C_23
REMARK   14  A    between atoms: C_30  and  C_31
REMARK                            x       y       z     vdW  Elec       q    Type
REMARK                         _______ _______ _______ _____ _____    ______ ____
ROOT
ATOM      1  C   UNL     1       0.974  12.836  18.824  0.00  0.00    +0.000 C 
ATOM      2  C   UNL     1       0.296  11.739  19.206  0.00  0.00    +0.000 C 
ATOM      3  C   UNL     1       0.718  10.365  19.333  0.00  0.00    +0.000 C 
ATOM      4  C   UNL     1       1.385   9.715  18.362  0.00  0.00    +0.000 C 
ATOM      5  N   UNL     1       1.961   8.442  18.487  0.00  0.00    +0.000 N 
ATOM      6  C   UNL     1       1.852   7.781  19.739  0.00  0.00    +0.000 C 
ATOM      7  C   UNL     1       1.109   8.303  20.744  0.00  0.00    +0.000 C 
ATOM      8  C   UNL     1       0.424   9.590  20.560  0.00  0.00    +0.000 C 
ATOM      9  C   UNL     1      -0.416  10.118  21.481  0.00  0.00    +0.000 C 
ATOM     10 CL   UNL     1      -0.828   9.332  22.971  0.00  0.00    +0.000 Cl
ATOM     11  C   UNL     1      -1.064  11.464  21.256  0.00  0.00    +0.000 C 
ATOM     12  O   UNL     1      -1.649  12.044  22.173  0.00  0.00    +0.000 OA
ATOM     13  C   UNL     1      -1.006  12.061  19.832  0.00  0.00    +0.000 C 
ATOM     14  C   UNL     1      -2.219  11.588  19.032  0.00  0.00    +0.000 C 
ATOM     15  O   UNL     1      -1.026  13.478  19.825  0.00  0.00    +0.000 OA
ATOM     16  C   UNL     1       0.093  13.947  19.207  0.00  0.00    +0.000 C 
ATOM     17  O   UNL     1       0.299  15.137  19.056  0.00  0.00    +0.000 OA
ENDROOT
BRANCH   1  18
ATOM     18  C   UNL     1       2.395  12.854  18.371  0.00  0.00    +0.000 C 
ATOM     19  O   UNL     1       2.747  12.039  17.511  0.00  0.00    +0.000 OA
BRANCH  18  22
ATOM     20  C   UNL     1       4.290  15.002  20.963  0.00  0.00    +0.000 C 
ATOM     21  C   UNL     1       3.470  13.990  20.223  0.00  0.00    +0.000 C 
ATOM     22  C   UNL     1       3.429  13.829  18.879  0.00  0.00    +0.000 C 
ATOM     23  C   UNL     1       4.245  14.671  17.957  0.00  0.00    +0.000 C 
ENDBRANCH  18  22
ENDBRANCH   1  18
BRANCH   6  24
ATOM     24  C   UNL     1       2.625   6.574  19.998  0.00  0.00    +0.000 C 
ATOM     25  C   UNL     1       2.139   5.323  20.031  0.00  0.00    +0.000 C 
BRANCH  25  26
ATOM     26  C   UNL     1       3.033   4.109  20.137  0.00  0.00    +0.000 C 
ATOM     27  C   UNL     1       2.298   2.933  20.781  0.00  0.00    +0.000 C 
BRANCH  26  28
ATOM     28  C   UNL     1       3.556   3.723  18.741  0.00  0.00    +0.000 C 
ATOM     29  C   UNL     1       2.505   3.893  17.647  0.00  0.00    +0.000 C 
ENDBRANCH  26  28
ENDBRANCH  25  26
ENDBRANCH   6  24
BRANCH   5  30
ATOM     30  C   UNL     1       2.841   7.978  17.390  0.00  0.00    +0.000 C 
BRANCH  30  31
ATOM     31  C   UNL     1       4.157   7.498  17.941  0.00  0.00    +0.000 C 
ATOM     32  C   UNL     1       5.099   6.820  17.252  0.00  0.00    +0.000 C 
ATOM     33  C   UNL     1       4.947   6.361  15.827  0.00  0.00    +0.000 C 
ATOM     34  C   UNL     1       6.425   6.477  17.876  0.00  0.00    +0.000 C 
ENDBRANCH  30  31
ENDBRANCH   5  30
TORSDOF 7
ENDMDL
MODEL 6
REMARK VINA RESULT:      -7.0      5.591      8.442
REMARK  Name = 
REMARK  14 active torsions:
REMARK  status: ('A' for Active; 'I' for Inactive)
REMARK    1  A    between atoms: C_1  and  C_2
REMARK    2  A    between atoms: C_3  and  C_4
REMARK    3  A    between atoms: C_3  and  C_5
REMARK    4  A    between atoms: C_5  and  C_7
REMARK    5  A    between atoms: N_11  and  C_12
REMARK    6  A    between atoms: C_12  and  C_13
REMARK    7  A    between atoms: C_14  and  C_15
REMARK    8  A    between atoms: C_14  and  C_16
REMARK    9  A    between atoms: C_17  and  C_18
REMARK   10  A    between atoms: C_19  and  C_20
REMARK   11  A    between atoms: C_20  and  C_21
REMARK   12  A    between atoms: C_20  and  C_22
REMARK   13  A    between atoms: C_22  and  C_23
REMARK   14  A    between atoms: C_30  and  C_31
REMARK                            x       y       z     vdW  Elec       q    Type
REMARK                         _______ _______ _______ _____ _____    ______ ____
ROOT
ATOM      1  C   UNL     1      -5.717  12.835  21.388  0.00  0.00    +0.000 C 
ATOM      2  C   UNL     1      -4.549  13.195  21.950  0.00  0.00    +0.000 C 
ATOM      3  C   UNL     1      -3.278  13.527  21.355  0.00  0.00    +0.000 C 
ATOM      4  C   UNL     1      -2.687  12.757  20.422  0.00  0.00    +0.000 C 
ATOM      5  N   UNL     1      -1.541  13.106  19.693  0.00  0.00    +0.000 N 
ATOM      6  C   UNL     1      -0.955  14.377  19.936  0.00  0.00    +0.000 C 
ATOM      7  C   UNL     1      -1.410  15.177  20.929  0.00  0.00    +0.000 C 
ATOM      8  C   UNL     1      -2.548  14.750  21.756  0.00  0.00    +0.000 C 
ATOM      9  C   UNL     1      -2.987  15.452  22.827  0.00  0.00    +0.000 C 
ATOM     10 CL   UNL     1      -2.243  16.913  23.391  0.00  0.00    +0.000 Cl
ATOM     11  C   UNL     1      -4.186  14.986  23.619  0.00  0.00    +0.000 C 
ATOM     12  O   UNL     1      -4.718  15.724  24.451  0.00  0.00    +0.000 OA
ATOM     13  C   UNL     1      -4.688  13.545  23.381  0.00  0.00    +0.000 C 
ATOM     14  C   UNL     1      -3.965  12.590  24.331  0.00  0.00    +0.000 C 
ATOM     15  O   UNL     1      -6.078  13.397  23.616  0.00  0.00    +0.000 OA
ATOM     16  C   UNL     1      -6.687  12.945  22.486  0.00  0.00    +0.000 C 
ATOM     17  O   UNL     1      -7.881  12.719  22.439  0.00  0.00    +0.000 OA
ENDROOT
BRANCH   1  18
ATOM     18  C   UNL     1      -5.944  12.643  19.926  0.00  0.00    +0.000 C 
ATOM     19  O   UNL     1      -5.812  11.507  19.456  0.00  0.00    +0.000 OA
BRANCH  18  22
ATOM     20  C   UNL     1      -6.940  14.269  16.567  0.00  0.00    +0.000 C 
ATOM     21  C   UNL     1      -6.657  13.360  17.723  0.00  0.00    +0.000 C 
ATOM     22  C   UNL     1      -6.356  13.749  18.985  0.00  0.00    +0.000 C 
ATOM     23  C   UNL     1      -6.289  15.187  19.374  0.00  0.00    +0.000 C 
ENDBRANCH  18  22
ENDBRANCH   1  18
BRANCH   6  24
ATOM     24  C   UNL     1       0.084  14.885  19.051  0.00  0.00    +0.000 C 
ATOM     25  C   UNL     1       1.350  15.158  19.405  0.00  0.00    +0.000 C 
BRANCH  25  26
ATOM     26  C   UNL     1       2.413  15.520  18.392  0.00  0.00    +0.000 C 
ATOM     27  C   UNL     1       2.287  16.979  17.953  0.00  0.00    +0.000 C 
BRANCH  26  28
ATOM     28  C   UNL     1       3.809  15.250  18.984  0.00  0.00    +0.000 C 
ATOM     29  C   UNL     1       3.753  14.624  20.375  0.00  0.00    +0.000 C 
ENDBRANCH  26  28
ENDBRANCH  25  26
ENDBRANCH   6  24
BRANCH   5  30
ATOM     30  C   UNL     1      -1.160  12.233  18.558  0.00  0.00    +0.000 C 
BRANCH  30  31
ATOM     31  C   UNL     1      -2.049  11.020  18.507  0.00  0.00    +0.000 C 
ATOM     32  C   UNL     1      -2.724  10.583  17.422  0.00  0.00    +0.000 C 
ATOM     33  C   UNL     1      -2.757  11.294  16.096  0.00  0.00    +0.000 C 
ATOM     34  C   UNL     1      -3.506   9.298  17.457  0.00  0.00    +0.000 C 
ENDBRANCH  30  31
ENDBRANCH   5  30
TORSDOF 7
ENDMDL
MODEL 7
REMARK VINA RESULT:      -7.0      4.641      9.054
REMARK  Name = 
REMARK  14 active torsions:
REMARK  status: ('A' for Active; 'I' for Inactive)
REMARK    1  A    between atoms: C_1  and  C_2
REMARK    2  A    between atoms: C_3  and  C_4
REMARK    3  A    between atoms: C_3  and  C_5
REMARK    4  A    between atoms: C_5  and  C_7
REMARK    5  A    between atoms: N_11  and  C_12
REMARK    6  A    between atoms: C_12  and  C_13
REMARK    7  A    between atoms: C_14  and  C_15
REMARK    8  A    between atoms: C_14  and  C_16
REMARK    9  A    between atoms: C_17  and  C_18
REMARK   10  A    between atoms: C_19  and  C_20
REMARK   11  A    between atoms: C_20  and  C_21
REMARK   12  A    between atoms: C_20  and  C_22
REMARK   13  A    between atoms: C_22  and  C_23
REMARK   14  A    between atoms: C_30  and  C_31
REMARK                            x       y       z     vdW  Elec       q    Type
REMARK                         _______ _______ _______ _____ _____    ______ ____
ROOT
ATOM      1  C   UNL     1      -2.969  11.509  18.139  0.00  0.00    +0.000 C 
ATOM      2  C   UNL     1      -4.072  11.862  18.823  0.00  0.00    +0.000 C 
ATOM      3  C   UNL     1      -4.232  12.678  20.002  0.00  0.00    +0.000 C 
ATOM      4  C   UNL     1      -3.498  12.500  21.116  0.00  0.00    +0.000 C 
ATOM      5  N   UNL     1      -3.491  13.356  22.226  0.00  0.00    +0.000 N 
ATOM      6  C   UNL     1      -4.308  14.517  22.179  0.00  0.00    +0.000 C 
ATOM      7  C   UNL     1      -5.164  14.728  21.151  0.00  0.00    +0.000 C 
ATOM      8  C   UNL     1      -5.236  13.765  20.043  0.00  0.00    +0.000 C 
ATOM      9  C   UNL     1      -6.138  13.860  19.039  0.00  0.00    +0.000 C 
ATOM     10 CL   UNL     1      -7.351  15.096  18.948  0.00  0.00    +0.000 Cl
ATOM     11  C   UNL     1      -6.142  12.862  17.904  0.00  0.00    +0.000 C 
ATOM     12  O   UNL     1      -6.808  13.066  16.887  0.00  0.00    +0.000 OA
ATOM     13  C   UNL     1      -5.321  11.566  18.084  0.00  0.00    +0.000 C 
ATOM     14  C   UNL     1      -6.195  10.496  18.738  0.00  0.00    +0.000 C 
ATOM     15  O   UNL     1      -4.852  11.033  16.858  0.00  0.00    +0.000 OA
ATOM     16  C   UNL     1      -3.494  10.951  16.885  0.00  0.00    +0.000 C 
ATOM     17  O   UNL     1      -2.852  10.505  15.953  0.00  0.00    +0.000 OA
ENDROOT
BRANCH   1  18
ATOM     18  C   UNL     1      -1.573  11.876  18.512  0.00  0.00    +0.000 C 
ATOM     19  O   UNL     1      -1.244  13.066  18.459  0.00  0.00    +0.000 OA
BRANCH  18  22
ATOM     20  C   UNL     1       1.392   9.418  18.214  0.00  0.00    +0.000 C 
ATOM     21  C   UNL     1       0.367  10.498  18.051  0.00  0.00    +0.000 C 
ATOM     22  C   UNL     1      -0.538  10.882  18.982  0.00  0.00    +0.000 C 
ATOM     23  C   UNL     1      -0.599  10.252  20.332  0.00  0.00    +0.000 C 
ENDBRANCH  18  22
ENDBRANCH   1  18
BRANCH   6  24
ATOM     24  C   UNL     1      -4.165  15.554  23.191  0.00  0.00    +0.000 C 
ATOM     25  C   UNL     1      -3.790  16.823  22.966  0.00  0.00    +0.000 C 
BRANCH  25  26
ATOM     26  C   UNL     1      -3.829  17.883  24.043  0.00  0.00    +0.000 C 
ATOM     27  C   UNL     1      -4.753  17.474  25.191  0.00  0.00    +0.000 C 
BRANCH  26  28
ATOM     28  C   UNL     1      -2.404  18.150  24.563  0.00  0.00    +0.000 C 
ATOM     29  C   UNL     1      -1.991  17.195  25.680  0.00  0.00    +0.000 C 
ENDBRANCH  26  28
ENDBRANCH  25  26
ENDBRANCH   6  24
BRANCH   5  30
ATOM     30  C   UNL     1      -2.462  13.122  23.265  0.00  0.00    +0.000 C 
BRANCH  30  31
ATOM     31  C   UNL     1      -1.126  12.850  22.629  0.00  0.00    +0.000 C 
ATOM     32  C   UNL     1      -0.361  13.757  21.984  0.00  0.00    +0.000 C 
ATOM     33  C   UNL     1      -0.765  15.184  21.728  0.00  0.00    +0.000 C 
ATOM     34  C   UNL     1       1.008  13.398  21.472  0.00  0.00    +0.000 C 
ENDBRANCH  30  31
ENDBRANCH   5  30
TORSDOF 7
ENDMDL
MODEL 8
REMARK VINA RESULT:      -6.9      4.782      9.227
REMARK  Name = 
REMARK  14 active torsions:
REMARK  status: ('A' for Active; 'I' for Inactive)
REMARK    1  A    between atoms: C_1  and  C_2
REMARK    2  A    between atoms: C_3  and  C_4
REMARK    3  A    between atoms: C_3  and  C_5
REMARK    4  A    between atoms: C_5  and  C_7
REMARK    5  A    between atoms: N_11  and  C_12
REMARK    6  A    between atoms: C_12  and  C_13
REMARK    7  A    between atoms: C_14  and  C_15
REMARK    8  A    between atoms: C_14  and  C_16
REMARK    9  A    between atoms: C_17  and  C_18
REMARK   10  A    between atoms: C_19  and  C_20
REMARK   11  A    between atoms: C_20  and  C_21
REMARK   12  A    between atoms: C_20  and  C_22
REMARK   13  A    between atoms: C_22  and  C_23
REMARK   14  A    between atoms: C_30  and  C_31
REMARK                            x       y       z     vdW  Elec       q    Type
REMARK                         _______ _______ _______ _____ _____    ______ ____
ROOT
ATOM      1  C   UNL     1      -2.965  11.719  18.224  0.00  0.00    +0.000 C 
ATOM      2  C   UNL     1      -4.140  11.985  18.824  0.00  0.00    +0.000 C 
ATOM      3  C   UNL     1      -4.451  12.802  19.971  0.00  0.00    +0.000 C 
ATOM      4  C   UNL     1      -3.784  12.706  21.136  0.00  0.00    +0.000 C 
ATOM      5  N   UNL     1      -3.929  13.576  22.226  0.00  0.00    +0.000 N 
ATOM      6  C   UNL     1      -4.837  14.661  22.098  0.00  0.00    +0.000 C 
ATOM      7  C   UNL     1      -5.634  14.781  21.009  0.00  0.00    +0.000 C 
ATOM      8  C   UNL     1      -5.544  13.798  19.920  0.00  0.00    +0.000 C 
ATOM      9  C   UNL     1      -6.379  13.799  18.854  0.00  0.00    +0.000 C 
ATOM     10 CL   UNL     1      -7.684  14.923  18.654  0.00  0.00    +0.000 Cl
ATOM     11  C   UNL     1      -6.218  12.787  17.744  0.00  0.00    +0.000 C 
ATOM     12  O   UNL     1      -6.826  12.916  16.680  0.00  0.00    +0.000 OA
ATOM     13  C   UNL     1      -5.303  11.570  18.008  0.00  0.00    +0.000 C 
ATOM     14  C   UNL     1      -6.126  10.438  18.622  0.00  0.00    +0.000 C 
ATOM     15  O   UNL     1      -4.706  11.061  16.828  0.00  0.00    +0.000 OA
ATOM     16  C   UNL     1      -3.351  11.098  16.950  0.00  0.00    +0.000 C 
ATOM     17  O   UNL     1      -2.610  10.695  16.073  0.00  0.00    +0.000 OA
ENDROOT
BRANCH   1  18
ATOM     18  C   UNL     1      -1.635  12.212  18.685  0.00  0.00    +0.000 C 
ATOM     19  O   UNL     1      -1.497  13.422  18.893  0.00  0.00    +0.000 OA
BRANCH  18  22
ATOM     20  C   UNL     1       0.269   9.113  19.988  0.00  0.00    +0.000 C 
ATOM     21  C   UNL     1      -0.732  10.113  19.496  0.00  0.00    +0.000 C 
ATOM     22  C   UNL     1      -0.447  11.315  18.942  0.00  0.00    +0.000 C 
ATOM     23  C   UNL     1       0.955  11.780  18.741  0.00  0.00    +0.000 C 
ENDBRANCH  18  22
ENDBRANCH   1  18
BRANCH   6  24
ATOM     24  C   UNL     1      -4.854  15.722  23.095  0.00  0.00    +0.000 C 
ATOM     25  C   UNL     1      -4.201  16.892  23.007  0.00  0.00    +0.000 C 
BRANCH  25  26
ATOM     26  C   UNL     1      -4.405  18.010  24.003  0.00  0.00    +0.000 C 
ATOM     27  C   UNL     1      -5.163  17.522  25.238  0.00  0.00    +0.000 C 
BRANCH  26  28
ATOM     28  C   UNL     1      -3.042  18.607  24.403  0.00  0.00    +0.000 C 
ATOM     29  C   UNL     1      -2.277  17.728  25.389  0.00  0.00    +0.000 C 
ENDBRANCH  26  28
ENDBRANCH  25  26
ENDBRANCH   6  24
BRANCH   5  30
ATOM     30  C   UNL     1      -2.959  13.449  23.338  0.00  0.00    +0.000 C 
BRANCH  30  31
ATOM     31  C   UNL     1      -2.434  12.041  23.417  0.00  0.00    +0.000 C 
ATOM     32  C   UNL     1      -1.232  11.622  22.968  0.00  0.00    +0.000 C 
ATOM     33  C   UNL     1      -0.245  12.492  22.237  0.00  0.00    +0.000 C 
ATOM     34  C   UNL     1      -0.766  10.208  23.191  0.00  0.00    +0.000 C 
ENDBRANCH  30  31
ENDBRANCH   5  30
TORSDOF 7
ENDMDL
MODEL 9
REMARK VINA RESULT:      -6.9      5.407      9.292
REMARK  Name = 
REMARK  14 active torsions:
REMARK  status: ('A' for Active; 'I' for Inactive)
REMARK    1  A    between atoms: C_1  and  C_2
REMARK    2  A    between atoms: C_3  and  C_4
REMARK    3  A    between atoms: C_3  and  C_5
REMARK    4  A    between atoms: C_5  and  C_7
REMARK    5  A    between atoms: N_11  and  C_12
REMARK    6  A    between atoms: C_12  and  C_13
REMARK    7  A    between atoms: C_14  and  C_15
REMARK    8  A    between atoms: C_14  and  C_16
REMARK    9  A    between atoms: C_17  and  C_18
REMARK   10  A    between atoms: C_19  and  C_20
REMARK   11  A    between atoms: C_20  and  C_21
REMARK   12  A    between atoms: C_20  and  C_22
REMARK   13  A    between atoms: C_22  and  C_23
REMARK   14  A    between atoms: C_30  and  C_31
REMARK                            x       y       z     vdW  Elec       q    Type
REMARK                         _______ _______ _______ _____ _____    ______ ____
ROOT
ATOM      1  C   UNL     1      -3.497  11.699  18.386  0.00  0.00    +0.000 C 
ATOM      2  C   UNL     1      -4.622  12.198  18.927  0.00  0.00    +0.000 C 
ATOM      3  C   UNL     1      -4.843  12.901  20.167  0.00  0.00    +0.000 C 
ATOM      4  C   UNL     1      -4.373  12.459  21.349  0.00  0.00    +0.000 C 
ATOM      5  N   UNL     1      -4.413  13.174  22.554  0.00  0.00    +0.000 N 
ATOM      6  C   UNL     1      -4.977  14.478  22.539  0.00  0.00    +0.000 C 
ATOM      7  C   UNL     1      -5.574  14.969  21.426  0.00  0.00    +0.000 C 
ATOM      8  C   UNL     1      -5.617  14.162  20.198  0.00  0.00    +0.000 C 
ATOM      9  C   UNL     1      -6.285  14.547  19.085  0.00  0.00    +0.000 C 
ATOM     10 CL   UNL     1      -7.209  16.011  18.974  0.00  0.00    +0.000 Cl
ATOM     11  C   UNL     1      -6.264  13.697  17.837  0.00  0.00    +0.000 C 
ATOM     12  O   UNL     1      -6.681  14.139  16.765  0.00  0.00    +0.000 OA
ATOM     13  C   UNL     1      -5.745  12.247  17.964  0.00  0.00    +0.000 C 
ATOM     14  C   UNL     1      -6.909  11.319  18.312  0.00  0.00    +0.000 C 
ATOM     15  O   UNL     1      -5.166  11.760  16.766  0.00  0.00    +0.000 OA
ATOM     16  C   UNL     1      -3.875  11.396  16.999  0.00  0.00    +0.000 C 
ATOM     17  O   UNL     1      -3.166  10.926  16.128  0.00  0.00    +0.000 OA
ENDROOT
BRANCH   1  18
ATOM     18  C   UNL     1      -2.150  11.727  19.026  0.00  0.00    +0.000 C 
ATOM     19  O   UNL     1      -1.707  10.678  19.507  0.00  0.00    +0.000 OA
BRANCH  18  22
ATOM     20  C   UNL     1       1.080  13.821  18.705  0.00  0.00    +0.000 C 
ATOM     21  C   UNL     1      -0.023  12.811  18.611  0.00  0.00    +0.000 C 
ATOM     22  C   UNL     1      -1.277  12.956  19.099  0.00  0.00    +0.000 C 
ATOM     23  C   UNL     1      -1.714  14.199  19.798  0.00  0.00    +0.000 C 
ENDBRANCH  18  22
ENDBRANCH   1  18
BRANCH   6  24
ATOM     24  C   UNL     1      -4.833  15.351  23.695  0.00  0.00    +0.000 C 
ATOM     25  C   UNL     1      -3.854  16.250  23.882  0.00  0.00    +0.000 C 
BRANCH  25  26
ATOM     26  C   UNL     1      -3.869  17.237  25.027  0.00  0.00    +0.000 C 
ATOM     27  C   UNL     1      -2.466  17.443  25.601  0.00  0.00    +0.000 C 
BRANCH  26  28
ATOM     28  C   UNL     1      -4.463  18.577  24.554  0.00  0.00    +0.000 C 
ATOM     29  C   UNL     1      -5.984  18.627  24.675  0.00  0.00    +0.000 C 
ENDBRANCH  26  28
ENDBRANCH  25  26
ENDBRANCH   6  24
BRANCH   5  30
ATOM     30  C   UNL     1      -3.656  12.624  23.702  0.00  0.00    +0.000 C 
BRANCH  30  31
ATOM     31  C   UNL     1      -2.586  11.682  23.221  0.00  0.00    +0.000 C 
ATOM     32  C   UNL     1      -1.317  12.024  22.909  0.00  0.00    +0.000 C 
ATOM     33  C   UNL     1      -0.788  13.433  22.917  0.00  0.00    +0.000 C 
ATOM     34  C   UNL     1      -0.299  10.981  22.534  0.00  0.00    +0.000 C 
ENDBRANCH  30  31
ENDBRANCH   5  30
TORSDOF 7
ENDMDL
