MODEL 1
REMARK VINA RESULT:      -7.7      0.000      0.000
REMARK  Name = 
REMARK  4 active torsions:
REMARK  status: ('A' for Active; 'I' for Inactive)
REMARK    1  A    between atoms: C_1  and  C_2
REMARK    2  A    between atoms: N_4  and  C_5
REMARK    3  A    between atoms: C_9  and  N_10
REMARK    4  A    between atoms: N_13  and  C_14
REMARK                            x       y       z     vdW  Elec       q    Type
REMARK                         _______ _______ _______ _____ _____    ______ ____
ROOT
ATOM      1  N   UNL     1       7.002   7.977  17.096  0.00  0.00    +0.000 N 
ATOM      2  C   UNL     1       7.998   8.447  17.939  0.00  0.00    +0.000 C 
ATOM      3  O   UNL     1       8.645   7.750  18.712  0.00  0.00    +0.000 OA
ATOM      4  N   UNL     1       8.162   9.822  17.825  0.00  0.00    +0.000 N 
ATOM      5  H   UNL     1       6.871   8.499  16.241  0.00  0.00    +0.000 HD
ATOM      6  H   UNL     1       7.302  10.332  17.671  0.00  0.00    +0.000 HD
ENDROOT
BRANCH   4   7
ATOM      7  C   UNL     1       9.181  10.500  18.540  0.00  0.00    +0.000 A 
ATOM      8  C   UNL     1       9.131  10.626  19.936  0.00  0.00    +0.000 A 
ATOM      9  C   UNL     1      10.125  11.328  20.626  0.00  0.00    +0.000 A 
ATOM     10  C   UNL     1      11.171  11.917  19.922  0.00  0.00    +0.000 A 
ATOM     11  C   UNL     1      11.222  11.778  18.536  0.00  0.00    +0.000 A 
ATOM     12  F   UNL     1      12.213  12.369  17.857  0.00  0.00    +0.000 F 
ATOM     13  C   UNL     1      10.252  11.058  17.840  0.00  0.00    +0.000 A 
ENDBRANCH   4   7
BRANCH   1  18
ATOM     14  C   UNL     1       4.849   5.144  18.232  0.00  0.00    +0.000 A 
ATOM     15  C   UNL     1       5.304   4.123  17.396  0.00  0.00    +0.000 A 
ATOM     16  C   UNL     1       6.320   4.361  16.478  0.00  0.00    +0.000 A 
ATOM     17  C   UNL     1       6.883   5.629  16.379  0.00  0.00    +0.000 A 
ATOM     18  C   UNL     1       6.425   6.681  17.176  0.00  0.00    +0.000 A 
ATOM     19  C   UNL     1       5.406   6.432  18.104  0.00  0.00    +0.000 A 
BRANCH  14  23
ATOM     20  C   UNL     1       1.651   4.733  20.204  0.00  0.00    +0.000 C 
ATOM     21  C   UNL     1       2.468   4.935  18.955  0.00  0.00    +0.000 C 
ATOM     22  O   UNL     1       1.914   5.070  17.870  0.00  0.00    +0.000 OA
ATOM     23  N   UNL     1       3.835   4.930  19.197  0.00  0.00    +0.000 N 
ATOM     24  H   UNL     1       4.138   4.661  20.124  0.00  0.00    +0.000 HD
ENDBRANCH  14  23
ENDBRANCH   1  18
TORSDOF 3
ENDMDL
MODEL 2
REMARK VINA RESULT:      -7.4      1.034      1.468
REMARK  Name = 
REMARK  4 active torsions:
REMARK  status: ('A' for Active; 'I' for Inactive)
REMARK    1  A    between atoms: C_1  and  C_2
REMARK    2  A    between atoms: N_4  and  C_5
REMARK    3  A    between atoms: C_9  and  N_10
REMARK    4  A    between atoms: N_13  and  C_14
REMARK                            x       y       z     vdW  Elec       q    Type
REMARK                         _______ _______ _______ _____ _____    ______ ____
ROOT
ATOM      1  N   UNL     1       7.088   8.053  17.091  0.00  0.00    +0.000 N 
ATOM      2  C   UNL     1       8.065   8.556  17.939  0.00  0.00    +0.000 C 
ATOM      3  O   UNL     1       8.694   7.890  18.752  0.00  0.00    +0.000 OA
ATOM      4  N   UNL     1       8.231   9.926  17.777  0.00  0.00    +0.000 N 
ATOM      5  H   UNL     1       6.976   8.542  16.215  0.00  0.00    +0.000 HD
ATOM      6  H   UNL     1       7.375  10.428  17.584  0.00  0.00    +0.000 HD
ENDROOT
BRANCH   4   7
ATOM      7  C   UNL     1       9.233  10.631  18.488  0.00  0.00    +0.000 A 
ATOM      8  C   UNL     1      10.431  11.018  17.869  0.00  0.00    +0.000 A 
ATOM      9  C   UNL     1      11.427  11.683  18.592  0.00  0.00    +0.000 A 
ATOM     10  C   UNL     1      11.235  11.956  19.943  0.00  0.00    +0.000 A 
ATOM     11  C   UNL     1      10.038  11.581  20.550  0.00  0.00    +0.000 A 
ATOM     12  F   UNL     1       9.866  11.819  21.856  0.00  0.00    +0.000 F 
ATOM     13  C   UNL     1       9.027  10.942  19.833  0.00  0.00    +0.000 A 
ENDBRANCH   4   7
BRANCH   1  18
ATOM     14  C   UNL     1       4.933   5.254  18.307  0.00  0.00    +0.000 A 
ATOM     15  C   UNL     1       5.386   4.211  17.498  0.00  0.00    +0.000 A 
ATOM     16  C   UNL     1       6.401   4.423  16.572  0.00  0.00    +0.000 A 
ATOM     17  C   UNL     1       6.965   5.687  16.438  0.00  0.00    +0.000 A 
ATOM     18  C   UNL     1       6.510   6.761  17.207  0.00  0.00    +0.000 A 
ATOM     19  C   UNL     1       5.492   6.538  18.144  0.00  0.00    +0.000 A 
BRANCH  14  23
ATOM     20  C   UNL     1       1.739   4.908  20.297  0.00  0.00    +0.000 C 
ATOM     21  C   UNL     1       2.554   5.078  19.041  0.00  0.00    +0.000 C 
ATOM     22  O   UNL     1       1.997   5.193  17.955  0.00  0.00    +0.000 OA
ATOM     23  N   UNL     1       3.921   5.068  19.280  0.00  0.00    +0.000 N 
ATOM     24  H   UNL     1       4.225   4.817  20.211  0.00  0.00    +0.000 HD
ENDBRANCH  14  23
ENDBRANCH   1  18
TORSDOF 3
ENDMDL
MODEL 3
REMARK VINA RESULT:      -7.4      1.789      1.859
REMARK  Name = 
REMARK  4 active torsions:
REMARK  status: ('A' for Active; 'I' for Inactive)
REMARK    1  A    between atoms: C_1  and  C_2
REMARK    2  A    between atoms: N_4  and  C_5
REMARK    3  A    between atoms: C_9  and  N_10
REMARK    4  A    between atoms: N_13  and  C_14
REMARK                            x       y       z     vdW  Elec       q    Type
REMARK                         _______ _______ _______ _____ _____    ______ ____
ROOT
ATOM      1  N   UNL     1       8.362   7.561  18.885  0.00  0.00    +0.000 N 
ATOM      2  C   UNL     1       8.427   8.899  18.522  0.00  0.00    +0.000 C 
ATOM      3  O   UNL     1       7.675   9.443  17.723  0.00  0.00    +0.000 OA
ATOM      4  N   UNL     1       9.476   9.554  19.156  0.00  0.00    +0.000 N 
ATOM      5  H   UNL     1       8.692   7.345  19.815  0.00  0.00    +0.000 HD
ATOM      6  H   UNL     1      10.305   8.988  19.280  0.00  0.00    +0.000 HD
ENDROOT
BRANCH   4   7
ATOM      7  C   UNL     1       9.677  10.946  18.989  0.00  0.00    +0.000 A 
ATOM      8  C   UNL     1       9.250  11.866  19.958  0.00  0.00    +0.000 A 
ATOM      9  C   UNL     1       9.424  13.241  19.765  0.00  0.00    +0.000 A 
ATOM     10  C   UNL     1      10.017  13.705  18.595  0.00  0.00    +0.000 A 
ATOM     11  C   UNL     1      10.451  12.786  17.641  0.00  0.00    +0.000 A 
ATOM     12  F   UNL     1      10.996  13.235  16.503  0.00  0.00    +0.000 F 
ATOM     13  C   UNL     1      10.308  11.413  17.834  0.00  0.00    +0.000 A 
ENDBRANCH   4   7
BRANCH   1  18
ATOM     14  C   UNL     1       6.202   4.570  18.305  0.00  0.00    +0.000 A 
ATOM     15  C   UNL     1       6.081   4.605  16.914  0.00  0.00    +0.000 A 
ATOM     16  C   UNL     1       6.716   5.596  16.174  0.00  0.00    +0.000 A 
ATOM     17  C   UNL     1       7.471   6.569  16.820  0.00  0.00    +0.000 A 
ATOM     18  C   UNL     1       7.582   6.583  18.214  0.00  0.00    +0.000 A 
ATOM     19  C   UNL     1       6.945   5.577  18.952  0.00  0.00    +0.000 A 
BRANCH  14  23
ATOM     20  C   UNL     1       3.925   2.334  20.328  0.00  0.00    +0.000 C 
ATOM     21  C   UNL     1       4.250   3.505  19.440  0.00  0.00    +0.000 C 
ATOM     22  O   UNL     1       3.366   4.281  19.093  0.00  0.00    +0.000 OA
ATOM     23  N   UNL     1       5.591   3.560  19.087  0.00  0.00    +0.000 N 
ATOM     24  H   UNL     1       6.166   2.765  19.334  0.00  0.00    +0.000 HD
ENDBRANCH  14  23
ENDBRANCH   1  18
TORSDOF 3
ENDMDL
MODEL 4
REMARK VINA RESULT:      -7.2      5.567      6.749
REMARK  Name = 
REMARK  4 active torsions:
REMARK  status: ('A' for Active; 'I' for Inactive)
REMARK    1  A    between atoms: C_1  and  C_2
REMARK    2  A    between atoms: N_4  and  C_5
REMARK    3  A    between atoms: C_9  and  N_10
REMARK    4  A    between atoms: N_13  and  C_14
REMARK                            x       y       z     vdW  Elec       q    Type
REMARK                         _______ _______ _______ _____ _____    ______ ____
ROOT
ATOM      1  N   UNL     1       4.993   4.090  18.252  0.00  0.00    +0.000 N 
ATOM      2  C   UNL     1       5.000   4.246  16.873  0.00  0.00    +0.000 C 
ATOM      3  O   UNL     1       4.035   4.596  16.205  0.00  0.00    +0.000 OA
ATOM      4  N   UNL     1       6.238   3.929  16.326  0.00  0.00    +0.000 N 
ATOM      5  H   UNL     1       5.878   4.244  18.714  0.00  0.00    +0.000 HD
ATOM      6  H   UNL     1       6.710   3.161  16.784  0.00  0.00    +0.000 HD
ENDROOT
BRANCH   4   7
ATOM      7  C   UNL     1       6.490   4.094  14.942  0.00  0.00    +0.000 A 
ATOM      8  C   UNL     1       5.802   3.339  13.980  0.00  0.00    +0.000 A 
ATOM      9  C   UNL     1       6.085   3.487  12.618  0.00  0.00    +0.000 A 
ATOM     10  C   UNL     1       7.067   4.383  12.210  0.00  0.00    +0.000 A 
ATOM     11  C   UNL     1       7.739   5.140  13.168  0.00  0.00    +0.000 A 
ATOM     12  F   UNL     1       8.705   5.982  12.776  0.00  0.00    +0.000 F 
ATOM     13  C   UNL     1       7.447   5.021  14.526  0.00  0.00    +0.000 A 
ENDBRANCH   4   7
BRANCH   1  18
ATOM     14  C   UNL     1       2.237   5.265  20.484  0.00  0.00    +0.000 A 
ATOM     15  C   UNL     1       1.542   4.071  20.685  0.00  0.00    +0.000 A 
ATOM     16  C   UNL     1       1.985   2.888  20.104  0.00  0.00    +0.000 A 
ATOM     17  C   UNL     1       3.123   2.891  19.305  0.00  0.00    +0.000 A 
ATOM     18  C   UNL     1       3.821   4.076  19.054  0.00  0.00    +0.000 A 
ATOM     19  C   UNL     1       3.373   5.263  19.649  0.00  0.00    +0.000 A 
BRANCH  14  23
ATOM     20  C   UNL     1       1.330   8.825  21.370  0.00  0.00    +0.000 C 
ATOM     21  C   UNL     1       1.737   7.710  20.442  0.00  0.00    +0.000 C 
ATOM     22  O   UNL     1       1.934   7.938  19.253  0.00  0.00    +0.000 OA
ATOM     23  N   UNL     1       1.831   6.483  21.082  0.00  0.00    +0.000 N 
ATOM     24  H   UNL     1       1.495   6.432  22.035  0.00  0.00    +0.000 HD
ENDBRANCH  14  23
ENDBRANCH   1  18
TORSDOF 3
ENDMDL
MODEL 5
REMARK VINA RESULT:      -7.2      6.598      8.955
REMARK  Name = 
REMARK  4 active torsions:
REMARK  status: ('A' for Active; 'I' for Inactive)
REMARK    1  A    between atoms: C_1  and  C_2
REMARK    2  A    between atoms: N_4  and  C_5
REMARK    3  A    between atoms: C_9  and  N_10
REMARK    4  A    between atoms: N_13  and  C_14
REMARK                            x       y       z     vdW  Elec       q    Type
REMARK                         _______ _______ _______ _____ _____    ______ ____
ROOT
ATOM      1  N   UNL     1       1.385   9.467  19.356  0.00  0.00    +0.000 N 
ATOM      2  C   UNL     1       1.961   8.587  18.451  0.00  0.00    +0.000 C 
ATOM      3  O   UNL     1       2.170   8.837  17.271  0.00  0.00    +0.000 OA
ATOM      4  N   UNL     1       2.253   7.362  19.040  0.00  0.00    +0.000 N 
ATOM      5  H   UNL     1       1.664   9.349  20.319  0.00  0.00    +0.000 HD
ATOM      6  H   UNL     1       1.576   7.061  19.729  0.00  0.00    +0.000 HD
ENDROOT
BRANCH   4   7
ATOM      7  C   UNL     1       2.918   6.342  18.316  0.00  0.00    +0.000 A 
ATOM      8  C   UNL     1       4.193   6.550  17.769  0.00  0.00    +0.000 A 
ATOM      9  C   UNL     1       4.824   5.546  17.027  0.00  0.00    +0.000 A 
ATOM     10  C   UNL     1       4.179   4.331  16.818  0.00  0.00    +0.000 A 
ATOM     11  C   UNL     1       2.918   4.126  17.374  0.00  0.00    +0.000 A 
ATOM     12  F   UNL     1       2.286   2.967  17.149  0.00  0.00    +0.000 F 
ATOM     13  C   UNL     1       2.290   5.108  18.139  0.00  0.00    +0.000 A 
ENDBRANCH   4   7
BRANCH   1  18
ATOM     14  C   UNL     1      -1.281  11.860  18.298  0.00  0.00    +0.000 A 
ATOM     15  C   UNL     1      -0.551  13.049  18.236  0.00  0.00    +0.000 A 
ATOM     16  C   UNL     1       0.809  13.059  18.524  0.00  0.00    +0.000 A 
ATOM     17  C   UNL     1       1.450  11.880  18.891  0.00  0.00    +0.000 A 
ATOM     18  C   UNL     1       0.739  10.681  18.998  0.00  0.00    +0.000 A 
ATOM     19  C   UNL     1      -0.629  10.677  18.698  0.00  0.00    +0.000 A 
BRANCH  14  23
ATOM     20  C   UNL     1      -4.707  11.463  16.754  0.00  0.00    +0.000 C 
ATOM     21  C   UNL     1      -3.208  11.329  16.802  0.00  0.00    +0.000 C 
ATOM     22  O   UNL     1      -2.603  10.824  15.863  0.00  0.00    +0.000 OA
ATOM     23  N   UNL     1      -2.661  11.808  17.984  0.00  0.00    +0.000 N 
ATOM     24  H   UNL     1      -3.306  12.059  18.723  0.00  0.00    +0.000 HD
ENDBRANCH  14  23
ENDBRANCH   1  18
TORSDOF 3
ENDMDL
MODEL 6
REMARK VINA RESULT:      -7.2      5.918      7.046
REMARK  Name = 
REMARK  4 active torsions:
REMARK  status: ('A' for Active; 'I' for Inactive)
REMARK    1  A    between atoms: C_1  and  C_2
REMARK    2  A    between atoms: N_4  and  C_5
REMARK    3  A    between atoms: C_9  and  N_10
REMARK    4  A    between atoms: N_13  and  C_14
REMARK                            x       y       z     vdW  Elec       q    Type
REMARK                         _______ _______ _______ _____ _____    ______ ____
ROOT
ATOM      1  N   UNL     1       4.934   3.769  18.313  0.00  0.00    +0.000 N 
ATOM      2  C   UNL     1       5.010   4.108  16.970  0.00  0.00    +0.000 C 
ATOM      3  O   UNL     1       4.130   4.687  16.345  0.00  0.00    +0.000 OA
ATOM      4  N   UNL     1       6.206   3.686  16.399  0.00  0.00    +0.000 N 
ATOM      5  H   UNL     1       5.816   3.724  18.803  0.00  0.00    +0.000 HD
ATOM      6  H   UNL     1       6.544   2.800  16.752  0.00  0.00    +0.000 HD
ENDROOT
BRANCH   4   7
ATOM      7  C   UNL     1       6.525   3.998  15.056  0.00  0.00    +0.000 A 
ATOM      8  C   UNL     1       7.460   4.995  14.741  0.00  0.00    +0.000 A 
ATOM      9  C   UNL     1       7.742   5.317  13.409  0.00  0.00    +0.000 A 
ATOM     10  C   UNL     1       7.080   4.650  12.382  0.00  0.00    +0.000 A 
ATOM     11  C   UNL     1       6.161   3.652  12.700  0.00  0.00    +0.000 A 
ATOM     12  F   UNL     1       5.505   3.030  11.712  0.00  0.00    +0.000 F 
ATOM     13  C   UNL     1       5.893   3.303  14.023  0.00  0.00    +0.000 A 
ENDBRANCH   4   7
BRANCH   1  18
ATOM     14  C   UNL     1       2.183   5.112  20.454  0.00  0.00    +0.000 A 
ATOM     15  C   UNL     1       1.438   3.952  20.674  0.00  0.00    +0.000 A 
ATOM     16  C   UNL     1       1.846   2.737  20.136  0.00  0.00    +0.000 A 
ATOM     17  C   UNL     1       2.999   2.673  19.360  0.00  0.00    +0.000 A 
ATOM     18  C   UNL     1       3.747   3.823  19.091  0.00  0.00    +0.000 A 
ATOM     19  C   UNL     1       3.333   5.043  19.643  0.00  0.00    +0.000 A 
BRANCH  14  23
ATOM     20  C   UNL     1       1.417   8.731  21.227  0.00  0.00    +0.000 C 
ATOM     21  C   UNL     1       1.808   7.578  20.341  0.00  0.00    +0.000 C 
ATOM     22  O   UNL     1       2.069   7.769  19.158  0.00  0.00    +0.000 OA
ATOM     23  N   UNL     1       1.812   6.361  21.009  0.00  0.00    +0.000 N 
ATOM     24  H   UNL     1       1.431   6.347  21.946  0.00  0.00    +0.000 HD
ENDBRANCH  14  23
ENDBRANCH   1  18
TORSDOF 3
ENDMDL
MODEL 7
REMARK VINA RESULT:      -7.1      1.926      2.219
REMARK  Name = 
REMARK  4 active torsions:
REMARK  status: ('A' for Active; 'I' for Inactive)
REMARK    1  A    between atoms: C_1  and  C_2
REMARK    2  A    between atoms: N_4  and  C_5
REMARK    3  A    between atoms: C_9  and  N_10
REMARK    4  A    between atoms: N_13  and  C_14
REMARK                            x       y       z     vdW  Elec       q    Type
REMARK                         _______ _______ _______ _____ _____    ______ ____
ROOT
ATOM      1  N   UNL     1       8.333   7.470  18.853  0.00  0.00    +0.000 N 
ATOM      2  C   UNL     1       8.387   8.816  18.521  0.00  0.00    +0.000 C 
ATOM      3  O   UNL     1       7.620   9.376  17.747  0.00  0.00    +0.000 OA
ATOM      4  N   UNL     1       9.443   9.461  19.155  0.00  0.00    +0.000 N 
ATOM      5  H   UNL     1       8.678   7.233  19.772  0.00  0.00    +0.000 HD
ATOM      6  H   UNL     1      10.276   8.896  19.252  0.00  0.00    +0.000 HD
ENDROOT
BRANCH   4   7
ATOM      7  C   UNL     1       9.636  10.857  19.018  0.00  0.00    +0.000 A 
ATOM      8  C   UNL     1      10.154  11.409  17.837  0.00  0.00    +0.000 A 
ATOM      9  C   UNL     1      10.373  12.787  17.726  0.00  0.00    +0.000 A 
ATOM     10  C   UNL     1      10.085  13.620  18.803  0.00  0.00    +0.000 A 
ATOM     11  C   UNL     1       9.558  13.068  19.969  0.00  0.00    +0.000 A 
ATOM     12  F   UNL     1       9.308  13.868  21.015  0.00  0.00    +0.000 F 
ATOM     13  C   UNL     1       9.311  11.701  20.081  0.00  0.00    +0.000 A 
ENDBRANCH   4   7
BRANCH   1  18
ATOM     14  C   UNL     1       6.089   4.546  18.247  0.00  0.00    +0.000 A 
ATOM     15  C   UNL     1       6.030   4.552  16.852  0.00  0.00    +0.000 A 
ATOM     16  C   UNL     1       6.734   5.499  16.118  0.00  0.00    +0.000 A 
ATOM     17  C   UNL     1       7.495   6.460  16.774  0.00  0.00    +0.000 A 
ATOM     18  C   UNL     1       7.547   6.504  18.171  0.00  0.00    +0.000 A 
ATOM     19  C   UNL     1       6.840   5.541  18.904  0.00  0.00    +0.000 A 
BRANCH  14  23
ATOM     20  C   UNL     1       3.684   2.504  20.327  0.00  0.00    +0.000 C 
ATOM     21  C   UNL     1       4.097   3.673  19.472  0.00  0.00    +0.000 C 
ATOM     22  O   UNL     1       3.299   4.572  19.228  0.00  0.00    +0.000 OA
ATOM     23  N   UNL     1       5.407   3.579  19.025  0.00  0.00    +0.000 N 
ATOM     24  H   UNL     1       5.890   2.706  19.191  0.00  0.00    +0.000 HD
ENDBRANCH  14  23
ENDBRANCH   1  18
TORSDOF 3
ENDMDL
MODEL 8
REMARK VINA RESULT:      -7.1      6.236      8.676
REMARK  Name = 
REMARK  4 active torsions:
REMARK  status: ('A' for Active; 'I' for Inactive)
REMARK    1  A    between atoms: C_1  and  C_2
REMARK    2  A    between atoms: N_4  and  C_5
REMARK    3  A    between atoms: C_9  and  N_10
REMARK    4  A    between atoms: N_13  and  C_14
REMARK                            x       y       z     vdW  Elec       q    Type
REMARK                         _______ _______ _______ _____ _____    ______ ____
ROOT
ATOM      1  N   UNL     1       1.405   9.497  19.346  0.00  0.00    +0.000 N 
ATOM      2  C   UNL     1       1.927   8.591  18.434  0.00  0.00    +0.000 C 
ATOM      3  O   UNL     1       2.076   8.811  17.238  0.00  0.00    +0.000 OA
ATOM      4  N   UNL     1       2.241   7.378  19.036  0.00  0.00    +0.000 N 
ATOM      5  H   UNL     1       1.733   9.399  20.296  0.00  0.00    +0.000 HD
ATOM      6  H   UNL     1       1.600   7.099  19.767  0.00  0.00    +0.000 HD
ENDROOT
BRANCH   4   7
ATOM      7  C   UNL     1       2.861   6.336  18.304  0.00  0.00    +0.000 A 
ATOM      8  C   UNL     1       2.213   5.111  18.089  0.00  0.00    +0.000 A 
ATOM      9  C   UNL     1       2.849   4.077  17.394  0.00  0.00    +0.000 A 
ATOM     10  C   UNL     1       4.144   4.260  16.917  0.00  0.00    +0.000 A 
ATOM     11  C   UNL     1       4.779   5.483  17.122  0.00  0.00    +0.000 A 
ATOM     12  F   UNL     1       6.035   5.648  16.689  0.00  0.00    +0.000 F 
ATOM     13  C   UNL     1       4.144   6.530  17.790  0.00  0.00    +0.000 A 
ENDBRANCH   4   7
BRANCH   1  18
ATOM     14  C   UNL     1      -1.284  11.875  18.312  0.00  0.00    +0.000 A 
ATOM     15  C   UNL     1      -0.561  13.067  18.241  0.00  0.00    +0.000 A 
ATOM     16  C   UNL     1       0.802  13.084  18.516  0.00  0.00    +0.000 A 
ATOM     17  C   UNL     1       1.452  11.910  18.878  0.00  0.00    +0.000 A 
ATOM     18  C   UNL     1       0.749  10.706  18.993  0.00  0.00    +0.000 A 
ATOM     19  C   UNL     1      -0.622  10.695  18.707  0.00  0.00    +0.000 A 
BRANCH  14  23
ATOM     20  C   UNL     1      -4.722  11.509  16.786  0.00  0.00    +0.000 C 
ATOM     21  C   UNL     1      -3.220  11.402  16.808  0.00  0.00    +0.000 C 
ATOM     22  O   UNL     1      -2.618  10.973  15.830  0.00  0.00    +0.000 OA
ATOM     23  N   UNL     1      -2.667  11.815  18.012  0.00  0.00    +0.000 N 
ATOM     24  H   UNL     1      -3.306  12.004  18.773  0.00  0.00    +0.000 HD
ENDBRANCH  14  23
ENDBRANCH   1  18
TORSDOF 3
ENDMDL
MODEL 9
REMARK VINA RESULT:      -7.1      1.749      2.045
REMARK  Name = 
REMARK  4 active torsions:
REMARK  status: ('A' for Active; 'I' for Inactive)
REMARK    1  A    between atoms: C_1  and  C_2
REMARK    2  A    between atoms: N_4  and  C_5
REMARK    3  A    between atoms: C_9  and  N_10
REMARK    4  A    between atoms: N_13  and  C_14
REMARK                            x       y       z     vdW  Elec       q    Type
REMARK                         _______ _______ _______ _____ _____    ______ ____
ROOT
ATOM      1  N   UNL     1       7.668   6.860  18.288  0.00  0.00    +0.000 N 
ATOM      2  C   UNL     1       7.899   8.221  18.148  0.00  0.00    +0.000 C 
ATOM      3  O   UNL     1       7.278   8.961  17.395  0.00  0.00    +0.000 OA
ATOM      4  N   UNL     1       8.949   8.650  18.952  0.00  0.00    +0.000 N 
ATOM      5  H   UNL     1       7.892   6.469  19.192  0.00  0.00    +0.000 HD
ATOM      6  H   UNL     1       9.703   7.981  19.042  0.00  0.00    +0.000 HD
ENDROOT
BRANCH   4   7
ATOM      7  C   UNL     1       9.303  10.019  19.024  0.00  0.00    +0.000 A 
ATOM      8  C   UNL     1       9.597  10.758  17.869  0.00  0.00    +0.000 A 
ATOM      9  C   UNL     1       9.979  12.101  17.956  0.00  0.00    +0.000 A 
ATOM     10  C   UNL     1      10.081  12.711  19.203  0.00  0.00    +0.000 A 
ATOM     11  C   UNL     1       9.776  11.976  20.347  0.00  0.00    +0.000 A 
ATOM     12  F   UNL     1       9.903  12.555  21.548  0.00  0.00    +0.000 F 
ATOM     13  C   UNL     1       9.368  10.645  20.270  0.00  0.00    +0.000 A 
ENDBRANCH   4   7
BRANCH   1  18
ATOM     14  C   UNL     1       4.720   4.999  16.944  0.00  0.00    +0.000 A 
ATOM     15  C   UNL     1       5.243   4.523  15.740  0.00  0.00    +0.000 A 
ATOM     16  C   UNL     1       6.558   4.799  15.382  0.00  0.00    +0.000 A 
ATOM     17  C   UNL     1       7.360   5.566  16.220  0.00  0.00    +0.000 A 
ATOM     18  C   UNL     1       6.855   6.088  17.415  0.00  0.00    +0.000 A 
ATOM     19  C   UNL     1       5.532   5.800  17.773  0.00  0.00    +0.000 A 
BRANCH  14  23
ATOM     20  C   UNL     1       1.461   3.503  18.134  0.00  0.00    +0.000 C 
ATOM     21  C   UNL     1       2.938   3.498  17.840  0.00  0.00    +0.000 C 
ATOM     22  O   UNL     1       3.606   2.491  18.048  0.00  0.00    +0.000 OA
ATOM     23  N   UNL     1       3.395   4.715  17.353  0.00  0.00    +0.000 N 
ATOM     24  H   UNL     1       2.749   5.494  17.376  0.00  0.00    +0.000 HD
ENDBRANCH  14  23
ENDBRANCH   1  18
TORSDOF 3
ENDMDL
