MODEL 1
REMARK VINA RESULT:      -8.0      0.000      0.000
REMARK  Name = 
REMARK  4 active torsions:
REMARK  status: ('A' for Active; 'I' for Inactive)
REMARK    1  A    between atoms: C_6  and  N_7
REMARK    2  A    between atoms: N_10  and  C_11
REMARK    3  A    between atoms: C_11  and  C_12
REMARK    4  A    between atoms: C_12  and  C_13
REMARK                            x       y       z     vdW  Elec       q    Type
REMARK                         _______ _______ _______ _____ _____    ______ ____
ROOT
ATOM      1  N   UNL     1       6.402   5.056  15.731  0.00  0.00    +0.000 N 
ATOM      2  C   UNL     1       7.209   4.438  16.791  0.00  0.00    +0.000 C 
ATOM      3  C   UNL     1       7.365   5.437  17.963  0.00  0.00    +0.000 C 
ATOM      4  N   UNL     1       6.097   5.980  18.511  0.00  0.00    +0.000 NA
ATOM      5  C   UNL     1       5.328   6.558  17.375  0.00  0.00    +0.000 C 
ATOM      6  C   UNL     1       5.108   5.601  16.175  0.00  0.00    +0.000 C 
ENDROOT
BRANCH   1  12
ATOM      7 CL   UNL     1       5.409   2.205  11.569  0.00  0.00    +0.000 Cl
ATOM      8  C   UNL     1       6.257   3.468  12.376  0.00  0.00    +0.000 A 
ATOM      9  C   UNL     1       7.251   4.168  11.700  0.00  0.00    +0.000 A 
ATOM     10  C   UNL     1       7.935   5.183  12.359  0.00  0.00    +0.000 A 
ATOM     11  C   UNL     1       7.618   5.482  13.686  0.00  0.00    +0.000 A 
ATOM     12  C   UNL     1       6.627   4.784  14.395  0.00  0.00    +0.000 A 
ATOM     13  C   UNL     1       5.949   3.769  13.706  0.00  0.00    +0.000 A 
ENDBRANCH   1  12
BRANCH   4  14
ATOM     14  C   UNL     1       5.291   4.966  19.216  0.00  0.00    +0.000 C 
BRANCH  14  15
ATOM     15  C   UNL     1       3.896   5.465  19.630  0.00  0.00    +0.000 C 
BRANCH  15  16
ATOM     16  C   UNL     1       2.847   4.405  19.405  0.00  0.00    +0.000 A 
ATOM     17  C   UNL     1       2.940   3.539  18.305  0.00  0.00    +0.000 A 
ATOM     18  C   UNL     1       1.962   2.569  18.087  0.00  0.00    +0.000 A 
ATOM     19  C   UNL     1       0.880   2.464  18.959  0.00  0.00    +0.000 A 
ATOM     20  C   UNL     1       0.777   3.325  20.052  0.00  0.00    +0.000 A 
ATOM     21  C   UNL     1       1.753   4.293  20.272  0.00  0.00    +0.000 A 
ENDBRANCH  15  16
ENDBRANCH  14  15
ENDBRANCH   4  14
TORSDOF 4
ENDMDL
MODEL 2
REMARK VINA RESULT:      -8.0      0.363      1.044
REMARK  Name = 
REMARK  4 active torsions:
REMARK  status: ('A' for Active; 'I' for Inactive)
REMARK    1  A    between atoms: C_6  and  N_7
REMARK    2  A    between atoms: N_10  and  C_11
REMARK    3  A    between atoms: C_11  and  C_12
REMARK    4  A    between atoms: C_12  and  C_13
REMARK                            x       y       z     vdW  Elec       q    Type
REMARK                         _______ _______ _______ _____ _____    ______ ____
ROOT
ATOM      1  N   UNL     1       6.382   5.090  15.734  0.00  0.00    +0.000 N 
ATOM      2  C   UNL     1       7.133   4.431  16.810  0.00  0.00    +0.000 C 
ATOM      3  C   UNL     1       7.327   5.425  17.981  0.00  0.00    +0.000 C 
ATOM      4  N   UNL     1       6.083   6.044  18.505  0.00  0.00    +0.000 NA
ATOM      5  C   UNL     1       5.369   6.659  17.353  0.00  0.00    +0.000 C 
ATOM      6  C   UNL     1       5.115   5.711  16.154  0.00  0.00    +0.000 C 
ENDROOT
BRANCH   1  12
ATOM      7 CL   UNL     1       5.386   2.200  11.599  0.00  0.00    +0.000 Cl
ATOM      8  C   UNL     1       6.243   3.462  12.397  0.00  0.00    +0.000 A 
ATOM      9  C   UNL     1       7.251   4.142  11.721  0.00  0.00    +0.000 A 
ATOM     10  C   UNL     1       7.941   5.158  12.372  0.00  0.00    +0.000 A 
ATOM     11  C   UNL     1       7.618   5.476  13.693  0.00  0.00    +0.000 A 
ATOM     12  C   UNL     1       6.614   4.798  14.403  0.00  0.00    +0.000 A 
ATOM     13  C   UNL     1       5.929   3.784  13.722  0.00  0.00    +0.000 A 
ENDBRANCH   1  12
BRANCH   4  14
ATOM     14  C   UNL     1       5.208   5.081  19.199  0.00  0.00    +0.000 C 
BRANCH  14  15
ATOM     15  C   UNL     1       3.859   5.677  19.635  0.00  0.00    +0.000 C 
BRANCH  15  16
ATOM     16  C   UNL     1       2.754   4.654  19.545  0.00  0.00    +0.000 A 
ATOM     17  C   UNL     1       2.131   4.181  20.710  0.00  0.00    +0.000 A 
ATOM     18  C   UNL     1       1.120   3.223  20.629  0.00  0.00    +0.000 A 
ATOM     19  C   UNL     1       0.732   2.726  19.388  0.00  0.00    +0.000 A 
ATOM     20  C   UNL     1       1.348   3.189  18.225  0.00  0.00    +0.000 A 
ATOM     21  C   UNL     1       2.357   4.145  18.304  0.00  0.00    +0.000 A 
ENDBRANCH  15  16
ENDBRANCH  14  15
ENDBRANCH   4  14
TORSDOF 4
ENDMDL
MODEL 3
REMARK VINA RESULT:      -7.7      1.218      1.450
REMARK  Name = 
REMARK  4 active torsions:
REMARK  status: ('A' for Active; 'I' for Inactive)
REMARK    1  A    between atoms: C_6  and  N_7
REMARK    2  A    between atoms: N_10  and  C_11
REMARK    3  A    between atoms: C_11  and  C_12
REMARK    4  A    between atoms: C_12  and  C_13
REMARK                            x       y       z     vdW  Elec       q    Type
REMARK                         _______ _______ _______ _____ _____    ______ ____
ROOT
ATOM      1  N   UNL     1       5.479   5.126  15.528  0.00  0.00    +0.000 N 
ATOM      2  C   UNL     1       4.714   4.190  16.363  0.00  0.00    +0.000 C 
ATOM      3  C   UNL     1       4.958   4.521  17.857  0.00  0.00    +0.000 C 
ATOM      4  N   UNL     1       4.686   5.926  18.250  0.00  0.00    +0.000 NA
ATOM      5  C   UNL     1       5.470   6.807  17.342  0.00  0.00    +0.000 C 
ATOM      6  C   UNL     1       5.252   6.551  15.829  0.00  0.00    +0.000 C 
ENDROOT
BRANCH   1  12
ATOM      7 CL   UNL     1       5.376   2.046  11.413  0.00  0.00    +0.000 Cl
ATOM      8  C   UNL     1       6.084   3.307  12.346  0.00  0.00    +0.000 A 
ATOM      9  C   UNL     1       7.273   3.891  11.922  0.00  0.00    +0.000 A 
ATOM     10  C   UNL     1       7.842   4.906  12.682  0.00  0.00    +0.000 A 
ATOM     11  C   UNL     1       7.216   5.321  13.859  0.00  0.00    +0.000 A 
ATOM     12  C   UNL     1       6.021   4.742  14.317  0.00  0.00    +0.000 A 
ATOM     13  C   UNL     1       5.465   3.725  13.529  0.00  0.00    +0.000 A 
ENDBRANCH   1  12
BRANCH   4  14
ATOM     14  C   UNL     1       3.254   6.274  18.198  0.00  0.00    +0.000 C 
BRANCH  14  15
ATOM     15  C   UNL     1       2.576   6.306  19.578  0.00  0.00    +0.000 C 
BRANCH  15  16
ATOM     16  C   UNL     1       2.117   4.931  19.994  0.00  0.00    +0.000 A 
ATOM     17  C   UNL     1       1.408   4.120  19.095  0.00  0.00    +0.000 A 
ATOM     18  C   UNL     1       0.968   2.854  19.485  0.00  0.00    +0.000 A 
ATOM     19  C   UNL     1       1.225   2.396  20.775  0.00  0.00    +0.000 A 
ATOM     20  C   UNL     1       1.925   3.198  21.676  0.00  0.00    +0.000 A 
ATOM     21  C   UNL     1       2.365   4.461  21.289  0.00  0.00    +0.000 A 
ENDBRANCH  15  16
ENDBRANCH  14  15
ENDBRANCH   4  14
TORSDOF 4
ENDMDL
MODEL 4
REMARK VINA RESULT:      -7.6      1.229      1.665
REMARK  Name = 
REMARK  4 active torsions:
REMARK  status: ('A' for Active; 'I' for Inactive)
REMARK    1  A    between atoms: C_6  and  N_7
REMARK    2  A    between atoms: N_10  and  C_11
REMARK    3  A    between atoms: C_11  and  C_12
REMARK    4  A    between atoms: C_12  and  C_13
REMARK                            x       y       z     vdW  Elec       q    Type
REMARK                         _______ _______ _______ _____ _____    ______ ____
ROOT
ATOM      1  N   UNL     1       5.509   5.112  15.612  0.00  0.00    +0.000 N 
ATOM      2  C   UNL     1       4.627   4.203  16.355  0.00  0.00    +0.000 C 
ATOM      3  C   UNL     1       4.850   4.403  17.875  0.00  0.00    +0.000 C 
ATOM      4  N   UNL     1       4.705   5.798  18.361  0.00  0.00    +0.000 NA
ATOM      5  C   UNL     1       5.603   6.656  17.541  0.00  0.00    +0.000 C 
ATOM      6  C   UNL     1       5.415   6.528  16.008  0.00  0.00    +0.000 C 
ENDROOT
BRANCH   1  12
ATOM      7 CL   UNL     1       5.476   2.072  11.465  0.00  0.00    +0.000 Cl
ATOM      8  C   UNL     1       6.148   3.349  12.405  0.00  0.00    +0.000 A 
ATOM      9  C   UNL     1       7.312   3.978  11.976  0.00  0.00    +0.000 A 
ATOM     10  C   UNL     1       7.852   5.005  12.742  0.00  0.00    +0.000 A 
ATOM     11  C   UNL     1       7.222   5.386  13.929  0.00  0.00    +0.000 A 
ATOM     12  C   UNL     1       6.053   4.760  14.392  0.00  0.00    +0.000 A 
ATOM     13  C   UNL     1       5.527   3.732  13.598  0.00  0.00    +0.000 A 
ENDBRANCH   1  12
BRANCH   4  14
ATOM     14  C   UNL     1       3.317   6.292  18.294  0.00  0.00    +0.000 C 
BRANCH  14  15
ATOM     15  C   UNL     1       2.612   6.342  19.660  0.00  0.00    +0.000 C 
BRANCH  15  16
ATOM     16  C   UNL     1       2.124   4.976  20.075  0.00  0.00    +0.000 A 
ATOM     17  C   UNL     1       2.502   4.435  21.313  0.00  0.00    +0.000 A 
ATOM     18  C   UNL     1       2.065   3.165  21.690  0.00  0.00    +0.000 A 
ATOM     19  C   UNL     1       1.257   2.425  20.831  0.00  0.00    +0.000 A 
ATOM     20  C   UNL     1       0.880   2.953  19.596  0.00  0.00    +0.000 A 
ATOM     21  C   UNL     1       1.315   4.221  19.218  0.00  0.00    +0.000 A 
ENDBRANCH  15  16
ENDBRANCH  14  15
ENDBRANCH   4  14
TORSDOF 4
ENDMDL
MODEL 5
REMARK VINA RESULT:      -7.4      4.363      7.819
REMARK  Name = 
REMARK  4 active torsions:
REMARK  status: ('A' for Active; 'I' for Inactive)
REMARK    1  A    between atoms: C_6  and  N_7
REMARK    2  A    between atoms: N_10  and  C_11
REMARK    3  A    between atoms: C_11  and  C_12
REMARK    4  A    between atoms: C_12  and  C_13
REMARK                            x       y       z     vdW  Elec       q    Type
REMARK                         _______ _______ _______ _____ _____    ______ ____
ROOT
ATOM      1  N   UNL     1       5.202   5.584  18.360  0.00  0.00    +0.000 N 
ATOM      2  C   UNL     1       6.370   5.304  19.205  0.00  0.00    +0.000 C 
ATOM      3  C   UNL     1       7.656   5.397  18.346  0.00  0.00    +0.000 C 
ATOM      4  N   UNL     1       7.833   6.668  17.600  0.00  0.00    +0.000 NA
ATOM      5  C   UNL     1       6.600   6.894  16.798  0.00  0.00    +0.000 C 
ATOM      6  C   UNL     1       5.275   6.844  17.600  0.00  0.00    +0.000 C 
ENDROOT
BRANCH   1  12
ATOM      7 CL   UNL     1       1.824   3.470  21.610  0.00  0.00    +0.000 Cl
ATOM      8  C   UNL     1       2.336   3.905  20.025  0.00  0.00    +0.000 A 
ATOM      9  C   UNL     1       1.558   3.547  18.929  0.00  0.00    +0.000 A 
ATOM     10  C   UNL     1       1.979   3.898  17.652  0.00  0.00    +0.000 A 
ATOM     11  C   UNL     1       3.175   4.600  17.487  0.00  0.00    +0.000 A 
ATOM     12  C   UNL     1       3.986   4.964  18.574  0.00  0.00    +0.000 A 
ATOM     13  C   UNL     1       3.536   4.603  19.851  0.00  0.00    +0.000 A 
ENDBRANCH   1  12
BRANCH   4  14
ATOM     14  C   UNL     1       8.095   7.822  18.480  0.00  0.00    +0.000 C 
BRANCH  14  15
ATOM     15  C   UNL     1       8.155   9.166  17.734  0.00  0.00    +0.000 C 
BRANCH  15  16
ATOM     16  C   UNL     1       9.059  10.145  18.441  0.00  0.00    +0.000 A 
ATOM     17  C   UNL     1       9.883  11.007  17.702  0.00  0.00    +0.000 A 
ATOM     18  C   UNL     1      10.731  11.902  18.355  0.00  0.00    +0.000 A 
ATOM     19  C   UNL     1      10.769  11.934  19.747  0.00  0.00    +0.000 A 
ATOM     20  C   UNL     1       9.956  11.076  20.489  0.00  0.00    +0.000 A 
ATOM     21  C   UNL     1       9.108  10.183  19.839  0.00  0.00    +0.000 A 
ENDBRANCH  15  16
ENDBRANCH  14  15
ENDBRANCH   4  14
TORSDOF 4
ENDMDL
MODEL 6
REMARK VINA RESULT:      -7.4      2.017      2.892
REMARK  Name = 
REMARK  4 active torsions:
REMARK  status: ('A' for Active; 'I' for Inactive)
REMARK    1  A    between atoms: C_6  and  N_7
REMARK    2  A    between atoms: N_10  and  C_11
REMARK    3  A    between atoms: C_11  and  C_12
REMARK    4  A    between atoms: C_12  and  C_13
REMARK                            x       y       z     vdW  Elec       q    Type
REMARK                         _______ _______ _______ _____ _____    ______ ____
ROOT
ATOM      1  N   UNL     1       6.048   4.554  15.959  0.00  0.00    +0.000 N 
ATOM      2  C   UNL     1       4.697   4.273  16.462  0.00  0.00    +0.000 C 
ATOM      3  C   UNL     1       4.797   3.640  17.872  0.00  0.00    +0.000 C 
ATOM      4  N   UNL     1       5.580   4.418  18.865  0.00  0.00    +0.000 NA
ATOM      5  C   UNL     1       6.918   4.687  18.270  0.00  0.00    +0.000 C 
ATOM      6  C   UNL     1       6.894   5.347  16.868  0.00  0.00    +0.000 C 
ENDROOT
BRANCH   1  12
ATOM      7 CL   UNL     1       5.288   2.323  11.389  0.00  0.00    +0.000 Cl
ATOM      8  C   UNL     1       6.102   3.441  12.415  0.00  0.00    +0.000 A 
ATOM      9  C   UNL     1       7.152   4.200  11.908  0.00  0.00    +0.000 A 
ATOM     10  C   UNL     1       7.807   5.097  12.743  0.00  0.00    +0.000 A 
ATOM     11  C   UNL     1       7.406   5.222  14.075  0.00  0.00    +0.000 A 
ATOM     12  C   UNL     1       6.358   4.460  14.616  0.00  0.00    +0.000 A 
ATOM     13  C   UNL     1       5.710   3.567  13.752  0.00  0.00    +0.000 A 
ENDBRANCH   1  12
BRANCH   4  14
ATOM     14  C   UNL     1       4.926   5.681  19.255  0.00  0.00    +0.000 C 
BRANCH  14  15
ATOM     15  C   UNL     1       3.418   5.537  19.525  0.00  0.00    +0.000 C 
BRANCH  15  16
ATOM     16  C   UNL     1       2.691   6.834  19.274  0.00  0.00    +0.000 A 
ATOM     17  C   UNL     1       2.759   7.452  18.016  0.00  0.00    +0.000 A 
ATOM     18  C   UNL     1       2.100   8.660  17.787  0.00  0.00    +0.000 A 
ATOM     19  C   UNL     1       1.378   9.262  18.815  0.00  0.00    +0.000 A 
ATOM     20  C   UNL     1       1.308   8.657  20.070  0.00  0.00    +0.000 A 
ATOM     21  C   UNL     1       1.965   7.451  20.299  0.00  0.00    +0.000 A 
ENDBRANCH  15  16
ENDBRANCH  14  15
ENDBRANCH   4  14
TORSDOF 4
ENDMDL
MODEL 7
REMARK VINA RESULT:      -7.3      4.133      7.476
REMARK  Name = 
REMARK  4 active torsions:
REMARK  status: ('A' for Active; 'I' for Inactive)
REMARK    1  A    between atoms: C_6  and  N_7
REMARK    2  A    between atoms: N_10  and  C_11
REMARK    3  A    between atoms: C_11  and  C_12
REMARK    4  A    between atoms: C_12  and  C_13
REMARK                            x       y       z     vdW  Elec       q    Type
REMARK                         _______ _______ _______ _____ _____    ______ ____
ROOT
ATOM      1  N   UNL     1       5.091   5.177  17.787  0.00  0.00    +0.000 N 
ATOM      2  C   UNL     1       6.188   5.385  18.741  0.00  0.00    +0.000 C 
ATOM      3  C   UNL     1       7.516   5.558  17.963  0.00  0.00    +0.000 C 
ATOM      4  N   UNL     1       7.510   6.617  16.923  0.00  0.00    +0.000 NA
ATOM      5  C   UNL     1       6.357   6.353  16.019  0.00  0.00    +0.000 C 
ATOM      6  C   UNL     1       4.988   6.197  16.729  0.00  0.00    +0.000 C 
ENDROOT
BRANCH   1  12
ATOM      7 CL   UNL     1       0.867   4.276  20.579  0.00  0.00    +0.000 Cl
ATOM      8  C   UNL     1       2.020   3.825  19.381  0.00  0.00    +0.000 A 
ATOM      9  C   UNL     1       1.919   2.581  18.766  0.00  0.00    +0.000 A 
ATOM     10  C   UNL     1       2.855   2.221  17.804  0.00  0.00    +0.000 A 
ATOM     11  C   UNL     1       3.881   3.108  17.472  0.00  0.00    +0.000 A 
ATOM     12  C   UNL     1       4.013   4.364  18.085  0.00  0.00    +0.000 A 
ATOM     13  C   UNL     1       3.054   4.705  19.048  0.00  0.00    +0.000 A 
ENDBRANCH   1  12
BRANCH   4  14
ATOM     14  C   UNL     1       7.425   7.978  17.484  0.00  0.00    +0.000 C 
BRANCH  14  15
ATOM     15  C   UNL     1       8.485   8.269  18.560  0.00  0.00    +0.000 C 
BRANCH  15  16
ATOM     16  C   UNL     1       8.781   9.746  18.651  0.00  0.00    +0.000 A 
ATOM     17  C   UNL     1       8.347  10.618  17.642  0.00  0.00    +0.000 A 
ATOM     18  C   UNL     1       8.635  11.981  17.717  0.00  0.00    +0.000 A 
ATOM     19  C   UNL     1       9.364  12.479  18.794  0.00  0.00    +0.000 A 
ATOM     20  C   UNL     1       9.803  11.617  19.800  0.00  0.00    +0.000 A 
ATOM     21  C   UNL     1       9.516  10.257  19.727  0.00  0.00    +0.000 A 
ENDBRANCH  15  16
ENDBRANCH  14  15
ENDBRANCH   4  14
TORSDOF 4
ENDMDL
MODEL 8
REMARK VINA RESULT:      -7.3      4.199      7.548
REMARK  Name = 
REMARK  4 active torsions:
REMARK  status: ('A' for Active; 'I' for Inactive)
REMARK    1  A    between atoms: C_6  and  N_7
REMARK    2  A    between atoms: N_10  and  C_11
REMARK    3  A    between atoms: C_11  and  C_12
REMARK    4  A    between atoms: C_12  and  C_13
REMARK                            x       y       z     vdW  Elec       q    Type
REMARK                         _______ _______ _______ _____ _____    ______ ____
ROOT
ATOM      1  N   UNL     1       5.059   5.341  17.780  0.00  0.00    +0.000 N 
ATOM      2  C   UNL     1       6.122   5.529  18.776  0.00  0.00    +0.000 C 
ATOM      3  C   UNL     1       7.486   5.643  18.051  0.00  0.00    +0.000 C 
ATOM      4  N   UNL     1       7.561   6.681  16.993  0.00  0.00    +0.000 NA
ATOM      5  C   UNL     1       6.438   6.440  16.047  0.00  0.00    +0.000 C 
ATOM      6  C   UNL     1       5.036   6.343  16.701  0.00  0.00    +0.000 C 
ENDROOT
BRANCH   1  12
ATOM      7 CL   UNL     1       1.262   4.014  20.984  0.00  0.00    +0.000 Cl
ATOM      8  C   UNL     1       2.130   3.843  19.507  0.00  0.00    +0.000 A 
ATOM      9  C   UNL     1       1.760   2.852  18.603  0.00  0.00    +0.000 A 
ATOM     10  C   UNL     1       2.468   2.717  17.415  0.00  0.00    +0.000 A 
ATOM     11  C   UNL     1       3.539   3.571  17.147  0.00  0.00    +0.000 A 
ATOM     12  C   UNL     1       3.942   4.572  18.046  0.00  0.00    +0.000 A 
ATOM     13  C   UNL     1       3.208   4.691  19.234  0.00  0.00    +0.000 A 
ENDBRANCH   1  12
BRANCH   4  14
ATOM     14  C   UNL     1       7.500   8.054  17.526  0.00  0.00    +0.000 C 
BRANCH  14  15
ATOM     15  C   UNL     1       8.561   8.346  18.602  0.00  0.00    +0.000 C 
BRANCH  15  16
ATOM     16  C   UNL     1       8.856   9.823  18.693  0.00  0.00    +0.000 A 
ATOM     17  C   UNL     1       9.513  10.344  19.818  0.00  0.00    +0.000 A 
ATOM     18  C   UNL     1       9.772  11.712  19.911  0.00  0.00    +0.000 A 
ATOM     19  C   UNL     1       9.368  12.567  18.888  0.00  0.00    +0.000 A 
ATOM     20  C   UNL     1       8.710  12.057  17.769  0.00  0.00    +0.000 A 
ATOM     21  C   UNL     1       8.451  10.692  17.674  0.00  0.00    +0.000 A 
ENDBRANCH  15  16
ENDBRANCH  14  15
ENDBRANCH   4  14
TORSDOF 4
ENDMDL
MODEL 9
REMARK VINA RESULT:      -7.1      1.014      1.502
REMARK  Name = 
REMARK  4 active torsions:
REMARK  status: ('A' for Active; 'I' for Inactive)
REMARK    1  A    between atoms: C_6  and  N_7
REMARK    2  A    between atoms: N_10  and  C_11
REMARK    3  A    between atoms: C_11  and  C_12
REMARK    4  A    between atoms: C_12  and  C_13
REMARK                            x       y       z     vdW  Elec       q    Type
REMARK                         _______ _______ _______ _____ _____    ______ ____
ROOT
ATOM      1  N   UNL     1       6.077   4.554  15.884  0.00  0.00    +0.000 N 
ATOM      2  C   UNL     1       4.774   4.120  16.405  0.00  0.00    +0.000 C 
ATOM      3  C   UNL     1       4.959   3.546  17.832  0.00  0.00    +0.000 C 
ATOM      4  N   UNL     1       5.643   4.444  18.796  0.00  0.00    +0.000 NA
ATOM      5  C   UNL     1       6.933   4.862  18.183  0.00  0.00    +0.000 C 
ATOM      6  C   UNL     1       6.820   5.473  16.763  0.00  0.00    +0.000 C 
ENDROOT
BRANCH   1  12
ATOM      7 CL   UNL     1       5.420   2.242  11.339  0.00  0.00    +0.000 Cl
ATOM      8  C   UNL     1       6.181   3.408  12.352  0.00  0.00    +0.000 A 
ATOM      9  C   UNL     1       7.194   4.209  11.836  0.00  0.00    +0.000 A 
ATOM     10  C   UNL     1       7.806   5.145  12.661  0.00  0.00    +0.000 A 
ATOM     11  C   UNL     1       7.401   5.264  13.992  0.00  0.00    +0.000 A 
ATOM     12  C   UNL     1       6.390   4.460  14.542  0.00  0.00    +0.000 A 
ATOM     13  C   UNL     1       5.784   3.529  13.688  0.00  0.00    +0.000 A 
ENDBRANCH   1  12
BRANCH   4  14
ATOM     14  C   UNL     1       4.837   5.626  19.156  0.00  0.00    +0.000 C 
BRANCH  14  15
ATOM     15  C   UNL     1       3.379   5.549  18.671  0.00  0.00    +0.000 C 
BRANCH  15  16
ATOM     16  C   UNL     1       2.575   4.582  19.505  0.00  0.00    +0.000 A 
ATOM     17  C   UNL     1       1.558   3.817  18.917  0.00  0.00    +0.000 A 
ATOM     18  C   UNL     1       0.803   2.935  19.690  0.00  0.00    +0.000 A 
ATOM     19  C   UNL     1       1.053   2.819  21.056  0.00  0.00    +0.000 A 
ATOM     20  C   UNL     1       2.060   3.580  21.649  0.00  0.00    +0.000 A 
ATOM     21  C   UNL     1       2.815   4.460  20.879  0.00  0.00    +0.000 A 
ENDBRANCH  15  16
ENDBRANCH  14  15
ENDBRANCH   4  14
TORSDOF 4
ENDMDL
