MODEL 1
REMARK VINA RESULT:      -7.2      0.000      0.000
REMARK  Name = 
REMARK  3 active torsions:
REMARK  status: ('A' for Active; 'I' for Inactive)
REMARK    1  A    between atoms: N_1  and  C_2
REMARK    2  A    between atoms: C_5  and  C_6
REMARK    3  A    between atoms: C_11  and  C_12
REMARK                            x       y       z     vdW  Elec       q    Type
REMARK                         _______ _______ _______ _____ _____    ______ ____
ROOT
ATOM      1  C   UNL     1       2.941   6.997  18.355  0.00  0.00    +0.000 A 
ATOM      2  N   UNL     1       2.548   6.679  19.568  0.00  0.00    +0.000 NA
ATOM      3  C   UNL     1       1.814   7.713  20.119  0.00  0.00    +0.000 A 
ATOM      4  C   UNL     1       1.282   7.737  21.423  0.00  0.00    +0.000 A 
ATOM      5  C   UNL     1       0.570   8.853  21.863  0.00  0.00    +0.000 A 
ATOM      6  C   UNL     1       0.363   9.932  21.003  0.00  0.00    +0.000 A 
ATOM      7  C   UNL     1       0.860   9.926  19.693  0.00  0.00    +0.000 A 
ATOM      8  C   UNL     1       1.601   8.811  19.283  0.00  0.00    +0.000 A 
ATOM      9  S   UNL     1       2.381   8.523  17.783  0.00  0.00    +0.000 S 
ENDROOT
BRANCH   1  13
ATOM     10  C   UNL     1       5.399   4.439  15.930  0.00  0.00    +0.000 A 
ATOM     11  C   UNL     1       4.402   3.909  16.752  0.00  0.00    +0.000 A 
ATOM     12  C   UNL     1       3.614   4.744  17.551  0.00  0.00    +0.000 A 
ATOM     13  C   UNL     1       3.778   6.137  17.507  0.00  0.00    +0.000 A 
ATOM     14  C   UNL     1       4.758   6.666  16.656  0.00  0.00    +0.000 A 
ATOM     15  C   UNL     1       5.546   5.826  15.867  0.00  0.00    +0.000 A 
BRANCH  10  16
ATOM     16  N   UNL     1       6.070   3.619  15.019  0.00  0.00    +0.000 N 
ATOM     17  H   UNL     1       5.958   2.625  15.189  0.00  0.00    +0.000 HD
ATOM     18  H   UNL     1       7.039   3.879  14.857  0.00  0.00    +0.000 HD
ENDBRANCH  10  16
ENDBRANCH   1  13
BRANCH   6  19
ATOM     19  C   UNL     1      -0.421  11.085  21.473  0.00  0.00    +0.000 C 
ATOM     20  N   UNL     1      -0.400  11.470  22.727  0.00  0.00    +0.000 NA
ATOM     21  C   UNL     1      -1.326  12.639  22.776  0.00  0.00    +0.000 C 
ATOM     22  C   UNL     1      -1.679  12.994  21.325  0.00  0.00    +0.000 C 
ATOM     23  N   UNL     1      -1.193  11.837  20.637  0.00  0.00    +0.000 N 
ATOM     24  H   UNL     1      -1.440  11.597  19.691  0.00  0.00    +0.000 HD
ENDBRANCH   6  19
TORSDOF 3
ENDMDL
MODEL 2
REMARK VINA RESULT:      -7.2      1.415      8.475
REMARK  Name = 
REMARK  3 active torsions:
REMARK  status: ('A' for Active; 'I' for Inactive)
REMARK    1  A    between atoms: N_1  and  C_2
REMARK    2  A    between atoms: C_5  and  C_6
REMARK    3  A    between atoms: C_11  and  C_12
REMARK                            x       y       z     vdW  Elec       q    Type
REMARK                         _______ _______ _______ _____ _____    ______ ____
ROOT
ATOM      1  C   UNL     1       1.202   8.697  20.324  0.00  0.00    +0.000 A 
ATOM      2  N   UNL     1       1.594   7.513  20.737  0.00  0.00    +0.000 NA
ATOM      3  C   UNL     1       2.377   6.906  19.772  0.00  0.00    +0.000 A 
ATOM      4  C   UNL     1       2.922   5.610  19.856  0.00  0.00    +0.000 A 
ATOM      5  C   UNL     1       3.686   5.108  18.801  0.00  0.00    +0.000 A 
ATOM      6  C   UNL     1       3.930   5.899  17.678  0.00  0.00    +0.000 A 
ATOM      7  C   UNL     1       3.420   7.200  17.578  0.00  0.00    +0.000 A 
ATOM      8  C   UNL     1       2.627   7.672  18.633  0.00  0.00    +0.000 A 
ATOM      9  S   UNL     1       1.821   9.177  18.789  0.00  0.00    +0.000 S 
ENDROOT
BRANCH   1  13
ATOM     10  C   UNL     1      -1.340  11.359  22.541  0.00  0.00    +0.000 A 
ATOM     11  C   UNL     1      -1.062  11.588  21.192  0.00  0.00    +0.000 A 
ATOM     12  C   UNL     1      -0.222  10.728  20.478  0.00  0.00    +0.000 A 
ATOM     13  C   UNL     1       0.321   9.588  21.091  0.00  0.00    +0.000 A 
ATOM     14  C   UNL     1       0.013   9.345  22.437  0.00  0.00    +0.000 A 
ATOM     15  C   UNL     1      -0.821  10.213  23.145  0.00  0.00    +0.000 A 
BRANCH  10  16
ATOM     16  N   UNL     1      -2.303  12.127  23.203  0.00  0.00    +0.000 N 
ATOM     17  H   UNL     1      -2.298  13.110  22.952  0.00  0.00    +0.000 HD
ATOM     18  H   UNL     1      -2.336  11.982  24.207  0.00  0.00    +0.000 HD
ENDBRANCH  10  16
ENDBRANCH   1  13
BRANCH   6  19
ATOM     19  C   UNL     1       4.767   5.366  16.592  0.00  0.00    +0.000 C 
ATOM     20  N   UNL     1       5.329   6.150  15.704  0.00  0.00    +0.000 NA
ATOM     21  C   UNL     1       6.058   5.221  14.792  0.00  0.00    +0.000 C 
ATOM     22  C   UNL     1       6.015   3.829  15.438  0.00  0.00    +0.000 C 
ATOM     23  N   UNL     1       5.028   4.034  16.455  0.00  0.00    +0.000 N 
ATOM     24  H   UNL     1       4.564   3.290  16.948  0.00  0.00    +0.000 HD
ENDBRANCH   6  19
TORSDOF 3
ENDMDL
MODEL 3
REMARK VINA RESULT:      -7.2      0.452      1.141
REMARK  Name = 
REMARK  3 active torsions:
REMARK  status: ('A' for Active; 'I' for Inactive)
REMARK    1  A    between atoms: N_1  and  C_2
REMARK    2  A    between atoms: C_5  and  C_6
REMARK    3  A    between atoms: C_11  and  C_12
REMARK                            x       y       z     vdW  Elec       q    Type
REMARK                         _______ _______ _______ _____ _____    ______ ____
ROOT
ATOM      1  C   UNL     1       2.709   7.153  18.604  0.00  0.00    +0.000 A 
ATOM      2  N   UNL     1       2.312   6.929  19.836  0.00  0.00    +0.000 NA
ATOM      3  C   UNL     1       1.602   8.015  20.314  0.00  0.00    +0.000 A 
ATOM      4  C   UNL     1       1.074   8.141  21.613  0.00  0.00    +0.000 A 
ATOM      5  C   UNL     1       0.387   9.300  21.975  0.00  0.00    +0.000 A 
ATOM      6  C   UNL     1       0.200  10.321  21.042  0.00  0.00    +0.000 A 
ATOM      7  C   UNL     1       0.694  10.212  19.736  0.00  0.00    +0.000 A 
ATOM      8  C   UNL     1       1.410   9.055  19.404  0.00  0.00    +0.000 A 
ATOM      9  S   UNL     1       2.180   8.647  17.927  0.00  0.00    +0.000 S 
ENDROOT
BRANCH   1  13
ATOM     10  C   UNL     1       5.092   4.464  16.247  0.00  0.00    +0.000 A 
ATOM     11  C   UNL     1       5.366   5.832  16.273  0.00  0.00    +0.000 A 
ATOM     12  C   UNL     1       4.579   6.706  17.029  0.00  0.00    +0.000 A 
ATOM     13  C   UNL     1       3.525   6.218  17.817  0.00  0.00    +0.000 A 
ATOM     14  C   UNL     1       3.274   4.839  17.813  0.00  0.00    +0.000 A 
ATOM     15  C   UNL     1       4.060   3.974  17.050  0.00  0.00    +0.000 A 
BRANCH  10  16
ATOM     16  N   UNL     1       5.975   3.579  15.621  0.00  0.00    +0.000 N 
ATOM     17  H   UNL     1       5.550   3.002  14.903  0.00  0.00    +0.000 HD
ATOM     18  H   UNL     1       6.553   3.042  16.261  0.00  0.00    +0.000 HD
ENDBRANCH  10  16
ENDBRANCH   1  13
BRANCH   6  19
ATOM     19  C   UNL     1      -0.557  11.520  21.431  0.00  0.00    +0.000 C 
ATOM     20  N   UNL     1      -0.440  12.055  22.623  0.00  0.00    +0.000 NA
ATOM     21  C   UNL     1      -1.374  13.218  22.605  0.00  0.00    +0.000 C 
ATOM     22  C   UNL     1      -1.847  13.394  21.155  0.00  0.00    +0.000 C 
ATOM     23  N   UNL     1      -1.404  12.162  20.576  0.00  0.00    +0.000 N 
ATOM     24  H   UNL     1      -1.723  11.808  19.689  0.00  0.00    +0.000 HD
ENDBRANCH   6  19
TORSDOF 3
ENDMDL
MODEL 4
REMARK VINA RESULT:      -7.1      1.332      8.447
REMARK  Name = 
REMARK  3 active torsions:
REMARK  status: ('A' for Active; 'I' for Inactive)
REMARK    1  A    between atoms: N_1  and  C_2
REMARK    2  A    between atoms: C_5  and  C_6
REMARK    3  A    between atoms: C_11  and  C_12
REMARK                            x       y       z     vdW  Elec       q    Type
REMARK                         _______ _______ _______ _____ _____    ______ ____
ROOT
ATOM      1  C   UNL     1       1.378   8.533  20.159  0.00  0.00    +0.000 A 
ATOM      2  N   UNL     1       1.798   7.366  20.594  0.00  0.00    +0.000 NA
ATOM      3  C   UNL     1       2.583   6.753  19.635  0.00  0.00    +0.000 A 
ATOM      4  C   UNL     1       3.156   5.471  19.742  0.00  0.00    +0.000 A 
ATOM      5  C   UNL     1       3.918   4.961  18.691  0.00  0.00    +0.000 A 
ATOM      6  C   UNL     1       4.134   5.731  17.547  0.00  0.00    +0.000 A 
ATOM      7  C   UNL     1       3.596   7.018  17.423  0.00  0.00    +0.000 A 
ATOM      8  C   UNL     1       2.805   7.498  18.476  0.00  0.00    +0.000 A 
ATOM      9  S   UNL     1       1.970   8.990  18.606  0.00  0.00    +0.000 S 
ENDROOT
BRANCH   1  13
ATOM     10  C   UNL     1      -1.260  11.079  22.401  0.00  0.00    +0.000 A 
ATOM     11  C   UNL     1      -0.586  10.022  23.016  0.00  0.00    +0.000 A 
ATOM     12  C   UNL     1       0.259   9.187  22.280  0.00  0.00    +0.000 A 
ATOM     13  C   UNL     1       0.486   9.423  20.916  0.00  0.00    +0.000 A 
ATOM     14  C   UNL     1      -0.167  10.505  20.310  0.00  0.00    +0.000 A 
ATOM     15  C   UNL     1      -1.015  11.331  21.050  0.00  0.00    +0.000 A 
BRANCH  10  16
ATOM     16  N   UNL     1      -1.973  12.004  23.170  0.00  0.00    +0.000 N 
ATOM     17  H   UNL     1      -1.887  11.869  24.172  0.00  0.00    +0.000 HD
ATOM     18  H   UNL     1      -2.937  12.136  22.877  0.00  0.00    +0.000 HD
ENDBRANCH  10  16
ENDBRANCH   1  13
BRANCH   6  19
ATOM     19  C   UNL     1       4.969   5.190  16.464  0.00  0.00    +0.000 C 
ATOM     20  N   UNL     1       5.415   5.947  15.490  0.00  0.00    +0.000 NA
ATOM     21  C   UNL     1       6.189   5.018  14.617  0.00  0.00    +0.000 C 
ATOM     22  C   UNL     1       6.308   3.686  15.371  0.00  0.00    +0.000 C 
ATOM     23  N   UNL     1       5.351   3.881  16.417  0.00  0.00    +0.000 N 
ATOM     24  H   UNL     1       4.982   3.140  16.990  0.00  0.00    +0.000 HD
ENDBRANCH   6  19
TORSDOF 3
ENDMDL
MODEL 5
REMARK VINA RESULT:      -7.1      1.081      1.910
REMARK  Name = 
REMARK  3 active torsions:
REMARK  status: ('A' for Active; 'I' for Inactive)
REMARK    1  A    between atoms: N_1  and  C_2
REMARK    2  A    between atoms: C_5  and  C_6
REMARK    3  A    between atoms: C_11  and  C_12
REMARK                            x       y       z     vdW  Elec       q    Type
REMARK                         _______ _______ _______ _____ _____    ______ ____
ROOT
ATOM      1  C   UNL     1       3.002   7.130  18.093  0.00  0.00    +0.000 A 
ATOM      2  N   UNL     1       2.710   8.308  17.588  0.00  0.00    +0.000 NA
ATOM      3  C   UNL     1       1.884   9.006  18.449  0.00  0.00    +0.000 A 
ATOM      4  C   UNL     1       1.333  10.279  18.205  0.00  0.00    +0.000 A 
ATOM      5  C   UNL     1       0.498  10.868  19.154  0.00  0.00    +0.000 A 
ATOM      6  C   UNL     1       0.231  10.209  20.355  0.00  0.00    +0.000 A 
ATOM      7  C   UNL     1       0.784   8.953  20.635  0.00  0.00    +0.000 A 
ATOM      8  C   UNL     1       1.592   8.364  19.654  0.00  0.00    +0.000 A 
ATOM      9  S   UNL     1       2.363   6.832  19.665  0.00  0.00    +0.000 S 
ENDROOT
BRANCH   1  13
ATOM     10  C   UNL     1       5.403   4.217  16.040  0.00  0.00    +0.000 A 
ATOM     11  C   UNL     1       5.659   5.583  15.906  0.00  0.00    +0.000 A 
ATOM     12  C   UNL     1       4.866   6.528  16.564  0.00  0.00    +0.000 A 
ATOM     13  C   UNL     1       3.825   6.121  17.412  0.00  0.00    +0.000 A 
ATOM     14  C   UNL     1       3.592   4.748  17.568  0.00  0.00    +0.000 A 
ATOM     15  C   UNL     1       4.383   3.810  16.903  0.00  0.00    +0.000 A 
BRANCH  10  16
ATOM     16  N   UNL     1       6.293   3.277  15.512  0.00  0.00    +0.000 N 
ATOM     17  H   UNL     1       5.971   2.317  15.569  0.00  0.00    +0.000 HD
ATOM     18  H   UNL     1       7.252   3.385  15.830  0.00  0.00    +0.000 HD
ENDBRANCH  10  16
ENDBRANCH   1  13
BRANCH   6  19
ATOM     19  C   UNL     1      -0.623  10.862  21.359  0.00  0.00    +0.000 C 
ATOM     20  N   UNL     1      -0.597  10.511  22.622  0.00  0.00    +0.000 NA
ATOM     21  C   UNL     1      -1.606  11.393  23.277  0.00  0.00    +0.000 C 
ATOM     22  C   UNL     1      -2.025  12.446  22.241  0.00  0.00    +0.000 C 
ATOM     23  N   UNL     1      -1.472  11.883  21.046  0.00  0.00    +0.000 N 
ATOM     24  H   UNL     1      -1.726  12.172  20.116  0.00  0.00    +0.000 HD
ENDBRANCH   6  19
TORSDOF 3
ENDMDL
MODEL 6
REMARK VINA RESULT:      -7.1      1.096      1.615
REMARK  Name = 
REMARK  3 active torsions:
REMARK  status: ('A' for Active; 'I' for Inactive)
REMARK    1  A    between atoms: N_1  and  C_2
REMARK    2  A    between atoms: C_5  and  C_6
REMARK    3  A    between atoms: C_11  and  C_12
REMARK                            x       y       z     vdW  Elec       q    Type
REMARK                         _______ _______ _______ _____ _____    ______ ____
ROOT
ATOM      1  C   UNL     1       3.022   7.182  18.038  0.00  0.00    +0.000 A 
ATOM      2  N   UNL     1       2.684   8.338  17.511  0.00  0.00    +0.000 NA
ATOM      3  C   UNL     1       1.851   9.029  18.372  0.00  0.00    +0.000 A 
ATOM      4  C   UNL     1       1.255  10.278  18.108  0.00  0.00    +0.000 A 
ATOM      5  C   UNL     1       0.420  10.863  19.059  0.00  0.00    +0.000 A 
ATOM      6  C   UNL     1       0.197  10.226  20.280  0.00  0.00    +0.000 A 
ATOM      7  C   UNL     1       0.795   8.995  20.579  0.00  0.00    +0.000 A 
ATOM      8  C   UNL     1       1.603   8.408  19.597  0.00  0.00    +0.000 A 
ATOM      9  S   UNL     1       2.423   6.902  19.630  0.00  0.00    +0.000 S 
ENDROOT
BRANCH   1  13
ATOM     10  C   UNL     1       5.491   4.227  16.132  0.00  0.00    +0.000 A 
ATOM     11  C   UNL     1       4.443   3.852  16.975  0.00  0.00    +0.000 A 
ATOM     12  C   UNL     1       3.652   4.817  17.606  0.00  0.00    +0.000 A 
ATOM     13  C   UNL     1       3.864   6.183  17.365  0.00  0.00    +0.000 A 
ATOM     14  C   UNL     1       4.897   6.553  16.493  0.00  0.00    +0.000 A 
ATOM     15  C   UNL     1       5.688   5.584  15.873  0.00  0.00    +0.000 A 
BRANCH  10  16
ATOM     16  N   UNL     1       6.173   3.263  15.383  0.00  0.00    +0.000 N 
ATOM     17  H   UNL     1       6.827   3.643  14.707  0.00  0.00    +0.000 HD
ATOM     18  H   UNL     1       5.576   2.544  14.985  0.00  0.00    +0.000 HD
ENDBRANCH  10  16
ENDBRANCH   1  13
BRANCH   6  19
ATOM     19  C   UNL     1      -0.659  10.876  21.285  0.00  0.00    +0.000 C 
ATOM     20  N   UNL     1      -0.619  10.536  22.551  0.00  0.00    +0.000 NA
ATOM     21  C   UNL     1      -1.636  11.410  23.206  0.00  0.00    +0.000 C 
ATOM     22  C   UNL     1      -2.076  12.447  22.164  0.00  0.00    +0.000 C 
ATOM     23  N   UNL     1      -1.525  11.882  20.970  0.00  0.00    +0.000 N 
ATOM     24  H   UNL     1      -1.790  12.159  20.039  0.00  0.00    +0.000 HD
ENDBRANCH   6  19
TORSDOF 3
ENDMDL
MODEL 7
REMARK VINA RESULT:      -7.0      1.257      8.507
REMARK  Name = 
REMARK  3 active torsions:
REMARK  status: ('A' for Active; 'I' for Inactive)
REMARK    1  A    between atoms: N_1  and  C_2
REMARK    2  A    between atoms: C_5  and  C_6
REMARK    3  A    between atoms: C_11  and  C_12
REMARK                            x       y       z     vdW  Elec       q    Type
REMARK                         _______ _______ _______ _____ _____    ______ ____
ROOT
ATOM      1  C   UNL     1       1.982   8.059  19.605  0.00  0.00    +0.000 A 
ATOM      2  N   UNL     1       2.444   6.873  19.932  0.00  0.00    +0.000 NA
ATOM      3  C   UNL     1       3.222   6.365  18.909  0.00  0.00    +0.000 A 
ATOM      4  C   UNL     1       3.831   5.095  18.896  0.00  0.00    +0.000 A 
ATOM      5  C   UNL     1       4.582   4.696  17.790  0.00  0.00    +0.000 A 
ATOM      6  C   UNL     1       4.751   5.564  16.711  0.00  0.00    +0.000 A 
ATOM      7  C   UNL     1       4.176   6.841  16.706  0.00  0.00    +0.000 A 
ATOM      8  C   UNL     1       3.397   7.209  17.811  0.00  0.00    +0.000 A 
ATOM      9  S   UNL     1       2.525   8.660  18.084  0.00  0.00    +0.000 S 
ENDROOT
BRANCH   1  13
ATOM     10  C   UNL     1      -0.663  10.334  22.114  0.00  0.00    +0.000 A 
ATOM     11  C   UNL     1       0.169   9.351  22.652  0.00  0.00    +0.000 A 
ATOM     12  C   UNL     1       1.017   8.602  21.830  0.00  0.00    +0.000 A 
ATOM     13  C   UNL     1       1.085   8.858  20.452  0.00  0.00    +0.000 A 
ATOM     14  C   UNL     1       0.271   9.868  19.922  0.00  0.00    +0.000 A 
ATOM     15  C   UNL     1      -0.579  10.606  20.747  0.00  0.00    +0.000 A 
BRANCH  10  16
ATOM     16  N   UNL     1      -1.387  11.184  22.956  0.00  0.00    +0.000 N 
ATOM     17  H   UNL     1      -1.634  10.774  23.851  0.00  0.00    +0.000 HD
ATOM     18  H   UNL     1      -2.173  11.646  22.509  0.00  0.00    +0.000 HD
ENDBRANCH  10  16
ENDBRANCH   1  13
BRANCH   6  19
ATOM     19  C   UNL     1       5.575   5.139  15.569  0.00  0.00    +0.000 C 
ATOM     20  N   UNL     1       6.807   5.562  15.410  0.00  0.00    +0.000 NA
ATOM     21  C   UNL     1       7.264   4.916  14.145  0.00  0.00    +0.000 C 
ATOM     22  C   UNL     1       6.194   3.889  13.751  0.00  0.00    +0.000 C 
ATOM     23  N   UNL     1       5.123   4.266  14.623  0.00  0.00    +0.000 N 
ATOM     24  H   UNL     1       4.169   3.967  14.508  0.00  0.00    +0.000 HD
ENDBRANCH   6  19
TORSDOF 3
ENDMDL
MODEL 8
REMARK VINA RESULT:      -7.0      2.317      2.748
REMARK  Name = 
REMARK  3 active torsions:
REMARK  status: ('A' for Active; 'I' for Inactive)
REMARK    1  A    between atoms: N_1  and  C_2
REMARK    2  A    between atoms: C_5  and  C_6
REMARK    3  A    between atoms: C_11  and  C_12
REMARK                            x       y       z     vdW  Elec       q    Type
REMARK                         _______ _______ _______ _____ _____    ______ ____
ROOT
ATOM      1  C   UNL     1       2.444   6.067  19.083  0.00  0.00    +0.000 A 
ATOM      2  N   UNL     1       2.559   7.006  18.170  0.00  0.00    +0.000 NA
ATOM      3  C   UNL     1       2.036   8.196  18.640  0.00  0.00    +0.000 A 
ATOM      4  C   UNL     1       1.945   9.396  17.909  0.00  0.00    +0.000 A 
ATOM      5  C   UNL     1       1.380  10.527  18.498  0.00  0.00    +0.000 A 
ATOM      6  C   UNL     1       0.930  10.477  19.818  0.00  0.00    +0.000 A 
ATOM      7  C   UNL     1       1.030   9.303  20.576  0.00  0.00    +0.000 A 
ATOM      8  C   UNL     1       1.569   8.170  19.955  0.00  0.00    +0.000 A 
ATOM      9  S   UNL     1       1.775   6.588  20.584  0.00  0.00    +0.000 S 
ENDROOT
BRANCH   1  13
ATOM     10  C   UNL     1       3.596   1.968  18.508  0.00  0.00    +0.000 A 
ATOM     11  C   UNL     1       2.682   2.584  17.651  0.00  0.00    +0.000 A 
ATOM     12  C   UNL     1       2.298   3.914  17.851  0.00  0.00    +0.000 A 
ATOM     13  C   UNL     1       2.861   4.672  18.889  0.00  0.00    +0.000 A 
ATOM     14  C   UNL     1       3.803   4.058  19.727  0.00  0.00    +0.000 A 
ATOM     15  C   UNL     1       4.176   2.728  19.526  0.00  0.00    +0.000 A 
BRANCH  10  16
ATOM     16  N   UNL     1       4.095   0.696  18.210  0.00  0.00    +0.000 N 
ATOM     17  H   UNL     1       4.384   0.159  19.021  0.00  0.00    +0.000 HD
ATOM     18  H   UNL     1       4.787   0.682  17.467  0.00  0.00    +0.000 HD
ENDBRANCH  10  16
ENDBRANCH   1  13
BRANCH   6  19
ATOM     19  C   UNL     1       0.369  11.689  20.433  0.00  0.00    +0.000 C 
ATOM     20  N   UNL     1       1.039  12.388  21.319  0.00  0.00    +0.000 NA
ATOM     21  C   UNL     1       0.119  13.502  21.690  0.00  0.00    +0.000 C 
ATOM     22  C   UNL     1      -1.062  13.457  20.710  0.00  0.00    +0.000 C 
ATOM     23  N   UNL     1      -0.863  12.174  20.107  0.00  0.00    +0.000 N 
ATOM     24  H   UNL     1      -1.562  11.689  19.568  0.00  0.00    +0.000 HD
ENDBRANCH   6  19
TORSDOF 3
ENDMDL
MODEL 9
REMARK VINA RESULT:      -7.0      2.307      2.728
REMARK  Name = 
REMARK  3 active torsions:
REMARK  status: ('A' for Active; 'I' for Inactive)
REMARK    1  A    between atoms: N_1  and  C_2
REMARK    2  A    between atoms: C_5  and  C_6
REMARK    3  A    between atoms: C_11  and  C_12
REMARK                            x       y       z     vdW  Elec       q    Type
REMARK                         _______ _______ _______ _____ _____    ______ ____
ROOT
ATOM      1  C   UNL     1       2.423   6.106  19.026  0.00  0.00    +0.000 A 
ATOM      2  N   UNL     1       2.569   7.067  18.141  0.00  0.00    +0.000 NA
ATOM      3  C   UNL     1       2.033   8.246  18.625  0.00  0.00    +0.000 A 
ATOM      4  C   UNL     1       1.967   9.465  17.922  0.00  0.00    +0.000 A 
ATOM      5  C   UNL     1       1.385  10.581  18.522  0.00  0.00    +0.000 A 
ATOM      6  C   UNL     1       0.893  10.498  19.825  0.00  0.00    +0.000 A 
ATOM      7  C   UNL     1       0.967   9.305  20.556  0.00  0.00    +0.000 A 
ATOM      8  C   UNL     1       1.524   8.187  19.923  0.00  0.00    +0.000 A 
ATOM      9  S   UNL     1       1.707   6.589  20.517  0.00  0.00    +0.000 S 
ENDROOT
BRANCH   1  13
ATOM     10  C   UNL     1       3.724   2.060  18.386  0.00  0.00    +0.000 A 
ATOM     11  C   UNL     1       4.407   2.905  19.263  0.00  0.00    +0.000 A 
ATOM     12  C   UNL     1       3.990   4.225  19.457  0.00  0.00    +0.000 A 
ATOM     13  C   UNL     1       2.845   4.715  18.809  0.00  0.00    +0.000 A 
ATOM     14  C   UNL     1       2.144   3.853  17.955  0.00  0.00    +0.000 A 
ATOM     15  C   UNL     1       2.570   2.538  17.760  0.00  0.00    +0.000 A 
BRANCH  10  16
ATOM     16  N   UNL     1       4.047   0.702  18.319  0.00  0.00    +0.000 N 
ATOM     17  H   UNL     1       5.015   0.514  18.079  0.00  0.00    +0.000 HD
ATOM     18  H   UNL     1       3.397   0.143  17.775  0.00  0.00    +0.000 HD
ENDBRANCH  10  16
ENDBRANCH   1  13
BRANCH   6  19
ATOM     19  C   UNL     1       0.314  11.696  20.453  0.00  0.00    +0.000 C 
ATOM     20  N   UNL     1       0.582  12.023  21.695  0.00  0.00    +0.000 NA
ATOM     21  C   UNL     1      -0.206  13.267  21.932  0.00  0.00    +0.000 C 
ATOM     22  C   UNL     1      -0.762  13.715  20.573  0.00  0.00    +0.000 C 
ATOM     23  N   UNL     1      -0.512  12.549  19.782  0.00  0.00    +0.000 N 
ATOM     24  H   UNL     1      -0.936  12.373  18.886  0.00  0.00    +0.000 HD
ENDBRANCH   6  19
TORSDOF 3
ENDMDL
