MODEL 1
REMARK VINA RESULT:      -9.4      0.000      0.000
REMARK  Name = 
REMARK  6 active torsions:
REMARK  status: ('A' for Active; 'I' for Inactive)
REMARK    1  A    between atoms: C_4  and  C_5
REMARK    2  A    between atoms: N_10  and  C_11
REMARK    3  A    between atoms: N_21  and  C_22
REMARK    4  A    between atoms: C_22  and  C_23
REMARK    5  A    between atoms: C_22  and  C_25
REMARK    6  A    between atoms: C_23  and  O_24
REMARK                            x       y       z     vdW  Elec       q    Type
REMARK                         _______ _______ _______ _____ _____    ______ ____
ROOT
ATOM      1  O   UNL     1       1.822  10.147  17.616  0.00  0.00    +0.000 OA
ATOM      2  C   UNL     1       1.567   9.473  18.615  0.00  0.00    +0.000 A 
ATOM      3  C   UNL     1       2.175   8.121  18.739  0.00  0.00    +0.000 A 
ATOM      4  C   UNL     1       1.969   7.348  19.819  0.00  0.00    +0.000 A 
ATOM      5  C   UNL     1       1.126   7.885  20.881  0.00  0.00    +0.000 A 
ATOM      6  C   UNL     1       0.553   9.086  20.775  0.00  0.00    +0.000 A 
ATOM      7  N   UNL     1       0.743   9.891  19.666  0.00  0.00    +0.000 N 
ENDROOT
BRANCH   4   8
ATOM      8  C   UNL     1       2.530   5.968  19.827  0.00  0.00    +0.000 A 
ATOM      9  C   UNL     1       2.236   5.085  20.841  0.00  0.00    +0.000 A 
ATOM     10  C   UNL     1       2.698   3.804  20.666  0.00  0.00    +0.000 A 
ATOM     11  N   UNL     1       3.389   3.408  19.580  0.00  0.00    +0.000 NA
ATOM     12  C   UNL     1       3.659   4.333  18.653  0.00  0.00    +0.000 A 
ATOM     13  N   UNL     1       4.314   3.879  17.535  0.00  0.00    +0.000 N 
ATOM     14  N   UNL     1       3.275   5.617  18.753  0.00  0.00    +0.000 NA
ATOM     15  H   UNL     1       4.545   2.904  17.617  0.00  0.00    +0.000 HD
BRANCH  13  16
ATOM     16  C   UNL     1       5.148   4.766  16.733  0.00  0.00    +0.000 C 
ATOM     17  C   UNL     1       5.989   3.942  15.730  0.00  0.00    +0.000 C 
ATOM     18  C   UNL     1       7.419   4.355  16.093  0.00  0.00    +0.000 C 
ATOM     19  C   UNL     1       7.388   4.491  17.600  0.00  0.00    +0.000 C 
ATOM     20  C   UNL     1       6.244   5.492  17.552  0.00  0.00    +0.000 C 
ATOM     21  C   UNL     1       6.879   6.527  16.619  0.00  0.00    +0.000 C 
ATOM     22  O   UNL     1       7.580   5.723  15.641  0.00  0.00    +0.000 OA
ENDBRANCH  13  16
ENDBRANCH   4   8
BRANCH   7  23
ATOM     23  C   UNL     1       0.134  11.239  19.564  0.00  0.00    +0.000 C 
BRANCH  23  24
ATOM     24  C   UNL     1      -1.289  11.264  18.994  0.00  0.00    +0.000 A 
ATOM     25  C   UNL     1      -2.244  12.111  19.597  0.00  0.00    +0.000 A 
ATOM     26  C   UNL     1      -3.583  12.109  19.189  0.00  0.00    +0.000 A 
ATOM     27  C   UNL     1      -3.992  11.260  18.166  0.00  0.00    +0.000 A 
ATOM     28 CL   UNL     1      -5.651  11.228  17.703  0.00  0.00    +0.000 Cl
ATOM     29  C   UNL     1      -3.060  10.436  17.544  0.00  0.00    +0.000 A 
ATOM     30  F   UNL     1      -3.433   9.607  16.556  0.00  0.00    +0.000 F 
ATOM     31  C   UNL     1      -1.721  10.432  17.948  0.00  0.00    +0.000 A 
ENDBRANCH  23  24
BRANCH  23  32
ATOM     32  C   UNL     1       0.269  12.119  20.840  0.00  0.00    +0.000 C 
BRANCH  32  33
ATOM     33  O   UNL     1       1.610  12.432  21.218  0.00  0.00    +0.000 OA
ATOM     34  H   UNL     1       2.030  12.898  20.475  0.00  0.00    +0.000 HD
ENDBRANCH  32  33
ENDBRANCH  23  32
ENDBRANCH   7  23
TORSDOF 6
ENDMDL
MODEL 2
REMARK VINA RESULT:      -9.2      0.871      1.218
REMARK  Name = 
REMARK  6 active torsions:
REMARK  status: ('A' for Active; 'I' for Inactive)
REMARK    1  A    between atoms: C_4  and  C_5
REMARK    2  A    between atoms: N_10  and  C_11
REMARK    3  A    between atoms: N_21  and  C_22
REMARK    4  A    between atoms: C_22  and  C_23
REMARK    5  A    between atoms: C_22  and  C_25
REMARK    6  A    between atoms: C_23  and  O_24
REMARK                            x       y       z     vdW  Elec       q    Type
REMARK                         _______ _______ _______ _____ _____    ______ ____
ROOT
ATOM      1  O   UNL     1       1.665  10.190  17.611  0.00  0.00    +0.000 OA
ATOM      2  C   UNL     1       1.444   9.530  18.627  0.00  0.00    +0.000 A 
ATOM      3  C   UNL     1       2.073   8.189  18.759  0.00  0.00    +0.000 A 
ATOM      4  C   UNL     1       1.903   7.431  19.856  0.00  0.00    +0.000 A 
ATOM      5  C   UNL     1       1.078   7.974  20.929  0.00  0.00    +0.000 A 
ATOM      6  C   UNL     1       0.486   9.166  20.816  0.00  0.00    +0.000 A 
ATOM      7  N   UNL     1       0.639   9.955  19.690  0.00  0.00    +0.000 N 
ENDROOT
BRANCH   4   8
ATOM      8  C   UNL     1       2.482   6.059  19.873  0.00  0.00    +0.000 A 
ATOM      9  C   UNL     1       2.179   5.170  20.879  0.00  0.00    +0.000 A 
ATOM     10  C   UNL     1       2.663   3.896  20.711  0.00  0.00    +0.000 A 
ATOM     11  N   UNL     1       3.382   3.512  19.640  0.00  0.00    +0.000 NA
ATOM     12  C   UNL     1       3.659   4.443  18.720  0.00  0.00    +0.000 A 
ATOM     13  N   UNL     1       4.344   4.001  17.616  0.00  0.00    +0.000 N 
ATOM     14  N   UNL     1       3.255   5.721  18.815  0.00  0.00    +0.000 NA
ATOM     15  H   UNL     1       4.587   3.028  17.702  0.00  0.00    +0.000 HD
BRANCH  13  16
ATOM     16  C   UNL     1       5.183   4.901  16.834  0.00  0.00    +0.000 C 
ATOM     17  C   UNL     1       5.900   4.116  15.710  0.00  0.00    +0.000 C 
ATOM     18  C   UNL     1       7.375   4.408  16.005  0.00  0.00    +0.000 C 
ATOM     19  C   UNL     1       7.451   4.413  17.517  0.00  0.00    +0.000 C 
ATOM     20  C   UNL     1       6.376   5.484  17.631  0.00  0.00    +0.000 C 
ATOM     21  C   UNL     1       7.017   6.554  16.745  0.00  0.00    +0.000 C 
ATOM     22  O   UNL     1       7.598   5.797  15.657  0.00  0.00    +0.000 OA
ENDBRANCH  13  16
ENDBRANCH   4   8
BRANCH   7  23
ATOM     23  C   UNL     1       0.009  11.293  19.581  0.00  0.00    +0.000 C 
BRANCH  23  24
ATOM     24  C   UNL     1      -1.472  11.279  19.186  0.00  0.00    +0.000 A 
ATOM     25  C   UNL     1      -1.887  10.418  18.147  0.00  0.00    +0.000 A 
ATOM     26  C   UNL     1      -3.204  10.427  17.671  0.00  0.00    +0.000 A 
ATOM     27  C   UNL     1      -4.133  11.298  18.230  0.00  0.00    +0.000 A 
ATOM     28 CL   UNL     1      -5.739  11.338  17.608  0.00  0.00    +0.000 Cl
ATOM     29  C   UNL     1      -3.748  12.137  19.271  0.00  0.00    +0.000 A 
ATOM     30  F   UNL     1      -4.629  12.987  19.823  0.00  0.00    +0.000 F 
ATOM     31  C   UNL     1      -2.434  12.134  19.749  0.00  0.00    +0.000 A 
ENDBRANCH  23  24
BRANCH  23  32
ATOM     32  C   UNL     1       0.287  12.250  20.775  0.00  0.00    +0.000 C 
BRANCH  32  33
ATOM     33  O   UNL     1       1.667  12.416  21.106  0.00  0.00    +0.000 OA
ATOM     34  H   UNL     1       2.102  11.551  21.019  0.00  0.00    +0.000 HD
ENDBRANCH  32  33
ENDBRANCH  23  32
ENDBRANCH   7  23
TORSDOF 6
ENDMDL
MODEL 3
REMARK VINA RESULT:      -9.2      0.656      1.097
REMARK  Name = 
REMARK  6 active torsions:
REMARK  status: ('A' for Active; 'I' for Inactive)
REMARK    1  A    between atoms: C_4  and  C_5
REMARK    2  A    between atoms: N_10  and  C_11
REMARK    3  A    between atoms: N_21  and  C_22
REMARK    4  A    between atoms: C_22  and  C_23
REMARK    5  A    between atoms: C_22  and  C_25
REMARK    6  A    between atoms: C_23  and  O_24
REMARK                            x       y       z     vdW  Elec       q    Type
REMARK                         _______ _______ _______ _____ _____    ______ ____
ROOT
ATOM      1  O   UNL     1       1.967   9.708  17.509  0.00  0.00    +0.000 OA
ATOM      2  C   UNL     1       1.706   9.143  18.572  0.00  0.00    +0.000 A 
ATOM      3  C   UNL     1       2.250   7.778  18.806  0.00  0.00    +0.000 A 
ATOM      4  C   UNL     1       2.036   7.118  19.957  0.00  0.00    +0.000 A 
ATOM      5  C   UNL     1       1.249   7.792  20.985  0.00  0.00    +0.000 A 
ATOM      6  C   UNL     1       0.734   9.007  20.780  0.00  0.00    +0.000 A 
ATOM      7  N   UNL     1       0.933   9.697  19.598  0.00  0.00    +0.000 N 
ENDROOT
BRANCH   4   8
ATOM      8  C   UNL     1       2.528   5.718  20.080  0.00  0.00    +0.000 A 
ATOM      9  C   UNL     1       1.973   4.844  20.988  0.00  0.00    +0.000 A 
ATOM     10  C   UNL     1       2.416   3.547  20.910  0.00  0.00    +0.000 A 
ATOM     11  N   UNL     1       3.326   3.127  20.011  0.00  0.00    +0.000 NA
ATOM     12  C   UNL     1       3.839   4.044  19.183  0.00  0.00    +0.000 A 
ATOM     13  N   UNL     1       4.720   3.568  18.244  0.00  0.00    +0.000 N 
ATOM     14  N   UNL     1       3.490   5.341  19.205  0.00  0.00    +0.000 NA
ATOM     15  H   UNL     1       4.889   2.584  18.367  0.00  0.00    +0.000 HD
BRANCH  13  16
ATOM     16  C   UNL     1       5.751   4.424  17.669  0.00  0.00    +0.000 C 
ATOM     17  C   UNL     1       5.201   5.855  17.468  0.00  0.00    +0.000 C 
ATOM     18  C   UNL     1       5.412   6.074  15.966  0.00  0.00    +0.000 C 
ATOM     19  C   UNL     1       5.113   4.722  15.355  0.00  0.00    +0.000 C 
ATOM     20  C   UNL     1       6.150   4.027  16.226  0.00  0.00    +0.000 C 
ATOM     21  C   UNL     1       7.370   4.874  15.857  0.00  0.00    +0.000 C 
ATOM     22  O   UNL     1       6.840   6.219  15.768  0.00  0.00    +0.000 OA
ENDBRANCH  13  16
ENDBRANCH   4   8
BRANCH   7  23
ATOM     23  C   UNL     1       0.389  11.060  19.386  0.00  0.00    +0.000 C 
BRANCH  23  24
ATOM     24  C   UNL     1      -1.036  11.105  18.821  0.00  0.00    +0.000 A 
ATOM     25  C   UNL     1      -1.970  11.984  19.411  0.00  0.00    +0.000 A 
ATOM     26  C   UNL     1      -3.311  12.005  19.008  0.00  0.00    +0.000 A 
ATOM     27  C   UNL     1      -3.742  11.146  18.003  0.00  0.00    +0.000 A 
ATOM     28 CL   UNL     1      -5.403  11.143  17.547  0.00  0.00    +0.000 Cl
ATOM     29  C   UNL     1      -2.831  10.290  17.393  0.00  0.00    +0.000 A 
ATOM     30  F   UNL     1      -3.227   9.452  16.423  0.00  0.00    +0.000 F 
ATOM     31  C   UNL     1      -1.491  10.264  17.792  0.00  0.00    +0.000 A 
ENDBRANCH  23  24
BRANCH  23  32
ATOM     32  C   UNL     1       0.574  12.035  20.583  0.00  0.00    +0.000 C 
BRANCH  32  33
ATOM     33  O   UNL     1       1.928  12.397  20.862  0.00  0.00    +0.000 OA
ATOM     34  H   UNL     1       2.474  11.595  20.783  0.00  0.00    +0.000 HD
ENDBRANCH  32  33
ENDBRANCH  23  32
ENDBRANCH   7  23
TORSDOF 6
ENDMDL
MODEL 4
REMARK VINA RESULT:      -9.0      1.085      1.664
REMARK  Name = 
REMARK  6 active torsions:
REMARK  status: ('A' for Active; 'I' for Inactive)
REMARK    1  A    between atoms: C_4  and  C_5
REMARK    2  A    between atoms: N_10  and  C_11
REMARK    3  A    between atoms: N_21  and  C_22
REMARK    4  A    between atoms: C_22  and  C_23
REMARK    5  A    between atoms: C_22  and  C_25
REMARK    6  A    between atoms: C_23  and  O_24
REMARK                            x       y       z     vdW  Elec       q    Type
REMARK                         _______ _______ _______ _____ _____    ______ ____
ROOT
ATOM      1  O   UNL     1       2.169   9.500  17.318  0.00  0.00    +0.000 OA
ATOM      2  C   UNL     1       1.895   8.970  18.396  0.00  0.00    +0.000 A 
ATOM      3  C   UNL     1       2.430   7.611  18.679  0.00  0.00    +0.000 A 
ATOM      4  C   UNL     1       2.200   6.990  19.849  0.00  0.00    +0.000 A 
ATOM      5  C   UNL     1       1.407   7.700  20.846  0.00  0.00    +0.000 A 
ATOM      6  C   UNL     1       0.899   8.910  20.597  0.00  0.00    +0.000 A 
ATOM      7  N   UNL     1       1.114   9.560  19.395  0.00  0.00    +0.000 N 
ENDROOT
BRANCH   4   8
ATOM      8  C   UNL     1       2.684   5.591  20.022  0.00  0.00    +0.000 A 
ATOM      9  C   UNL     1       2.092   4.739  20.926  0.00  0.00    +0.000 A 
ATOM     10  C   UNL     1       2.535   3.439  20.894  0.00  0.00    +0.000 A 
ATOM     11  N   UNL     1       3.479   2.999  20.041  0.00  0.00    +0.000 NA
ATOM     12  C   UNL     1       4.026   3.896  19.214  0.00  0.00    +0.000 A 
ATOM     13  N   UNL     1       4.943   3.399  18.321  0.00  0.00    +0.000 N 
ATOM     14  N   UNL     1       3.679   5.194  19.194  0.00  0.00    +0.000 NA
ATOM     15  H   UNL     1       5.105   2.417  18.472  0.00  0.00    +0.000 HD
BRANCH  13  16
ATOM     16  C   UNL     1       5.996   4.241  17.768  0.00  0.00    +0.000 C 
ATOM     17  C   UNL     1       5.664   5.732  18.005  0.00  0.00    +0.000 C 
ATOM     18  C   UNL     1       5.671   6.294  16.580  0.00  0.00    +0.000 C 
ATOM     19  C   UNL     1       5.063   5.186  15.748  0.00  0.00    +0.000 C 
ATOM     20  C   UNL     1       6.095   4.174  16.224  0.00  0.00    +0.000 C 
ATOM     21  C   UNL     1       7.364   4.933  15.830  0.00  0.00    +0.000 C 
ATOM     22  O   UNL     1       7.055   6.310  16.150  0.00  0.00    +0.000 OA
ENDBRANCH  13  16
ENDBRANCH   4   8
BRANCH   7  23
ATOM     23  C   UNL     1       0.578  10.918  19.134  0.00  0.00    +0.000 C 
BRANCH  23  24
ATOM     24  C   UNL     1      -0.917  10.969  18.798  0.00  0.00    +0.000 A 
ATOM     25  C   UNL     1      -1.401  10.167  17.742  0.00  0.00    +0.000 A 
ATOM     26  C   UNL     1      -2.734  10.239  17.321  0.00  0.00    +0.000 A 
ATOM     27  C   UNL     1      -3.611  11.115  17.952  0.00  0.00    +0.000 A 
ATOM     28 CL   UNL     1      -5.237  11.232  17.397  0.00  0.00    +0.000 Cl
ATOM     29  C   UNL     1      -3.158  11.895  19.011  0.00  0.00    +0.000 A 
ATOM     30  F   UNL     1      -3.987  12.748  19.633  0.00  0.00    +0.000 F 
ATOM     31  C   UNL     1      -1.827  11.828  19.435  0.00  0.00    +0.000 A 
ENDBRANCH  23  24
BRANCH  23  32
ATOM     32  C   UNL     1       0.980  11.995  20.181  0.00  0.00    +0.000 C 
BRANCH  32  33
ATOM     33  O   UNL     1       2.040  12.864  19.777  0.00  0.00    +0.000 OA
ATOM     34  H   UNL     1       2.834  12.623  20.284  0.00  0.00    +0.000 HD
ENDBRANCH  32  33
ENDBRANCH  23  32
ENDBRANCH   7  23
TORSDOF 6
ENDMDL
MODEL 5
REMARK VINA RESULT:      -8.9      3.291      4.174
REMARK  Name = 
REMARK  6 active torsions:
REMARK  status: ('A' for Active; 'I' for Inactive)
REMARK    1  A    between atoms: C_4  and  C_5
REMARK    2  A    between atoms: N_10  and  C_11
REMARK    3  A    between atoms: N_21  and  C_22
REMARK    4  A    between atoms: C_22  and  C_23
REMARK    5  A    between atoms: C_22  and  C_25
REMARK    6  A    between atoms: C_23  and  O_24
REMARK                            x       y       z     vdW  Elec       q    Type
REMARK                         _______ _______ _______ _____ _____    ______ ____
ROOT
ATOM      1  O   UNL     1       0.586  10.739  21.850  0.00  0.00    +0.000 OA
ATOM      2  C   UNL     1       0.933  10.216  20.791  0.00  0.00    +0.000 A 
ATOM      3  C   UNL     1       1.348   8.788  20.802  0.00  0.00    +0.000 A 
ATOM      4  C   UNL     1       1.703   8.145  19.676  0.00  0.00    +0.000 A 
ATOM      5  C   UNL     1       1.664   8.898  18.428  0.00  0.00    +0.000 A 
ATOM      6  C   UNL     1       1.317  10.188  18.405  0.00  0.00    +0.000 A 
ATOM      7  N   UNL     1       0.959  10.870  19.554  0.00  0.00    +0.000 N 
ENDROOT
BRANCH   4   8
ATOM      8  C   UNL     1       2.202   6.745  19.781  0.00  0.00    +0.000 A 
ATOM      9  C   UNL     1       1.759   5.902  20.775  0.00  0.00    +0.000 A 
ATOM     10  C   UNL     1       2.185   4.600  20.683  0.00  0.00    +0.000 A 
ATOM     11  N   UNL     1       2.977   4.148  19.693  0.00  0.00    +0.000 NA
ATOM     12  C   UNL     1       3.389   5.036  18.782  0.00  0.00    +0.000 A 
ATOM     13  N   UNL     1       4.148   4.527  17.758  0.00  0.00    +0.000 N 
ATOM     14  N   UNL     1       3.049   6.336  18.808  0.00  0.00    +0.000 NA
ATOM     15  H   UNL     1       4.328   3.546  17.889  0.00  0.00    +0.000 HD
BRANCH  13  16
ATOM     16  C   UNL     1       5.104   5.358  17.037  0.00  0.00    +0.000 C 
ATOM     17  C   UNL     1       5.708   4.568  15.852  0.00  0.00    +0.000 C 
ATOM     18  C   UNL     1       7.208   4.631  16.154  0.00  0.00    +0.000 C 
ATOM     19  C   UNL     1       7.282   4.514  17.661  0.00  0.00    +0.000 C 
ATOM     20  C   UNL     1       6.365   5.711  17.864  0.00  0.00    +0.000 C 
ATOM     21  C   UNL     1       7.149   6.746  17.054  0.00  0.00    +0.000 C 
ATOM     22  O   UNL     1       7.622   5.998  15.908  0.00  0.00    +0.000 OA
ENDBRANCH  13  16
ENDBRANCH   4   8
BRANCH   7  23
ATOM     23  C   UNL     1       0.542  12.292  19.521  0.00  0.00    +0.000 C 
BRANCH  23  24
ATOM     24  C   UNL     1       1.693  13.301  19.425  0.00  0.00    +0.000 A 
ATOM     25  C   UNL     1       2.311  13.737  20.617  0.00  0.00    +0.000 A 
ATOM     26  C   UNL     1       3.300  14.729  20.607  0.00  0.00    +0.000 A 
ATOM     27  C   UNL     1       3.691  15.301  19.401  0.00  0.00    +0.000 A 
ATOM     28 CL   UNL     1       4.873  16.554  19.402  0.00  0.00    +0.000 Cl
ATOM     29  C   UNL     1       3.110  14.867  18.215  0.00  0.00    +0.000 A 
ATOM     30  F   UNL     1       3.471  15.407  17.040  0.00  0.00    +0.000 F 
ATOM     31  C   UNL     1       2.121  13.878  18.218  0.00  0.00    +0.000 A 
ENDBRANCH  23  24
BRANCH  23  32
ATOM     32  C   UNL     1      -0.606  12.617  18.524  0.00  0.00    +0.000 C 
BRANCH  32  33
ATOM     33  O   UNL     1      -1.901  12.740  19.114  0.00  0.00    +0.000 OA
ATOM     34  H   UNL     1      -1.933  13.586  19.594  0.00  0.00    +0.000 HD
ENDBRANCH  32  33
ENDBRANCH  23  32
ENDBRANCH   7  23
TORSDOF 6
ENDMDL
MODEL 6
REMARK VINA RESULT:      -8.7      1.133      1.478
REMARK  Name = 
REMARK  6 active torsions:
REMARK  status: ('A' for Active; 'I' for Inactive)
REMARK    1  A    between atoms: C_4  and  C_5
REMARK    2  A    between atoms: N_10  and  C_11
REMARK    3  A    between atoms: N_21  and  C_22
REMARK    4  A    between atoms: C_22  and  C_23
REMARK    5  A    between atoms: C_22  and  C_25
REMARK    6  A    between atoms: C_23  and  O_24
REMARK                            x       y       z     vdW  Elec       q    Type
REMARK                         _______ _______ _______ _____ _____    ______ ____
ROOT
ATOM      1  O   UNL     1      -0.177  10.273  21.716  0.00  0.00    +0.000 OA
ATOM      2  C   UNL     1       0.444   9.871  20.731  0.00  0.00    +0.000 A 
ATOM      3  C   UNL     1       0.987   8.486  20.745  0.00  0.00    +0.000 A 
ATOM      4  C   UNL     1       1.642   7.971  19.690  0.00  0.00    +0.000 A 
ATOM      5  C   UNL     1       1.801   8.820  18.515  0.00  0.00    +0.000 A 
ATOM      6  C   UNL     1       1.341  10.074  18.495  0.00  0.00    +0.000 A 
ATOM      7  N   UNL     1       0.675  10.626  19.575  0.00  0.00    +0.000 N 
ENDROOT
BRANCH   4   8
ATOM      8  C   UNL     1       2.243   6.614  19.816  0.00  0.00    +0.000 A 
ATOM      9  C   UNL     1       1.864   5.757  20.824  0.00  0.00    +0.000 A 
ATOM     10  C   UNL     1       2.386   4.489  20.753  0.00  0.00    +0.000 A 
ATOM     11  N   UNL     1       3.208   4.080  19.768  0.00  0.00    +0.000 NA
ATOM     12  C   UNL     1       3.552   4.982  18.842  0.00  0.00    +0.000 A 
ATOM     13  N   UNL     1       4.346   4.514  17.824  0.00  0.00    +0.000 N 
ATOM     14  N   UNL     1       3.117   6.253  18.847  0.00  0.00    +0.000 NA
ATOM     15  H   UNL     1       4.598   3.551  17.970  0.00  0.00    +0.000 HD
BRANCH  13  16
ATOM     16  C   UNL     1       5.236   5.402  17.087  0.00  0.00    +0.000 C 
ATOM     17  C   UNL     1       5.712   4.717  15.785  0.00  0.00    +0.000 C 
ATOM     18  C   UNL     1       7.236   4.748  15.942  0.00  0.00    +0.000 C 
ATOM     19  C   UNL     1       7.454   4.498  17.419  0.00  0.00    +0.000 C 
ATOM     20  C   UNL     1       6.576   5.676  17.814  0.00  0.00    +0.000 C 
ATOM     21  C   UNL     1       7.290   6.776  17.024  0.00  0.00    +0.000 C 
ATOM     22  O   UNL     1       7.639   6.130  15.776  0.00  0.00    +0.000 OA
ENDBRANCH  13  16
ENDBRANCH   4   8
BRANCH   7  23
ATOM     23  C   UNL     1       0.135  12.006  19.539  0.00  0.00    +0.000 C 
BRANCH  23  24
ATOM     24  C   UNL     1      -1.387  12.100  19.377  0.00  0.00    +0.000 A 
ATOM     25  C   UNL     1      -2.130  12.794  20.356  0.00  0.00    +0.000 A 
ATOM     26  C   UNL     1      -3.529  12.834  20.321  0.00  0.00    +0.000 A 
ATOM     27  C   UNL     1      -4.212  12.181  19.300  0.00  0.00    +0.000 A 
ATOM     28 CL   UNL     1      -5.935  12.194  19.290  0.00  0.00    +0.000 Cl
ATOM     29  C   UNL     1      -3.496  11.512  18.313  0.00  0.00    +0.000 A 
ATOM     30  F   UNL     1      -4.136  10.874  17.320  0.00  0.00    +0.000 F 
ATOM     31  C   UNL     1      -2.099  11.468  18.344  0.00  0.00    +0.000 A 
ENDBRANCH  23  24
BRANCH  23  32
ATOM     32  C   UNL     1       0.662  12.947  20.659  0.00  0.00    +0.000 C 
BRANCH  32  33
ATOM     33  O   UNL     1       1.941  12.595  21.190  0.00  0.00    +0.000 OA
ATOM     34  H   UNL     1       2.172  13.248  21.873  0.00  0.00    +0.000 HD
ENDBRANCH  32  33
ENDBRANCH  23  32
ENDBRANCH   7  23
TORSDOF 6
ENDMDL
MODEL 7
REMARK VINA RESULT:      -8.7      1.491      1.772
REMARK  Name = 
REMARK  6 active torsions:
REMARK  status: ('A' for Active; 'I' for Inactive)
REMARK    1  A    between atoms: C_4  and  C_5
REMARK    2  A    between atoms: N_10  and  C_11
REMARK    3  A    between atoms: N_21  and  C_22
REMARK    4  A    between atoms: C_22  and  C_23
REMARK    5  A    between atoms: C_22  and  C_25
REMARK    6  A    between atoms: C_23  and  O_24
REMARK                            x       y       z     vdW  Elec       q    Type
REMARK                         _______ _______ _______ _____ _____    ______ ____
ROOT
ATOM      1  O   UNL     1       1.228  10.836  17.954  0.00  0.00    +0.000 OA
ATOM      2  C   UNL     1       1.127  10.163  18.981  0.00  0.00    +0.000 A 
ATOM      3  C   UNL     1       1.693   8.788  18.991  0.00  0.00    +0.000 A 
ATOM      4  C   UNL     1       1.650   8.012  20.088  0.00  0.00    +0.000 A 
ATOM      5  C   UNL     1       1.030   8.570  21.284  0.00  0.00    +0.000 A 
ATOM      6  C   UNL     1       0.495   9.793  21.284  0.00  0.00    +0.000 A 
ATOM      7  N   UNL     1       0.518  10.602  20.162  0.00  0.00    +0.000 N 
ENDROOT
BRANCH   4   8
ATOM      8  C   UNL     1       2.148   6.611  19.992  0.00  0.00    +0.000 A 
ATOM      9  C   UNL     1       1.670   5.626  20.826  0.00  0.00    +0.000 A 
ATOM     10  C   UNL     1       2.103   4.352  20.550  0.00  0.00    +0.000 A 
ATOM     11  N   UNL     1       2.933   4.057  19.532  0.00  0.00    +0.000 NA
ATOM     12  C   UNL     1       3.377   5.074  18.786  0.00  0.00    +0.000 A 
ATOM     13  N   UNL     1       4.175   4.728  17.724  0.00  0.00    +0.000 N 
ATOM     14  N   UNL     1       3.033   6.355  19.000  0.00  0.00    +0.000 NA
ATOM     15  H   UNL     1       4.352   3.737  17.708  0.00  0.00    +0.000 HD
BRANCH  13  16
ATOM     16  C   UNL     1       5.155   5.658  17.177  0.00  0.00    +0.000 C 
ATOM     17  C   UNL     1       5.644   5.163  15.796  0.00  0.00    +0.000 C 
ATOM     18  C   UNL     1       7.158   5.058  16.008  0.00  0.00    +0.000 C 
ATOM     19  C   UNL     1       7.292   4.555  17.430  0.00  0.00    +0.000 C 
ATOM     20  C   UNL     1       6.475   5.712  17.985  0.00  0.00    +0.000 C 
ATOM     21  C   UNL     1       7.295   6.871  17.414  0.00  0.00    +0.000 C 
ATOM     22  O   UNL     1       7.658   6.415  16.089  0.00  0.00    +0.000 OA
ENDBRANCH  13  16
ENDBRANCH   4   8
BRANCH   7  23
ATOM     23  C   UNL     1      -0.045  11.973  20.173  0.00  0.00    +0.000 C 
BRANCH  23  24
ATOM     24  C   UNL     1      -1.571  12.045  20.041  0.00  0.00    +0.000 A 
ATOM     25  C   UNL     1      -2.164  11.652  18.822  0.00  0.00    +0.000 A 
ATOM     26  C   UNL     1      -3.540  11.785  18.601  0.00  0.00    +0.000 A 
ATOM     27  C   UNL     1      -4.351  12.314  19.600  0.00  0.00    +0.000 A 
ATOM     28 CL   UNL     1      -6.035  12.520  19.303  0.00  0.00    +0.000 Cl
ATOM     29  C   UNL     1      -3.788  12.685  20.816  0.00  0.00    +0.000 A 
ATOM     30  F   UNL     1      -4.552  13.199  21.793  0.00  0.00    +0.000 F 
ATOM     31  C   UNL     1      -2.414  12.555  21.042  0.00  0.00    +0.000 A 
ENDBRANCH  23  24
BRANCH  23  32
ATOM     32  C   UNL     1       0.488  12.893  21.309  0.00  0.00    +0.000 C 
BRANCH  32  33
ATOM     33  O   UNL     1       1.904  13.084  21.315  0.00  0.00    +0.000 OA
ATOM     34  H   UNL     1       2.085  13.965  21.686  0.00  0.00    +0.000 HD
ENDBRANCH  32  33
ENDBRANCH  23  32
ENDBRANCH   7  23
TORSDOF 6
ENDMDL
MODEL 8
REMARK VINA RESULT:      -8.6      2.152      2.455
REMARK  Name = 
REMARK  6 active torsions:
REMARK  status: ('A' for Active; 'I' for Inactive)
REMARK    1  A    between atoms: C_4  and  C_5
REMARK    2  A    between atoms: N_10  and  C_11
REMARK    3  A    between atoms: N_21  and  C_22
REMARK    4  A    between atoms: C_22  and  C_23
REMARK    5  A    between atoms: C_22  and  C_25
REMARK    6  A    between atoms: C_23  and  O_24
REMARK                            x       y       z     vdW  Elec       q    Type
REMARK                         _______ _______ _______ _____ _____    ______ ____
ROOT
ATOM      1  O   UNL     1       1.000  10.960  18.158  0.00  0.00    +0.000 OA
ATOM      2  C   UNL     1       1.020  10.281  19.185  0.00  0.00    +0.000 A 
ATOM      3  C   UNL     1       1.542   8.890  19.110  0.00  0.00    +0.000 A 
ATOM      4  C   UNL     1       1.625   8.105  20.199  0.00  0.00    +0.000 A 
ATOM      5  C   UNL     1       1.189   8.669  21.471  0.00  0.00    +0.000 A 
ATOM      6  C   UNL     1       0.696   9.907  21.551  0.00  0.00    +0.000 A 
ATOM      7  N   UNL     1       0.590  10.725  20.440  0.00  0.00    +0.000 N 
ENDROOT
BRANCH   4   8
ATOM      8  C   UNL     1       2.064   6.692  20.028  0.00  0.00    +0.000 A 
ATOM      9  C   UNL     1       1.565   5.689  20.828  0.00  0.00    +0.000 A 
ATOM     10  C   UNL     1       1.940   4.413  20.484  0.00  0.00    +0.000 A 
ATOM     11  N   UNL     1       2.736   4.132  19.435  0.00  0.00    +0.000 NA
ATOM     12  C   UNL     1       3.204   5.165  18.726  0.00  0.00    +0.000 A 
ATOM     13  N   UNL     1       3.964   4.837  17.631  0.00  0.00    +0.000 N 
ATOM     14  N   UNL     1       2.916   6.447  19.005  0.00  0.00    +0.000 NA
ATOM     15  H   UNL     1       4.101   3.842  17.566  0.00  0.00    +0.000 HD
BRANCH  13  16
ATOM     16  C   UNL     1       4.969   5.752  17.103  0.00  0.00    +0.000 C 
ATOM     17  C   UNL     1       5.578   5.180  15.802  0.00  0.00    +0.000 C 
ATOM     18  C   UNL     1       7.071   5.124  16.142  0.00  0.00    +0.000 C 
ATOM     19  C   UNL     1       7.097   4.717  17.600  0.00  0.00    +0.000 C 
ATOM     20  C   UNL     1       6.217   5.889  18.010  0.00  0.00    +0.000 C 
ATOM     21  C   UNL     1       7.060   7.027  17.431  0.00  0.00    +0.000 C 
ATOM     22  O   UNL     1       7.538   6.495  16.172  0.00  0.00    +0.000 OA
ENDBRANCH  13  16
ENDBRANCH   4   8
BRANCH   7  23
ATOM     23  C   UNL     1       0.074  12.112  20.536  0.00  0.00    +0.000 C 
BRANCH  23  24
ATOM     24  C   UNL     1      -1.365  12.231  21.051  0.00  0.00    +0.000 A 
ATOM     25  C   UNL     1      -2.381  12.596  20.141  0.00  0.00    +0.000 A 
ATOM     26  C   UNL     1      -3.697  12.818  20.564  0.00  0.00    +0.000 A 
ATOM     27  C   UNL     1      -4.022  12.675  21.909  0.00  0.00    +0.000 A 
ATOM     28 CL   UNL     1      -5.633  12.996  22.430  0.00  0.00    +0.000 Cl
ATOM     29  C   UNL     1      -3.040  12.292  22.817  0.00  0.00    +0.000 A 
ATOM     30  F   UNL     1      -3.332  12.151  24.119  0.00  0.00    +0.000 F 
ATOM     31  C   UNL     1      -1.723  12.071  22.400  0.00  0.00    +0.000 A 
ENDBRANCH  23  24
BRANCH  23  32
ATOM     32  C   UNL     1       1.030  13.122  21.233  0.00  0.00    +0.000 C 
BRANCH  32  33
ATOM     33  O   UNL     1       2.272  13.339  20.560  0.00  0.00    +0.000 OA
ATOM     34  H   UNL     1       2.424  14.298  20.514  0.00  0.00    +0.000 HD
ENDBRANCH  32  33
ENDBRANCH  23  32
ENDBRANCH   7  23
TORSDOF 6
ENDMDL
MODEL 9
REMARK VINA RESULT:      -8.6      3.160      3.998
REMARK  Name = 
REMARK  6 active torsions:
REMARK  status: ('A' for Active; 'I' for Inactive)
REMARK    1  A    between atoms: C_4  and  C_5
REMARK    2  A    between atoms: N_10  and  C_11
REMARK    3  A    between atoms: N_21  and  C_22
REMARK    4  A    between atoms: C_22  and  C_23
REMARK    5  A    between atoms: C_22  and  C_25
REMARK    6  A    between atoms: C_23  and  O_24
REMARK                            x       y       z     vdW  Elec       q    Type
REMARK                         _______ _______ _______ _____ _____    ______ ____
ROOT
ATOM      1  O   UNL     1      -0.455  10.437  21.560  0.00  0.00    +0.000 OA
ATOM      2  C   UNL     1       0.218  10.021  20.616  0.00  0.00    +0.000 A 
ATOM      3  C   UNL     1       0.797   8.653  20.700  0.00  0.00    +0.000 A 
ATOM      4  C   UNL     1       1.510   8.123  19.691  0.00  0.00    +0.000 A 
ATOM      5  C   UNL     1       1.696   8.938  18.496  0.00  0.00    +0.000 A 
ATOM      6  C   UNL     1       1.204  10.176  18.415  0.00  0.00    +0.000 A 
ATOM      7  N   UNL     1       0.478  10.744  19.446  0.00  0.00    +0.000 N 
ENDROOT
BRANCH   4   8
ATOM      8  C   UNL     1       2.141   6.788  19.888  0.00  0.00    +0.000 A 
ATOM      9  C   UNL     1       1.750   5.958  20.914  0.00  0.00    +0.000 A 
ATOM     10  C   UNL     1       2.307   4.703  20.907  0.00  0.00    +0.000 A 
ATOM     11  N   UNL     1       3.174   4.282  19.967  0.00  0.00    +0.000 NA
ATOM     12  C   UNL     1       3.526   5.158  19.020  0.00  0.00    +0.000 A 
ATOM     13  N   UNL     1       4.367   4.675  18.048  0.00  0.00    +0.000 N 
ATOM     14  N   UNL     1       3.058   6.416  18.964  0.00  0.00    +0.000 NA
ATOM     15  H   UNL     1       4.638   3.725  18.239  0.00  0.00    +0.000 HD
BRANCH  13  16
ATOM     16  C   UNL     1       5.259   5.560  17.310  0.00  0.00    +0.000 C 
ATOM     17  C   UNL     1       5.632   4.925  15.950  0.00  0.00    +0.000 C 
ATOM     18  C   UNL     1       7.162   4.878  16.025  0.00  0.00    +0.000 C 
ATOM     19  C   UNL     1       7.446   4.541  17.473  0.00  0.00    +0.000 C 
ATOM     20  C   UNL     1       6.647   5.734  17.975  0.00  0.00    +0.000 C 
ATOM     21  C   UNL     1       7.371   6.841  17.204  0.00  0.00    +0.000 C 
ATOM     22  O   UNL     1       7.622   6.247  15.907  0.00  0.00    +0.000 OA
ENDBRANCH  13  16
ENDBRANCH   4   8
BRANCH   7  23
ATOM     23  C   UNL     1      -0.097  12.106  19.341  0.00  0.00    +0.000 C 
BRANCH  23  24
ATOM     24  C   UNL     1       0.903  13.201  18.952  0.00  0.00    +0.000 A 
ATOM     25  C   UNL     1       2.170  12.817  18.464  0.00  0.00    +0.000 A 
ATOM     26  C   UNL     1       3.164  13.762  18.183  0.00  0.00    +0.000 A 
ATOM     27  C   UNL     1       2.905  15.115  18.384  0.00  0.00    +0.000 A 
ATOM     28 CL   UNL     1       4.148  16.268  18.082  0.00  0.00    +0.000 Cl
ATOM     29  C   UNL     1       1.654  15.514  18.842  0.00  0.00    +0.000 A 
ATOM     30  F   UNL     1       1.385  16.813  19.044  0.00  0.00    +0.000 F 
ATOM     31  C   UNL     1       0.659  14.574  19.126  0.00  0.00    +0.000 A 
ENDBRANCH  23  24
BRANCH  23  32
ATOM     32  C   UNL     1      -1.417  12.202  18.523  0.00  0.00    +0.000 C 
BRANCH  32  33
ATOM     33  O   UNL     1      -1.246  12.511  17.139  0.00  0.00    +0.000 OA
ATOM     34  H   UNL     1      -0.307  12.717  16.991  0.00  0.00    +0.000 HD
ENDBRANCH  32  33
ENDBRANCH  23  32
ENDBRANCH   7  23
TORSDOF 6
ENDMDL
