MODEL 1
REMARK VINA RESULT:      -7.7      0.000      0.000
REMARK  Name = 
REMARK  6 active torsions:
REMARK  status: ('A' for Active; 'I' for Inactive)
REMARK    1  A    between atoms: C_1  and  N_2
REMARK    2  A    between atoms: C_3  and  C_4
REMARK    3  A    between atoms: C_4  and  N_5
REMARK    4  A    between atoms: C_8  and  N_9
REMARK    5  A    between atoms: C_10  and  C_12
REMARK    6  A    between atoms: C_18  and  O_19
REMARK                            x       y       z     vdW  Elec       q    Type
REMARK                         _______ _______ _______ _____ _____    ______ ____
ROOT
ATOM      1  N   UNL     1       1.303  10.762  19.169  0.00  0.00    +0.000 NA
ATOM      2  C   UNL     1       1.751  10.091  17.957  0.00  0.00    +0.000 C 
ATOM      3  C   UNL     1       1.798   8.567  17.999  0.00  0.00    +0.000 C 
ATOM      4  C   UNL     1       2.210   8.053  19.370  0.00  0.00    +0.000 C 
ATOM      5  C   UNL     1       1.191   8.511  20.424  0.00  0.00    +0.000 C 
ATOM      6  C   UNL     1       0.728   9.975  20.258  0.00  0.00    +0.000 C 
ENDROOT
BRANCH   4   7
ATOM      7  N   UNL     1       2.304   6.588  19.349  0.00  0.00    +0.000 N 
ATOM      8  C   UNL     1       3.328   5.929  18.703  0.00  0.00    +0.000 C 
ATOM      9  O   UNL     1       4.291   6.497  18.214  0.00  0.00    +0.000 OA
ATOM     10  H   UNL     1       1.588   6.061  19.831  0.00  0.00    +0.000 HD
BRANCH   8  11
ATOM     11  C   UNL     1       3.218   4.455  18.614  0.00  0.00    +0.000 A 
ATOM     12  C   UNL     1       2.343   3.804  17.741  0.00  0.00    +0.000 A 
ATOM     13  C   UNL     1       2.365   2.414  17.665  0.00  0.00    +0.000 A 
ATOM     14  C   UNL     1       3.261   1.721  18.465  0.00  0.00    +0.000 A 
ATOM     15  N   UNL     1       4.117   2.317  19.323  0.00  0.00    +0.000 NA
ATOM     16  C   UNL     1       4.084   3.675  19.370  0.00  0.00    +0.000 A 
ENDBRANCH   8  11
ENDBRANCH   4   7
BRANCH   5  17
ATOM     17  O   UNL     1       1.723   8.289  21.738  0.00  0.00    +0.000 OA
ATOM     18  H   UNL     1       1.480   9.058  22.284  0.00  0.00    +0.000 HD
ENDBRANCH   5  17
BRANCH   1  19
ATOM     19  C   UNL     1       0.593  12.035  18.927  0.00  0.00    +0.000 C 
BRANCH  19  22
ATOM     20  C   UNL     1      -1.633  13.348  20.756  0.00  0.00    +0.000 C 
ATOM     21  N   UNL     1      -1.845  12.491  19.614  0.00  0.00    +0.000 N 
ATOM     22  C   UNL     1      -0.909  11.930  18.764  0.00  0.00    +0.000 A 
ATOM     23  N   UNL     1      -1.524  11.244  17.811  0.00  0.00    +0.000 NA
ATOM     24  C   UNL     1      -2.867  11.336  18.067  0.00  0.00    +0.000 A 
ATOM     25  C   UNL     1      -3.957  10.785  17.376  0.00  0.00    +0.000 A 
ATOM     26  C   UNL     1      -5.253  11.016  17.859  0.00  0.00    +0.000 A 
ATOM     27  C   UNL     1      -5.461  11.778  19.008  0.00  0.00    +0.000 A 
ATOM     28  C   UNL     1      -4.387  12.337  19.708  0.00  0.00    +0.000 A 
ATOM     29  C   UNL     1      -3.102  12.099  19.203  0.00  0.00    +0.000 A 
ENDBRANCH  19  22
ENDBRANCH   1  19
TORSDOF 5
ENDMDL
MODEL 2
REMARK VINA RESULT:      -7.5      0.614      1.560
REMARK  Name = 
REMARK  6 active torsions:
REMARK  status: ('A' for Active; 'I' for Inactive)
REMARK    1  A    between atoms: C_1  and  N_2
REMARK    2  A    between atoms: C_3  and  C_4
REMARK    3  A    between atoms: C_4  and  N_5
REMARK    4  A    between atoms: C_8  and  N_9
REMARK    5  A    between atoms: C_10  and  C_12
REMARK    6  A    between atoms: C_18  and  O_19
REMARK                            x       y       z     vdW  Elec       q    Type
REMARK                         _______ _______ _______ _____ _____    ______ ____
ROOT
ATOM      1  N   UNL     1       1.301  10.745  19.053  0.00  0.00    +0.000 NA
ATOM      2  C   UNL     1       1.745  10.052  17.852  0.00  0.00    +0.000 C 
ATOM      3  C   UNL     1       1.787   8.529  17.920  0.00  0.00    +0.000 C 
ATOM      4  C   UNL     1       2.198   8.036  19.298  0.00  0.00    +0.000 C 
ATOM      5  C   UNL     1       1.183   8.516  20.346  0.00  0.00    +0.000 C 
ATOM      6  C   UNL     1       0.725   9.978  20.157  0.00  0.00    +0.000 C 
ENDROOT
BRANCH   4   7
ATOM      7  N   UNL     1       2.287   6.571  19.303  0.00  0.00    +0.000 N 
ATOM      8  C   UNL     1       3.321   5.899  18.687  0.00  0.00    +0.000 C 
ATOM      9  O   UNL     1       4.296   6.455  18.206  0.00  0.00    +0.000 OA
ATOM     10  H   UNL     1       1.561   6.054  19.779  0.00  0.00    +0.000 HD
BRANCH   8  11
ATOM     11  C   UNL     1       3.207   4.424  18.619  0.00  0.00    +0.000 A 
ATOM     12  C   UNL     1       2.369   3.761  17.718  0.00  0.00    +0.000 A 
ATOM     13  C   UNL     1       2.387   2.370  17.667  0.00  0.00    +0.000 A 
ATOM     14  C   UNL     1       3.242   1.687  18.519  0.00  0.00    +0.000 A 
ATOM     15  N   UNL     1       4.061   2.295  19.405  0.00  0.00    +0.000 NA
ATOM     16  C   UNL     1       4.034   3.653  19.427  0.00  0.00    +0.000 A 
ENDBRANCH   8  11
ENDBRANCH   4   7
BRANCH   5  17
ATOM     17  O   UNL     1       1.717   8.314  21.664  0.00  0.00    +0.000 OA
ATOM     18  H   UNL     1       2.539   8.831  21.726  0.00  0.00    +0.000 HD
ENDBRANCH   5  17
BRANCH   1  19
ATOM     19  C   UNL     1       0.595  12.017  18.791  0.00  0.00    +0.000 C 
BRANCH  19  22
ATOM     20  C   UNL     1      -1.773  10.739  17.124  0.00  0.00    +0.000 C 
ATOM     21  N   UNL     1      -1.885  11.491  18.351  0.00  0.00    +0.000 N 
ATOM     22  C   UNL     1      -0.881  12.032  19.133  0.00  0.00    +0.000 A 
ATOM     23  N   UNL     1      -1.407  12.607  20.204  0.00  0.00    +0.000 NA
ATOM     24  C   UNL     1      -2.766  12.467  20.096  0.00  0.00    +0.000 A 
ATOM     25  C   UNL     1      -3.790  12.905  20.951  0.00  0.00    +0.000 A 
ATOM     26  C   UNL     1      -5.122  12.646  20.601  0.00  0.00    +0.000 A 
ATOM     27  C   UNL     1      -5.431  11.966  19.423  0.00  0.00    +0.000 A 
ATOM     28  C   UNL     1      -4.425  11.521  18.561  0.00  0.00    +0.000 A 
ATOM     29  C   UNL     1      -3.100  11.784  18.934  0.00  0.00    +0.000 A 
ENDBRANCH  19  22
ENDBRANCH   1  19
TORSDOF 5
ENDMDL
MODEL 3
REMARK VINA RESULT:      -7.3      1.161      2.019
REMARK  Name = 
REMARK  6 active torsions:
REMARK  status: ('A' for Active; 'I' for Inactive)
REMARK    1  A    between atoms: C_1  and  N_2
REMARK    2  A    between atoms: C_3  and  C_4
REMARK    3  A    between atoms: C_4  and  N_5
REMARK    4  A    between atoms: C_8  and  N_9
REMARK    5  A    between atoms: C_10  and  C_12
REMARK    6  A    between atoms: C_18  and  O_19
REMARK                            x       y       z     vdW  Elec       q    Type
REMARK                         _______ _______ _______ _____ _____    ______ ____
ROOT
ATOM      1  N   UNL     1       1.204  11.122  19.426  0.00  0.00    +0.000 NA
ATOM      2  C   UNL     1       1.573  10.590  18.122  0.00  0.00    +0.000 C 
ATOM      3  C   UNL     1       1.599   9.071  17.988  0.00  0.00    +0.000 C 
ATOM      4  C   UNL     1       2.079   8.400  19.265  0.00  0.00    +0.000 C 
ATOM      5  C   UNL     1       1.128   8.743  20.421  0.00  0.00    +0.000 C 
ATOM      6  C   UNL     1       0.678  10.220  20.450  0.00  0.00    +0.000 C 
ENDROOT
BRANCH   4   7
ATOM      7  N   UNL     1       2.150   6.947  19.073  0.00  0.00    +0.000 N 
ATOM      8  C   UNL     1       3.084   6.362  18.245  0.00  0.00    +0.000 C 
ATOM      9  O   UNL     1       3.994   6.980  17.713  0.00  0.00    +0.000 OA
ATOM     10  H   UNL     1       1.486   6.370  19.572  0.00  0.00    +0.000 HD
BRANCH   8  11
ATOM     11  C   UNL     1       2.945   4.907  18.007  0.00  0.00    +0.000 A 
ATOM     12  C   UNL     1       4.036   4.044  17.884  0.00  0.00    +0.000 A 
ATOM     13  C   UNL     1       3.811   2.676  17.744  0.00  0.00    +0.000 A 
ATOM     14  C   UNL     1       2.503   2.219  17.732  0.00  0.00    +0.000 A 
ATOM     15  N   UNL     1       1.425   3.025  17.844  0.00  0.00    +0.000 NA
ATOM     16  C   UNL     1       1.671   4.353  17.991  0.00  0.00    +0.000 A 
ENDBRANCH   8  11
ENDBRANCH   4   7
BRANCH   5  17
ATOM     17  O   UNL     1       1.730   8.368  21.669  0.00  0.00    +0.000 OA
ATOM     18  H   UNL     1       1.124   7.745  22.108  0.00  0.00    +0.000 HD
ENDBRANCH   5  17
BRANCH   1  19
ATOM     19  C   UNL     1       0.500  12.421  19.372  0.00  0.00    +0.000 C 
BRANCH  19  22
ATOM     20  C   UNL     1      -2.005  11.709  17.573  0.00  0.00    +0.000 C 
ATOM     21  N   UNL     1      -2.021  12.117  18.957  0.00  0.00    +0.000 N 
ATOM     22  C   UNL     1      -0.955  12.398  19.792  0.00  0.00    +0.000 A 
ATOM     23  N   UNL     1      -1.401  12.691  21.005  0.00  0.00    +0.000 NA
ATOM     24  C   UNL     1      -2.769  12.633  20.944  0.00  0.00    +0.000 A 
ATOM     25  C   UNL     1      -3.728  12.868  21.942  0.00  0.00    +0.000 A 
ATOM     26  C   UNL     1      -5.086  12.756  21.616  0.00  0.00    +0.000 A 
ATOM     27  C   UNL     1      -5.485  12.421  20.322  0.00  0.00    +0.000 A 
ATOM     28  C   UNL     1      -4.544  12.181  19.316  0.00  0.00    +0.000 A 
ATOM     29  C   UNL     1      -3.191  12.290  19.666  0.00  0.00    +0.000 A 
ENDBRANCH  19  22
ENDBRANCH   1  19
TORSDOF 5
ENDMDL
MODEL 4
REMARK VINA RESULT:      -7.3      1.523      1.653
REMARK  Name = 
REMARK  6 active torsions:
REMARK  status: ('A' for Active; 'I' for Inactive)
REMARK    1  A    between atoms: C_1  and  N_2
REMARK    2  A    between atoms: C_3  and  C_4
REMARK    3  A    between atoms: C_4  and  N_5
REMARK    4  A    between atoms: C_8  and  N_9
REMARK    5  A    between atoms: C_10  and  C_12
REMARK    6  A    between atoms: C_18  and  O_19
REMARK                            x       y       z     vdW  Elec       q    Type
REMARK                         _______ _______ _______ _____ _____    ______ ____
ROOT
ATOM      1  N   UNL     1       0.353  11.521  19.962  0.00  0.00    +0.000 NA
ATOM      2  C   UNL     1       0.770  10.689  18.843  0.00  0.00    +0.000 C 
ATOM      3  C   UNL     1       0.916   9.196  19.120  0.00  0.00    +0.000 C 
ATOM      4  C   UNL     1       1.439   8.931  20.522  0.00  0.00    +0.000 C 
ATOM      5  C   UNL     1       0.457   9.498  21.559  0.00  0.00    +0.000 C 
ATOM      6  C   UNL     1      -0.107  10.890  21.198  0.00  0.00    +0.000 C 
ENDROOT
BRANCH   4   7
ATOM      7  N   UNL     1       1.624   7.489  20.725  0.00  0.00    +0.000 N 
ATOM      8  C   UNL     1       2.349   6.713  19.847  0.00  0.00    +0.000 C 
ATOM      9  O   UNL     1       2.992   7.172  18.915  0.00  0.00    +0.000 OA
ATOM     10  H   UNL     1       1.201   7.068  21.541  0.00  0.00    +0.000 HD
BRANCH   8  11
ATOM     11  C   UNL     1       2.321   5.250  20.073  0.00  0.00    +0.000 A 
ATOM     12  C   UNL     1       1.205   4.574  20.570  0.00  0.00    +0.000 A 
ATOM     13  C   UNL     1       1.239   3.185  20.674  0.00  0.00    +0.000 A 
ATOM     14  C   UNL     1       2.388   2.520  20.276  0.00  0.00    +0.000 A 
ATOM     15  N   UNL     1       3.486   3.142  19.795  0.00  0.00    +0.000 NA
ATOM     16  C   UNL     1       3.424   4.495  19.693  0.00  0.00    +0.000 A 
ENDBRANCH   8  11
ENDBRANCH   4   7
BRANCH   5  17
ATOM     17  O   UNL     1       1.079   9.518  22.852  0.00  0.00    +0.000 OA
ATOM     18  H   UNL     1       0.407   9.244  23.502  0.00  0.00    +0.000 HD
ENDBRANCH   5  17
BRANCH   1  19
ATOM     19  C   UNL     1      -0.449  12.700  19.573  0.00  0.00    +0.000 C 
BRANCH  19  22
ATOM     20  C   UNL     1      -2.844  13.645  21.415  0.00  0.00    +0.000 C 
ATOM     21  N   UNL     1      -2.937  12.849  20.215  0.00  0.00    +0.000 N 
ATOM     22  C   UNL     1      -1.927  12.448  19.359  0.00  0.00    +0.000 A 
ATOM     23  N   UNL     1      -2.443  11.766  18.346  0.00  0.00    +0.000 NA
ATOM     24  C   UNL     1      -3.794  11.699  18.568  0.00  0.00    +0.000 A 
ATOM     25  C   UNL     1      -4.803  11.083  17.810  0.00  0.00    +0.000 A 
ATOM     26  C   UNL     1      -6.126  11.144  18.268  0.00  0.00    +0.000 A 
ATOM     27  C   UNL     1      -6.441  11.802  19.457  0.00  0.00    +0.000 A 
ATOM     28  C   UNL     1      -5.450  12.422  20.222  0.00  0.00    +0.000 A 
ATOM     29  C   UNL     1      -4.135  12.355  19.742  0.00  0.00    +0.000 A 
ENDBRANCH  19  22
ENDBRANCH   1  19
TORSDOF 5
ENDMDL
MODEL 5
REMARK VINA RESULT:      -7.3      1.571      2.329
REMARK  Name = 
REMARK  6 active torsions:
REMARK  status: ('A' for Active; 'I' for Inactive)
REMARK    1  A    between atoms: C_1  and  N_2
REMARK    2  A    between atoms: C_3  and  C_4
REMARK    3  A    between atoms: C_4  and  N_5
REMARK    4  A    between atoms: C_8  and  N_9
REMARK    5  A    between atoms: C_10  and  C_12
REMARK    6  A    between atoms: C_18  and  O_19
REMARK                            x       y       z     vdW  Elec       q    Type
REMARK                         _______ _______ _______ _____ _____    ______ ____
ROOT
ATOM      1  N   UNL     1      -0.072  11.624  19.777  0.00  0.00    +0.000 NA
ATOM      2  C   UNL     1       0.436  10.806  18.685  0.00  0.00    +0.000 C 
ATOM      3  C   UNL     1       0.720   9.342  19.005  0.00  0.00    +0.000 C 
ATOM      4  C   UNL     1       1.247   9.165  20.420  0.00  0.00    +0.000 C 
ATOM      5  C   UNL     1       0.203   9.663  21.430  0.00  0.00    +0.000 C 
ATOM      6  C   UNL     1      -0.486  10.985  21.025  0.00  0.00    +0.000 C 
ENDROOT
BRANCH   4   7
ATOM      7  N   UNL     1       1.565   7.753  20.665  0.00  0.00    +0.000 N 
ATOM      8  C   UNL     1       2.288   6.999  19.766  0.00  0.00    +0.000 C 
ATOM      9  O   UNL     1       2.823   7.465  18.772  0.00  0.00    +0.000 OA
ATOM     10  H   UNL     1       1.238   7.337  21.526  0.00  0.00    +0.000 HD
BRANCH   8  11
ATOM     11  C   UNL     1       2.398   5.550  20.050  0.00  0.00    +0.000 A 
ATOM     12  C   UNL     1       1.382   4.811  20.662  0.00  0.00    +0.000 A 
ATOM     13  C   UNL     1       1.538   3.436  20.816  0.00  0.00    +0.000 A 
ATOM     14  C   UNL     1       2.705   2.846  20.355  0.00  0.00    +0.000 A 
ATOM     15  N   UNL     1       3.708   3.530  19.763  0.00  0.00    +0.000 NA
ATOM     16  C   UNL     1       3.527   4.868  19.614  0.00  0.00    +0.000 A 
ENDBRANCH   8  11
ENDBRANCH   4   7
BRANCH   5  17
ATOM     17  O   UNL     1       0.803   9.777  22.729  0.00  0.00    +0.000 OA
ATOM     18  H   UNL     1       0.305   9.197  23.332  0.00  0.00    +0.000 HD
ENDBRANCH   5  17
BRANCH   1  19
ATOM     19  C   UNL     1      -0.978  12.710  19.347  0.00  0.00    +0.000 C 
BRANCH  19  22
ATOM     20  C   UNL     1      -2.460  11.165  17.016  0.00  0.00    +0.000 C 
ATOM     21  N   UNL     1      -3.058  11.707  18.213  0.00  0.00    +0.000 N 
ATOM     22  C   UNL     1      -2.447  12.351  19.273  0.00  0.00    +0.000 A 
ATOM     23  N   UNL     1      -3.349  12.651  20.196  0.00  0.00    +0.000 NA
ATOM     24  C   UNL     1      -4.560  12.226  19.712  0.00  0.00    +0.000 A 
ATOM     25  C   UNL     1      -5.839  12.309  20.283  0.00  0.00    +0.000 A 
ATOM     26  C   UNL     1      -6.934  11.807  19.567  0.00  0.00    +0.000 A 
ATOM     27  C   UNL     1      -6.762  11.235  18.307  0.00  0.00    +0.000 A 
ATOM     28  C   UNL     1      -5.495  11.141  17.724  0.00  0.00    +0.000 A 
ATOM     29  C   UNL     1      -4.413  11.643  18.461  0.00  0.00    +0.000 A 
ENDBRANCH  19  22
ENDBRANCH   1  19
TORSDOF 5
ENDMDL
MODEL 6
REMARK VINA RESULT:      -7.2      2.927      9.419
REMARK  Name = 
REMARK  6 active torsions:
REMARK  status: ('A' for Active; 'I' for Inactive)
REMARK    1  A    between atoms: C_1  and  N_2
REMARK    2  A    between atoms: C_3  and  C_4
REMARK    3  A    between atoms: C_4  and  N_5
REMARK    4  A    between atoms: C_8  and  N_9
REMARK    5  A    between atoms: C_10  and  C_12
REMARK    6  A    between atoms: C_18  and  O_19
REMARK                            x       y       z     vdW  Elec       q    Type
REMARK                         _______ _______ _______ _____ _____    ______ ____
ROOT
ATOM      1  N   UNL     1       2.957   5.839  19.535  0.00  0.00    +0.000 NA
ATOM      2  C   UNL     1       2.169   5.853  20.759  0.00  0.00    +0.000 C 
ATOM      3  C   UNL     1       1.143   6.973  20.896  0.00  0.00    +0.000 C 
ATOM      4  C   UNL     1       1.636   8.270  20.274  0.00  0.00    +0.000 C 
ATOM      5  C   UNL     1       1.893   8.062  18.774  0.00  0.00    +0.000 C 
ATOM      6  C   UNL     1       2.594   6.729  18.433  0.00  0.00    +0.000 C 
ENDROOT
BRANCH   4   7
ATOM      7  N   UNL     1       0.649   9.335  20.483  0.00  0.00    +0.000 N 
ATOM      8  C   UNL     1       0.541  10.009  21.682  0.00  0.00    +0.000 C 
ATOM      9  O   UNL     1       1.325   9.868  22.607  0.00  0.00    +0.000 OA
ATOM     10  H   UNL     1       0.038   9.572  19.714  0.00  0.00    +0.000 HD
BRANCH   8  11
ATOM     11  C   UNL     1      -0.600  10.942  21.819  0.00  0.00    +0.000 A 
ATOM     12  C   UNL     1      -1.115  11.685  20.754  0.00  0.00    +0.000 A 
ATOM     13  C   UNL     1      -2.243  12.476  20.956  0.00  0.00    +0.000 A 
ATOM     14  C   UNL     1      -2.819  12.497  22.216  0.00  0.00    +0.000 A 
ATOM     15  N   UNL     1      -2.346  11.795  23.269  0.00  0.00    +0.000 NA
ATOM     16  C   UNL     1      -1.252  11.023  23.044  0.00  0.00    +0.000 A 
ENDBRANCH   8  11
ENDBRANCH   4   7
BRANCH   5  17
ATOM     17  O   UNL     1       2.631   9.177  18.252  0.00  0.00    +0.000 OA
ATOM     18  H   UNL     1       2.306   9.977  18.700  0.00  0.00    +0.000 HD
ENDBRANCH   5  17
BRANCH   1  19
ATOM     19  C   UNL     1       3.356   4.487  19.088  0.00  0.00    +0.000 C 
BRANCH  19  22
ATOM     20  C   UNL     1       6.391   5.377  18.974  0.00  0.00    +0.000 C 
ATOM     21  N   UNL     1       5.595   4.874  17.881  0.00  0.00    +0.000 N 
ATOM     22  C   UNL     1       4.283   4.437  17.891  0.00  0.00    +0.000 A 
ATOM     23  N   UNL     1       3.942   4.011  16.684  0.00  0.00    +0.000 NA
ATOM     24  C   UNL     1       5.034   4.207  15.878  0.00  0.00    +0.000 A 
ATOM     25  C   UNL     1       5.205   3.940  14.510  0.00  0.00    +0.000 A 
ATOM     26  C   UNL     1       6.431   4.251  13.908  0.00  0.00    +0.000 A 
ATOM     27  C   UNL     1       7.468   4.819  14.650  0.00  0.00    +0.000 A 
ATOM     28  C   UNL     1       7.316   5.089  16.013  0.00  0.00    +0.000 A 
ATOM     29  C   UNL     1       6.084   4.763  16.596  0.00  0.00    +0.000 A 
ENDBRANCH  19  22
ENDBRANCH   1  19
TORSDOF 5
ENDMDL
MODEL 7
REMARK VINA RESULT:      -7.2      2.491      4.208
REMARK  Name = 
REMARK  6 active torsions:
REMARK  status: ('A' for Active; 'I' for Inactive)
REMARK    1  A    between atoms: C_1  and  N_2
REMARK    2  A    between atoms: C_3  and  C_4
REMARK    3  A    between atoms: C_4  and  N_5
REMARK    4  A    between atoms: C_8  and  N_9
REMARK    5  A    between atoms: C_10  and  C_12
REMARK    6  A    between atoms: C_18  and  O_19
REMARK                            x       y       z     vdW  Elec       q    Type
REMARK                         _______ _______ _______ _____ _____    ______ ____
ROOT
ATOM      1  N   UNL     1       1.251  10.447  19.072  0.00  0.00    +0.000 NA
ATOM      2  C   UNL     1       1.649   9.756  17.855  0.00  0.00    +0.000 C 
ATOM      3  C   UNL     1       1.740   8.235  17.933  0.00  0.00    +0.000 C 
ATOM      4  C   UNL     1       2.241   7.769  19.291  0.00  0.00    +0.000 C 
ATOM      5  C   UNL     1       1.271   8.229  20.389  0.00  0.00    +0.000 C 
ATOM      6  C   UNL     1       0.758   9.675  20.212  0.00  0.00    +0.000 C 
ENDROOT
BRANCH   4   7
ATOM      7  N   UNL     1       2.375   6.308  19.303  0.00  0.00    +0.000 N 
ATOM      8  C   UNL     1       3.454   5.666  18.734  0.00  0.00    +0.000 C 
ATOM      9  O   UNL     1       4.432   6.252  18.296  0.00  0.00    +0.000 OA
ATOM     10  H   UNL     1       1.644   5.769  19.748  0.00  0.00    +0.000 HD
BRANCH   8  11
ATOM     11  C   UNL     1       3.389   4.188  18.665  0.00  0.00    +0.000 A 
ATOM     12  C   UNL     1       2.586   3.500  17.752  0.00  0.00    +0.000 A 
ATOM     13  C   UNL     1       2.649   2.109  17.703  0.00  0.00    +0.000 A 
ATOM     14  C   UNL     1       3.512   1.455  18.567  0.00  0.00    +0.000 A 
ATOM     15  N   UNL     1       4.299   2.088  19.464  0.00  0.00    +0.000 NA
ATOM     16  C   UNL     1       4.228   3.444  19.485  0.00  0.00    +0.000 A 
ENDBRANCH   8  11
ENDBRANCH   4   7
BRANCH   5  17
ATOM     17  O   UNL     1       1.881   8.057  21.676  0.00  0.00    +0.000 OA
ATOM     18  H   UNL     1       1.736   7.132  21.946  0.00  0.00    +0.000 HD
ENDBRANCH   5  17
BRANCH   1  19
ATOM     19  C   UNL     1       0.493  11.694  18.839  0.00  0.00    +0.000 C 
BRANCH  19  22
ATOM     20  C   UNL     1      -0.266  14.473  20.151  0.00  0.00    +0.000 C 
ATOM     21  N   UNL     1       0.919  14.173  19.384  0.00  0.00    +0.000 N 
ATOM     22  C   UNL     1       1.311  12.969  18.827  0.00  0.00    +0.000 A 
ATOM     23  N   UNL     1       2.491  13.109  18.240  0.00  0.00    +0.000 NA
ATOM     24  C   UNL     1       2.848  14.424  18.390  0.00  0.00    +0.000 A 
ATOM     25  C   UNL     1       3.993  15.104  17.946  0.00  0.00    +0.000 A 
ATOM     26  C   UNL     1       4.116  16.473  18.218  0.00  0.00    +0.000 A 
ATOM     27  C   UNL     1       3.118  17.155  18.914  0.00  0.00    +0.000 A 
ATOM     28  C   UNL     1       1.972  16.494  19.365  0.00  0.00    +0.000 A 
ATOM     29  C   UNL     1       1.874  15.123  19.090  0.00  0.00    +0.000 A 
ENDBRANCH  19  22
ENDBRANCH   1  19
TORSDOF 5
ENDMDL
MODEL 8
REMARK VINA RESULT:      -7.2      1.249      2.575
REMARK  Name = 
REMARK  6 active torsions:
REMARK  status: ('A' for Active; 'I' for Inactive)
REMARK    1  A    between atoms: C_1  and  N_2
REMARK    2  A    between atoms: C_3  and  C_4
REMARK    3  A    between atoms: C_4  and  N_5
REMARK    4  A    between atoms: C_8  and  N_9
REMARK    5  A    between atoms: C_10  and  C_12
REMARK    6  A    between atoms: C_18  and  O_19
REMARK                            x       y       z     vdW  Elec       q    Type
REMARK                         _______ _______ _______ _____ _____    ______ ____
ROOT
ATOM      1  N   UNL     1       1.364  10.585  19.179  0.00  0.00    +0.000 NA
ATOM      2  C   UNL     1       1.748   9.924  17.940  0.00  0.00    +0.000 C 
ATOM      3  C   UNL     1       1.782   8.399  17.964  0.00  0.00    +0.000 C 
ATOM      4  C   UNL     1       2.252   7.865  19.308  0.00  0.00    +0.000 C 
ATOM      5  C   UNL     1       1.288   8.322  20.413  0.00  0.00    +0.000 C 
ATOM      6  C   UNL     1       0.832   9.792  20.285  0.00  0.00    +0.000 C 
ENDROOT
BRANCH   4   7
ATOM      7  N   UNL     1       2.330   6.401  19.267  0.00  0.00    +0.000 N 
ATOM      8  C   UNL     1       3.450   5.739  18.810  0.00  0.00    +0.000 C 
ATOM      9  O   UNL     1       4.496   6.302  18.527  0.00  0.00    +0.000 OA
ATOM     10  H   UNL     1       1.530   5.875  19.591  0.00  0.00    +0.000 HD
BRANCH   8  11
ATOM     11  C   UNL     1       3.341   4.270  18.664  0.00  0.00    +0.000 A 
ATOM     12  C   UNL     1       2.494   3.654  17.740  0.00  0.00    +0.000 A 
ATOM     13  C   UNL     1       2.516   2.267  17.614  0.00  0.00    +0.000 A 
ATOM     14  C   UNL     1       3.385   1.543  18.415  0.00  0.00    +0.000 A 
ATOM     15  N   UNL     1       4.214   2.105  19.321  0.00  0.00    +0.000 NA
ATOM     16  C   UNL     1       4.182   3.460  19.417  0.00  0.00    +0.000 A 
ENDBRANCH   8  11
ENDBRANCH   4   7
BRANCH   5  17
ATOM     17  O   UNL     1       1.879   8.080  21.699  0.00  0.00    +0.000 OA
ATOM     18  H   UNL     1       1.482   8.712  22.325  0.00  0.00    +0.000 HD
ENDBRANCH   5  17
BRANCH   1  19
ATOM     19  C   UNL     1       0.656  11.868  18.984  0.00  0.00    +0.000 C 
BRANCH  19  22
ATOM     20  C   UNL     1      -2.507  11.748  18.951  0.00  0.00    +0.000 C 
ATOM     21  N   UNL     1      -1.670  12.237  20.020  0.00  0.00    +0.000 N 
ATOM     22  C   UNL     1      -0.290  12.272  20.096  0.00  0.00    +0.000 A 
ATOM     23  N   UNL     1       0.083  12.757  21.272  0.00  0.00    +0.000 NA
ATOM     24  C   UNL     1      -1.068  13.070  21.948  0.00  0.00    +0.000 A 
ATOM     25  C   UNL     1      -1.242  13.624  23.226  0.00  0.00    +0.000 A 
ATOM     26  C   UNL     1      -2.542  13.866  23.688  0.00  0.00    +0.000 A 
ATOM     27  C   UNL     1      -3.650  13.566  22.895  0.00  0.00    +0.000 A 
ATOM     28  C   UNL     1      -3.496  13.011  21.622  0.00  0.00    +0.000 A 
ATOM     29  C   UNL     1      -2.187  12.771  21.182  0.00  0.00    +0.000 A 
ENDBRANCH  19  22
ENDBRANCH   1  19
TORSDOF 5
ENDMDL
MODEL 9
REMARK VINA RESULT:      -7.1      2.990      9.033
REMARK  Name = 
REMARK  6 active torsions:
REMARK  status: ('A' for Active; 'I' for Inactive)
REMARK    1  A    between atoms: C_1  and  N_2
REMARK    2  A    between atoms: C_3  and  C_4
REMARK    3  A    between atoms: C_4  and  N_5
REMARK    4  A    between atoms: C_8  and  N_9
REMARK    5  A    between atoms: C_10  and  C_12
REMARK    6  A    between atoms: C_18  and  O_19
REMARK                            x       y       z     vdW  Elec       q    Type
REMARK                         _______ _______ _______ _____ _____    ______ ____
ROOT
ATOM      1  N   UNL     1       2.407   8.613  18.547  0.00  0.00    +0.000 NA
ATOM      2  C   UNL     1       2.003   8.089  19.844  0.00  0.00    +0.000 C 
ATOM      3  C   UNL     1       0.847   8.802  20.537  0.00  0.00    +0.000 C 
ATOM      4  C   UNL     1       0.868  10.300  20.276  0.00  0.00    +0.000 C 
ATOM      5  C   UNL     1       0.737  10.566  18.769  0.00  0.00    +0.000 C 
ATOM      6  C   UNL     1       1.577   9.618  17.886  0.00  0.00    +0.000 C 
ENDROOT
BRANCH   4   7
ATOM      7  N   UNL     1      -0.221  10.953  21.010  0.00  0.00    +0.000 N 
ATOM      8  C   UNL     1      -0.055  12.171  21.636  0.00  0.00    +0.000 C 
ATOM      9  O   UNL     1       0.951  12.853  21.527  0.00  0.00    +0.000 OA
ATOM     10  H   UNL     1      -1.116  10.484  21.047  0.00  0.00    +0.000 HD
BRANCH   8  11
ATOM     11  C   UNL     1      -1.177  12.643  22.480  0.00  0.00    +0.000 A 
ATOM     12  C   UNL     1      -2.295  11.859  22.775  0.00  0.00    +0.000 A 
ATOM     13  C   UNL     1      -3.264  12.354  23.645  0.00  0.00    +0.000 A 
ATOM     14  C   UNL     1      -3.082  13.615  24.191  0.00  0.00    +0.000 A 
ATOM     15  N   UNL     1      -2.016  14.401  23.924  0.00  0.00    +0.000 NA
ATOM     16  C   UNL     1      -1.080  13.891  23.082  0.00  0.00    +0.000 A 
ENDBRANCH   8  11
ENDBRANCH   4   7
BRANCH   5  17
ATOM     17  O   UNL     1       1.054  11.938  18.492  0.00  0.00    +0.000 OA
ATOM     18  H   UNL     1       1.139  12.028  17.526  0.00  0.00    +0.000 HD
ENDBRANCH   5  17
BRANCH   1  19
ATOM     19  C   UNL     1       2.937   7.590  17.621  0.00  0.00    +0.000 C 
BRANCH  19  22
ATOM     20  C   UNL     1       5.173   5.732  18.872  0.00  0.00    +0.000 C 
ATOM     21  N   UNL     1       3.808   5.367  18.580  0.00  0.00    +0.000 N 
ATOM     22  C   UNL     1       2.788   6.153  18.074  0.00  0.00    +0.000 A 
ATOM     23  N   UNL     1       1.671   5.444  17.998  0.00  0.00    +0.000 NA
ATOM     24  C   UNL     1       1.980   4.180  18.429  0.00  0.00    +0.000 A 
ATOM     25  C   UNL     1       1.169   3.040  18.537  0.00  0.00    +0.000 A 
ATOM     26  C   UNL     1       1.737   1.844  18.997  0.00  0.00    +0.000 A 
ATOM     27  C   UNL     1       3.088   1.782  19.340  0.00  0.00    +0.000 A 
ATOM     28  C   UNL     1       3.910   2.907  19.241  0.00  0.00    +0.000 A 
ATOM     29  C   UNL     1       3.319   4.094  18.786  0.00  0.00    +0.000 A 
ENDBRANCH  19  22
ENDBRANCH   1  19
TORSDOF 5
ENDMDL
