MODEL 1
REMARK VINA RESULT:      -8.3      0.000      0.000
REMARK  Name = 
REMARK  4 active torsions:
REMARK  status: ('A' for Active; 'I' for Inactive)
REMARK    1  A    between atoms: C_1  and  N_2
REMARK    2  A    between atoms: N_6  and  C_7
REMARK    3  A    between atoms: C_7  and  C_8
REMARK    4  A    between atoms: N_10  and  O_11
REMARK                            x       y       z     vdW  Elec       q    Type
REMARK                         _______ _______ _______ _____ _____    ______ ____
ROOT
ATOM      1  C   UNL     1       2.691   7.029  17.491  0.00  0.00    +0.000 C 
ATOM      2  N   UNL     1       3.818   6.463  18.225  0.00  0.00    +0.000 NA
ATOM      3  C   UNL     1       5.038   7.104  17.652  0.00  0.00    +0.000 C 
ATOM      4  C   UNL     1       6.308   6.341  17.858  0.00  0.00    +0.000 C 
ATOM      5  O   UNL     1       7.377   6.828  18.222  0.00  0.00    +0.000 OA
ATOM      6  N   UNL     1       6.124   5.064  17.462  0.00  0.00    +0.000 N 
ATOM      7  C   UNL     1       5.349   4.410  18.364  0.00  0.00    +0.000 C 
ATOM      8  O   UNL     1       5.810   3.409  18.900  0.00  0.00    +0.000 OA
ATOM      9  C   UNL     1       3.827   4.967  18.485  0.00  0.00    +0.000 C 
ATOM     10  C   UNL     1       2.968   4.008  17.548  0.00  0.00    +0.000 C 
ATOM     11  C   UNL     1       3.310   2.534  17.914  0.00  0.00    +0.000 C 
ATOM     12  C   UNL     1       3.036   2.269  19.421  0.00  0.00    +0.000 C 
ATOM     13  C   UNL     1       1.513   2.331  19.575  0.00  0.00    +0.000 C 
ATOM     14  C   UNL     1       1.029   3.745  19.172  0.00  0.00    +0.000 C 
ATOM     15  C   UNL     1       1.424   4.072  17.723  0.00  0.00    +0.000 C 
ATOM     16  C   UNL     1       1.697   4.824  20.042  0.00  0.00    +0.000 C 
ATOM     17  C   UNL     1       3.251   4.733  19.941  0.00  0.00    +0.000 C 
ATOM     18  C   UNL     1       3.582   3.313  20.427  0.00  0.00    +0.000 C 
ENDROOT
BRANCH   6  19
ATOM     19  C   UNL     1       7.142   4.359  16.715  0.00  0.00    +0.000 C 
BRANCH  19  20
ATOM     20  C   UNL     1       6.786   4.834  15.309  0.00  0.00    +0.000 C 
ATOM     21  O   UNL     1       5.673   4.667  14.802  0.00  0.00    +0.000 OA
ATOM     22  N   UNL     1       7.827   5.326  14.564  0.00  0.00    +0.000 N 
ATOM     23  H   UNL     1       8.681   5.721  14.944  0.00  0.00    +0.000 HD
BRANCH  22  24
ATOM     24  O   UNL     1       7.508   5.656  13.223  0.00  0.00    +0.000 OA
ATOM     25  H   UNL     1       6.650   5.194  13.090  0.00  0.00    +0.000 HD
ENDBRANCH  22  24
ENDBRANCH  19  20
ENDBRANCH   6  19
TORSDOF 3
ENDMDL
MODEL 2
REMARK VINA RESULT:      -8.3      1.671      3.542
REMARK  Name = 
REMARK  4 active torsions:
REMARK  status: ('A' for Active; 'I' for Inactive)
REMARK    1  A    between atoms: C_1  and  N_2
REMARK    2  A    between atoms: N_6  and  C_7
REMARK    3  A    between atoms: C_7  and  C_8
REMARK    4  A    between atoms: N_10  and  O_11
REMARK                            x       y       z     vdW  Elec       q    Type
REMARK                         _______ _______ _______ _____ _____    ______ ____
ROOT
ATOM      1  C   UNL     1       4.225   1.996  17.206  0.00  0.00    +0.000 C 
ATOM      2  N   UNL     1       4.182   3.388  16.772  0.00  0.00    +0.000 NA
ATOM      3  C   UNL     1       5.401   3.591  15.935  0.00  0.00    +0.000 C 
ATOM      4  C   UNL     1       5.851   5.012  15.809  0.00  0.00    +0.000 C 
ATOM      5  O   UNL     1       6.196   5.556  14.760  0.00  0.00    +0.000 OA
ATOM      6  N   UNL     1       5.935   5.559  17.040  0.00  0.00    +0.000 N 
ATOM      7  C   UNL     1       4.689   5.786  17.528  0.00  0.00    +0.000 C 
ATOM      8  O   UNL     1       4.393   6.935  17.835  0.00  0.00    +0.000 OA
ATOM      9  C   UNL     1       3.808   4.447  17.794  0.00  0.00    +0.000 C 
ATOM     10  C   UNL     1       4.000   4.137  19.345  0.00  0.00    +0.000 C 
ATOM     11  C   UNL     1       3.725   5.445  20.142  0.00  0.00    +0.000 C 
ATOM     12  C   UNL     1       2.300   5.984  19.832  0.00  0.00    +0.000 C 
ATOM     13  C   UNL     1       1.337   4.973  20.460  0.00  0.00    +0.000 C 
ATOM     14  C   UNL     1       1.557   3.593  19.794  0.00  0.00    +0.000 C 
ATOM     15  C   UNL     1       3.007   3.118  19.974  0.00  0.00    +0.000 C 
ATOM     16  C   UNL     1       1.327   3.674  18.275  0.00  0.00    +0.000 C 
ATOM     17  C   UNL     1       2.262   4.743  17.629  0.00  0.00    +0.000 C 
ATOM     18  C   UNL     1       1.888   6.054  18.340  0.00  0.00    +0.000 C 
ENDROOT
BRANCH   6  19
ATOM     19  C   UNL     1       7.038   6.422  17.399  0.00  0.00    +0.000 C 
BRANCH  19  20
ATOM     20  C   UNL     1       7.690   5.552  18.470  0.00  0.00    +0.000 C 
ATOM     21  O   UNL     1       7.937   4.354  18.308  0.00  0.00    +0.000 OA
ATOM     22  N   UNL     1       7.848   6.138  19.700  0.00  0.00    +0.000 N 
ATOM     23  H   UNL     1       7.911   7.137  19.866  0.00  0.00    +0.000 HD
BRANCH  22  24
ATOM     24  O   UNL     1       8.348   5.285  20.716  0.00  0.00    +0.000 OA
ATOM     25  H   UNL     1       9.250   5.072  20.389  0.00  0.00    +0.000 HD
ENDBRANCH  22  24
ENDBRANCH  19  20
ENDBRANCH   6  19
TORSDOF 3
ENDMDL
MODEL 3
REMARK VINA RESULT:      -7.0      1.616      3.278
REMARK  Name = 
REMARK  4 active torsions:
REMARK  status: ('A' for Active; 'I' for Inactive)
REMARK    1  A    between atoms: C_1  and  N_2
REMARK    2  A    between atoms: N_6  and  C_7
REMARK    3  A    between atoms: C_7  and  C_8
REMARK    4  A    between atoms: N_10  and  O_11
REMARK                            x       y       z     vdW  Elec       q    Type
REMARK                         _______ _______ _______ _____ _____    ______ ____
ROOT
ATOM      1  C   UNL     1       4.146   2.174  16.951  0.00  0.00    +0.000 C 
ATOM      2  N   UNL     1       3.926   3.583  16.642  0.00  0.00    +0.000 NA
ATOM      3  C   UNL     1       5.044   3.980  15.736  0.00  0.00    +0.000 C 
ATOM      4  C   UNL     1       5.336   5.446  15.697  0.00  0.00    +0.000 C 
ATOM      5  O   UNL     1       5.536   6.103  14.676  0.00  0.00    +0.000 OA
ATOM      6  N   UNL     1       5.467   5.903  16.961  0.00  0.00    +0.000 N 
ATOM      7  C   UNL     1       4.250   5.957  17.559  0.00  0.00    +0.000 C 
ATOM      8  O   UNL     1       3.866   7.040  17.984  0.00  0.00    +0.000 OA
ATOM      9  C   UNL     1       3.534   4.514  17.776  0.00  0.00    +0.000 C 
ATOM     10  C   UNL     1       3.886   4.108  19.275  0.00  0.00    +0.000 C 
ATOM     11  C   UNL     1       3.547   5.314  20.199  0.00  0.00    +0.000 C 
ATOM     12  C   UNL     1       2.054   5.719  20.044  0.00  0.00    +0.000 C 
ATOM     13  C   UNL     1       1.254   4.565  20.655  0.00  0.00    +0.000 C 
ATOM     14  C   UNL     1       1.556   3.272  19.859  0.00  0.00    +0.000 C 
ATOM     15  C   UNL     1       3.057   2.943  19.888  0.00  0.00    +0.000 C 
ATOM     16  C   UNL     1       1.193   3.444  18.374  0.00  0.00    +0.000 C 
ATOM     17  C   UNL     1       1.957   4.654  17.753  0.00  0.00    +0.000 C 
ATOM     18  C   UNL     1       1.514   5.859  18.599  0.00  0.00    +0.000 C 
ENDROOT
BRANCH   6  19
ATOM     19  C   UNL     1       6.503   6.849  17.308  0.00  0.00    +0.000 C 
BRANCH  19  20
ATOM     20  C   UNL     1       7.456   5.910  18.041  0.00  0.00    +0.000 C 
ATOM     21  O   UNL     1       8.041   6.220  19.083  0.00  0.00    +0.000 OA
ATOM     22  N   UNL     1       7.757   4.740  17.393  0.00  0.00    +0.000 N 
ATOM     23  H   UNL     1       7.172   4.293  16.693  0.00  0.00    +0.000 HD
BRANCH  22  24
ATOM     24  O   UNL     1       8.730   3.928  18.028  0.00  0.00    +0.000 OA
ATOM     25  H   UNL     1       9.547   4.146  17.526  0.00  0.00    +0.000 HD
ENDBRANCH  22  24
ENDBRANCH  19  20
ENDBRANCH   6  19
TORSDOF 3
ENDMDL
MODEL 4
REMARK VINA RESULT:      -6.8      1.316      1.494
REMARK  Name = 
REMARK  4 active torsions:
REMARK  status: ('A' for Active; 'I' for Inactive)
REMARK    1  A    between atoms: C_1  and  N_2
REMARK    2  A    between atoms: N_6  and  C_7
REMARK    3  A    between atoms: C_7  and  C_8
REMARK    4  A    between atoms: N_10  and  O_11
REMARK                            x       y       z     vdW  Elec       q    Type
REMARK                         _______ _______ _______ _____ _____    ______ ____
ROOT
ATOM      1  C   UNL     1       4.081   6.802  19.167  0.00  0.00    +0.000 C 
ATOM      2  N   UNL     1       4.758   5.523  18.978  0.00  0.00    +0.000 NA
ATOM      3  C   UNL     1       5.990   5.829  18.193  0.00  0.00    +0.000 C 
ATOM      4  C   UNL     1       6.565   4.669  17.443  0.00  0.00    +0.000 C 
ATOM      5  O   UNL     1       7.758   4.371  17.405  0.00  0.00    +0.000 OA
ATOM      6  N   UNL     1       5.587   4.083  16.720  0.00  0.00    +0.000 N 
ATOM      7  C   UNL     1       4.755   3.397  17.544  0.00  0.00    +0.000 C 
ATOM      8  O   UNL     1       4.616   2.195  17.348  0.00  0.00    +0.000 OA
ATOM      9  C   UNL     1       3.920   4.318  18.590  0.00  0.00    +0.000 C 
ATOM     10  C   UNL     1       2.506   4.543  17.892  0.00  0.00    +0.000 C 
ATOM     11  C   UNL     1       1.961   3.158  17.436  0.00  0.00    +0.000 C 
ATOM     12  C   UNL     1       1.861   2.186  18.645  0.00  0.00    +0.000 C 
ATOM     13  C   UNL     1       0.736   2.741  19.524  0.00  0.00    +0.000 C 
ATOM     14  C   UNL     1       1.128   4.163  19.995  0.00  0.00    +0.000 C 
ATOM     15  C   UNL     1       1.368   5.096  18.798  0.00  0.00    +0.000 C 
ATOM     16  C   UNL     1       2.451   4.136  20.779  0.00  0.00    +0.000 C 
ATOM     17  C   UNL     1       3.594   3.518  19.916  0.00  0.00    +0.000 C 
ATOM     18  C   UNL     1       3.094   2.103  19.580  0.00  0.00    +0.000 C 
ENDROOT
BRANCH   6  19
ATOM     19  C   UNL     1       5.827   3.630  15.368  0.00  0.00    +0.000 C 
BRANCH  19  20
ATOM     20  C   UNL     1       6.477   4.889  14.801  0.00  0.00    +0.000 C 
ATOM     21  O   UNL     1       5.882   5.965  14.692  0.00  0.00    +0.000 OA
ATOM     22  N   UNL     1       7.728   4.725  14.264  0.00  0.00    +0.000 N 
ATOM     23  H   UNL     1       8.377   3.986  14.513  0.00  0.00    +0.000 HD
BRANCH  22  24
ATOM     24  O   UNL     1       8.273   5.874  13.638  0.00  0.00    +0.000 OA
ATOM     25  H   UNL     1       8.410   6.483  14.397  0.00  0.00    +0.000 HD
ENDBRANCH  22  24
ENDBRANCH  19  20
ENDBRANCH   6  19
TORSDOF 3
ENDMDL
MODEL 5
REMARK VINA RESULT:      -6.8      1.604      3.656
REMARK  Name = 
REMARK  4 active torsions:
REMARK  status: ('A' for Active; 'I' for Inactive)
REMARK    1  A    between atoms: C_1  and  N_2
REMARK    2  A    between atoms: N_6  and  C_7
REMARK    3  A    between atoms: C_7  and  C_8
REMARK    4  A    between atoms: N_10  and  O_11
REMARK                            x       y       z     vdW  Elec       q    Type
REMARK                         _______ _______ _______ _____ _____    ______ ____
ROOT
ATOM      1  C   UNL     1       4.079   1.893  18.247  0.00  0.00    +0.000 C 
ATOM      2  N   UNL     1       3.995   3.005  17.306  0.00  0.00    +0.000 NA
ATOM      3  C   UNL     1       5.090   2.782  16.317  0.00  0.00    +0.000 C 
ATOM      4  C   UNL     1       5.539   4.006  15.584  0.00  0.00    +0.000 C 
ATOM      5  O   UNL     1       5.744   4.073  14.373  0.00  0.00    +0.000 OA
ATOM      6  N   UNL     1       5.799   4.984  16.477  0.00  0.00    +0.000 N 
ATOM      7  C   UNL     1       4.636   5.467  16.983  0.00  0.00    +0.000 C 
ATOM      8  O   UNL     1       4.401   6.662  16.843  0.00  0.00    +0.000 OA
ATOM      9  C   UNL     1       3.781   4.402  17.862  0.00  0.00    +0.000 C 
ATOM     10  C   UNL     1       4.180   4.709  19.373  0.00  0.00    +0.000 C 
ATOM     11  C   UNL     1       4.036   6.240  19.614  0.00  0.00    +0.000 C 
ATOM     12  C   UNL     1       2.590   6.710  19.290  0.00  0.00    +0.000 C 
ATOM     13  C   UNL     1       1.708   6.092  20.379  0.00  0.00    +0.000 C 
ATOM     14  C   UNL     1       1.815   4.551  20.293  0.00  0.00    +0.000 C 
ATOM     15  C   UNL     1       3.269   4.087  20.470  0.00  0.00    +0.000 C 
ATOM     16  C   UNL     1       1.379   4.047  18.906  0.00  0.00    +0.000 C 
ATOM     17  C   UNL     1       2.231   4.713  17.781  0.00  0.00    +0.000 C 
ATOM     18  C   UNL     1       1.977   6.219  17.954  0.00  0.00    +0.000 C 
ENDROOT
BRANCH   6  19
ATOM     19  C   UNL     1       6.953   5.842  16.330  0.00  0.00    +0.000 C 
BRANCH  19  20
ATOM     20  C   UNL     1       7.312   6.025  17.802  0.00  0.00    +0.000 C 
ATOM     21  O   UNL     1       7.396   7.130  18.344  0.00  0.00    +0.000 OA
ATOM     22  N   UNL     1       7.696   4.889  18.467  0.00  0.00    +0.000 N 
ATOM     23  H   UNL     1       7.436   3.944  18.206  0.00  0.00    +0.000 HD
BRANCH  22  24
ATOM     24  O   UNL     1       8.137   5.089  19.800  0.00  0.00    +0.000 OA
ATOM     25  H   UNL     1       7.325   5.420  20.243  0.00  0.00    +0.000 HD
ENDBRANCH  22  24
ENDBRANCH  19  20
ENDBRANCH   6  19
TORSDOF 3
ENDMDL
MODEL 6
REMARK VINA RESULT:      -6.7      1.534      1.772
REMARK  Name = 
REMARK  4 active torsions:
REMARK  status: ('A' for Active; 'I' for Inactive)
REMARK    1  A    between atoms: C_1  and  N_2
REMARK    2  A    between atoms: N_6  and  C_7
REMARK    3  A    between atoms: C_7  and  C_8
REMARK    4  A    between atoms: N_10  and  O_11
REMARK                            x       y       z     vdW  Elec       q    Type
REMARK                         _______ _______ _______ _____ _____    ______ ____
ROOT
ATOM      1  C   UNL     1       4.080   6.633  19.455  0.00  0.00    +0.000 C 
ATOM      2  N   UNL     1       4.766   5.362  19.245  0.00  0.00    +0.000 NA
ATOM      3  C   UNL     1       6.081   5.708  18.631  0.00  0.00    +0.000 C 
ATOM      4  C   UNL     1       6.731   4.601  17.863  0.00  0.00    +0.000 C 
ATOM      5  O   UNL     1       7.918   4.288  17.937  0.00  0.00    +0.000 OA
ATOM      6  N   UNL     1       5.838   4.085  16.991  0.00  0.00    +0.000 N 
ATOM      7  C   UNL     1       4.913   3.351  17.661  0.00  0.00    +0.000 C 
ATOM      8  O   UNL     1       4.789   2.170  17.359  0.00  0.00    +0.000 OA
ATOM      9  C   UNL     1       3.970   4.203  18.673  0.00  0.00    +0.000 C 
ATOM     10  C   UNL     1       2.646   4.502  17.840  0.00  0.00    +0.000 C 
ATOM     11  C   UNL     1       2.148   3.164  17.220  0.00  0.00    +0.000 C 
ATOM     12  C   UNL     1       1.905   2.104  18.331  0.00  0.00    +0.000 C 
ATOM     13  C   UNL     1       0.691   2.608  19.117  0.00  0.00    +0.000 C 
ATOM     14  C   UNL     1       1.035   3.984  19.738  0.00  0.00    +0.000 C 
ATOM     15  C   UNL     1       1.416   5.001  18.651  0.00  0.00    +0.000 C 
ATOM     16  C   UNL     1       2.261   3.878  20.662  0.00  0.00    +0.000 C 
ATOM     17  C   UNL     1       3.491   3.309  19.889  0.00  0.00    +0.000 C 
ATOM     18  C   UNL     1       3.023   1.932  19.391  0.00  0.00    +0.000 C 
ENDROOT
BRANCH   6  19
ATOM     19  C   UNL     1       6.227   3.733  15.645  0.00  0.00    +0.000 C 
BRANCH  19  20
ATOM     20  C   UNL     1       6.173   5.117  15.005  0.00  0.00    +0.000 C 
ATOM     21  O   UNL     1       7.113   5.605  14.371  0.00  0.00    +0.000 OA
ATOM     22  N   UNL     1       5.068   5.871  15.305  0.00  0.00    +0.000 N 
ATOM     23  H   UNL     1       4.168   5.498  15.591  0.00  0.00    +0.000 HD
BRANCH  22  24
ATOM     24  O   UNL     1       5.083   7.195  14.799  0.00  0.00    +0.000 OA
ATOM     25  H   UNL     1       4.582   7.689  15.486  0.00  0.00    +0.000 HD
ENDBRANCH  22  24
ENDBRANCH  19  20
ENDBRANCH   6  19
TORSDOF 3
ENDMDL
MODEL 7
REMARK VINA RESULT:      -6.5      2.547      5.381
REMARK  Name = 
REMARK  4 active torsions:
REMARK  status: ('A' for Active; 'I' for Inactive)
REMARK    1  A    between atoms: C_1  and  N_2
REMARK    2  A    between atoms: N_6  and  C_7
REMARK    3  A    between atoms: C_7  and  C_8
REMARK    4  A    between atoms: N_10  and  O_11
REMARK                            x       y       z     vdW  Elec       q    Type
REMARK                         _______ _______ _______ _____ _____    ______ ____
ROOT
ATOM      1  C   UNL     1       3.058   6.637  19.268  0.00  0.00    +0.000 C 
ATOM      2  N   UNL     1       2.933   5.577  18.273  0.00  0.00    +0.000 NA
ATOM      3  C   UNL     1       1.859   4.671  18.777  0.00  0.00    +0.000 C 
ATOM      4  C   UNL     1       1.898   3.279  18.232  0.00  0.00    +0.000 C 
ATOM      5  O   UNL     1       0.923   2.651  17.821  0.00  0.00    +0.000 OA
ATOM      6  N   UNL     1       3.145   2.783  18.378  0.00  0.00    +0.000 N 
ATOM      7  C   UNL     1       3.981   3.372  17.486  0.00  0.00    +0.000 C 
ATOM      8  O   UNL     1       4.575   2.651  16.692  0.00  0.00    +0.000 OA
ATOM      9  C   UNL     1       4.204   4.966  17.711  0.00  0.00    +0.000 C 
ATOM     10  C   UNL     1       5.556   5.072  18.547  0.00  0.00    +0.000 C 
ATOM     11  C   UNL     1       6.638   4.208  17.837  0.00  0.00    +0.000 C 
ATOM     12  C   UNL     1       6.829   4.672  16.366  0.00  0.00    +0.000 C 
ATOM     13  C   UNL     1       7.480   6.055  16.456  0.00  0.00    +0.000 C 
ATOM     14  C   UNL     1       6.522   7.009  17.211  0.00  0.00    +0.000 C 
ATOM     15  C   UNL     1       6.214   6.480  18.621  0.00  0.00    +0.000 C 
ATOM     16  C   UNL     1       5.165   7.106  16.493  0.00  0.00    +0.000 C 
ATOM     17  C   UNL     1       4.517   5.695  16.341  0.00  0.00    +0.000 C 
ATOM     18  C   UNL     1       5.544   4.890  15.528  0.00  0.00    +0.000 C 
ENDROOT
BRANCH   6  19
ATOM     19  C   UNL     1       3.361   1.418  18.803  0.00  0.00    +0.000 C 
BRANCH  19  20
ATOM     20  C   UNL     1       3.982   1.684  20.171  0.00  0.00    +0.000 C 
ATOM     21  O   UNL     1       3.542   2.524  20.960  0.00  0.00    +0.000 OA
ATOM     22  N   UNL     1       5.166   1.041  20.423  0.00  0.00    +0.000 N 
ATOM     23  H   UNL     1       5.471   0.183  19.976  0.00  0.00    +0.000 HD
BRANCH  22  24
ATOM     24  O   UNL     1       5.792   1.384  21.648  0.00  0.00    +0.000 OA
ATOM     25  H   UNL     1       5.057   1.290  22.294  0.00  0.00    +0.000 HD
ENDBRANCH  22  24
ENDBRANCH  19  20
ENDBRANCH   6  19
TORSDOF 3
ENDMDL
MODEL 8
REMARK VINA RESULT:      -6.3      9.941     12.074
REMARK  Name = 
REMARK  4 active torsions:
REMARK  status: ('A' for Active; 'I' for Inactive)
REMARK    1  A    between atoms: C_1  and  N_2
REMARK    2  A    between atoms: N_6  and  C_7
REMARK    3  A    between atoms: C_7  and  C_8
REMARK    4  A    between atoms: N_10  and  O_11
REMARK                            x       y       z     vdW  Elec       q    Type
REMARK                         _______ _______ _______ _____ _____    ______ ____
ROOT
ATOM      1  C   UNL     1       7.402  13.766  17.461  0.00  0.00    +0.000 C 
ATOM      2  N   UNL     1       7.747  14.099  18.839  0.00  0.00    +0.000 NA
ATOM      3  C   UNL     1       7.008  15.358  19.150  0.00  0.00    +0.000 C 
ATOM      4  C   UNL     1       7.578  16.165  20.273  0.00  0.00    +0.000 C 
ATOM      5  O   UNL     1       6.925  16.676  21.182  0.00  0.00    +0.000 OA
ATOM      6  N   UNL     1       8.899  16.344  20.062  0.00  0.00    +0.000 N 
ATOM      7  C   UNL     1       9.563  15.182  20.292  0.00  0.00    +0.000 C 
ATOM      8  O   UNL     1      10.443  15.182  21.145  0.00  0.00    +0.000 OA
ATOM      9  C   UNL     1       9.199  13.976  19.265  0.00  0.00    +0.000 C 
ATOM     10  C   UNL     1      10.344  14.026  18.159  0.00  0.00    +0.000 C 
ATOM     11  C   UNL     1      11.721  14.070  18.883  0.00  0.00    +0.000 C 
ATOM     12  C   UNL     1      11.881  12.845  19.826  0.00  0.00    +0.000 C 
ATOM     13  C   UNL     1      12.003  11.631  18.901  0.00  0.00    +0.000 C 
ATOM     14  C   UNL     1      10.707  11.511  18.063  0.00  0.00    +0.000 C 
ATOM     15  C   UNL     1      10.465  12.782  17.233  0.00  0.00    +0.000 C 
ATOM     16  C   UNL     1       9.476  11.364  18.974  0.00  0.00    +0.000 C 
ATOM     17  C   UNL     1       9.372  12.566  19.964  0.00  0.00    +0.000 C 
ATOM     18  C   UNL     1      10.687  12.518  20.758  0.00  0.00    +0.000 C 
ENDROOT
BRANCH   6  19
ATOM     19  C   UNL     1       9.530  17.618  20.319  0.00  0.00    +0.000 C 
BRANCH  19  20
ATOM     20  C   UNL     1       9.602  18.148  18.890  0.00  0.00    +0.000 C 
ATOM     21  O   UNL     1       8.631  18.628  18.299  0.00  0.00    +0.000 OA
ATOM     22  N   UNL     1      10.781  17.920  18.228  0.00  0.00    +0.000 N 
ATOM     23  H   UNL     1      11.681  17.771  18.673  0.00  0.00    +0.000 HD
BRANCH  22  24
ATOM     24  O   UNL     1      10.796  18.313  16.866  0.00  0.00    +0.000 OA
ATOM     25  H   UNL     1       9.971  17.906  16.520  0.00  0.00    +0.000 HD
ENDBRANCH  22  24
ENDBRANCH  19  20
ENDBRANCH   6  19
TORSDOF 3
ENDMDL
MODEL 9
REMARK VINA RESULT:      -6.2      2.579      5.721
REMARK  Name = 
REMARK  4 active torsions:
REMARK  status: ('A' for Active; 'I' for Inactive)
REMARK    1  A    between atoms: C_1  and  N_2
REMARK    2  A    between atoms: N_6  and  C_7
REMARK    3  A    between atoms: C_7  and  C_8
REMARK    4  A    between atoms: N_10  and  O_11
REMARK                            x       y       z     vdW  Elec       q    Type
REMARK                         _______ _______ _______ _____ _____    ______ ____
ROOT
ATOM      1  C   UNL     1       2.889   7.004  18.711  0.00  0.00    +0.000 C 
ATOM      2  N   UNL     1       2.786   5.777  17.928  0.00  0.00    +0.000 NA
ATOM      3  C   UNL     1       1.641   5.018  18.512  0.00  0.00    +0.000 C 
ATOM      4  C   UNL     1       1.656   3.546  18.243  0.00  0.00    +0.000 C 
ATOM      5  O   UNL     1       0.685   2.881  17.886  0.00  0.00    +0.000 OA
ATOM      6  N   UNL     1       2.867   3.050  18.574  0.00  0.00    +0.000 N 
ATOM      7  C   UNL     1       3.787   3.432  17.652  0.00  0.00    +0.000 C 
ATOM      8  O   UNL     1       4.402   2.554  17.056  0.00  0.00    +0.000 OA
ATOM      9  C   UNL     1       4.065   5.032  17.589  0.00  0.00    +0.000 C 
ATOM     10  C   UNL     1       5.359   5.255  18.489  0.00  0.00    +0.000 C 
ATOM     11  C   UNL     1       6.448   4.238  18.039  0.00  0.00    +0.000 C 
ATOM     12  C   UNL     1       6.760   4.406  16.525  0.00  0.00    +0.000 C 
ATOM     13  C   UNL     1       7.463   5.760  16.402  0.00  0.00    +0.000 C 
ATOM     14  C   UNL     1       6.499   6.870  16.889  0.00  0.00    +0.000 C 
ATOM     15  C   UNL     1       6.072   6.630  18.346  0.00  0.00    +0.000 C 
ATOM     16  C   UNL     1       5.200   6.868  16.065  0.00  0.00    +0.000 C 
ATOM     17  C   UNL     1       4.502   5.474  16.133  0.00  0.00    +0.000 C 
ATOM     18  C   UNL     1       5.546   4.498  15.567  0.00  0.00    +0.000 C 
ENDROOT
BRANCH   6  19
ATOM     19  C   UNL     1       2.993   1.786  19.264  0.00  0.00    +0.000 C 
BRANCH  19  20
ATOM     20  C   UNL     1       2.785   2.268  20.697  0.00  0.00    +0.000 C 
ATOM     21  O   UNL     1       3.710   2.406  21.503  0.00  0.00    +0.000 OA
ATOM     22  N   UNL     1       1.481   2.395  21.101  0.00  0.00    +0.000 N 
ATOM     23  H   UNL     1       0.691   2.544  20.482  0.00  0.00    +0.000 HD
BRANCH  22  24
ATOM     24  O   UNL     1       1.301   2.732  22.466  0.00  0.00    +0.000 OA
ATOM     25  H   UNL     1       1.169   1.852  22.885  0.00  0.00    +0.000 HD
ENDBRANCH  22  24
ENDBRANCH  19  20
ENDBRANCH   6  19
TORSDOF 3
ENDMDL
