MODEL 1
REMARK VINA RESULT:      -6.9      0.000      0.000
REMARK  Name = 
REMARK  5 active torsions:
REMARK  status: ('A' for Active; 'I' for Inactive)
REMARK    1  A    between atoms: C_1  and  C_2
REMARK    2  A    between atoms: C_4  and  C_5
REMARK    3  A    between atoms: C_15  and  C_16
REMARK    4  A    between atoms: N_19  and  C_20
REMARK    5  A    between atoms: C_20  and  C_21
REMARK                            x       y       z     vdW  Elec       q    Type
REMARK                         _______ _______ _______ _____ _____    ______ ____
ROOT
ATOM      1  C   UNL     1      -0.269  10.083  18.533  0.00  0.00    +0.000 A 
ATOM      2  C   UNL     1      -1.249   9.738  17.612  0.00  0.00    +0.000 A 
ATOM      3  N   UNL     1      -2.468  10.292  17.505  0.00  0.00    +0.000 NA
ATOM      4  C   UNL     1      -2.751  11.260  18.370  0.00  0.00    +0.000 A 
ATOM      5  N   UNL     1      -3.946  11.906  18.272  0.00  0.00    +0.000 N 
ATOM      6  C   UNL     1      -4.984  11.446  17.379  0.00  0.00    +0.000 C 
ATOM      7  C   UNL     1      -6.022  12.551  17.536  0.00  0.00    +0.000 C 
ATOM      8  C   UNL     1      -5.939  12.909  19.017  0.00  0.00    +0.000 C 
ATOM      9  C   UNL     1      -4.498  12.587  19.424  0.00  0.00    +0.000 C 
ATOM     10  N   UNL     1      -1.880  11.656  19.314  0.00  0.00    +0.000 NA
ATOM     11  C   UNL     1      -0.653  11.084  19.419  0.00  0.00    +0.000 A 
ENDROOT
BRANCH   1  15
ATOM     12  C   UNL     1       3.488   6.703  18.502  0.00  0.00    +0.000 C 
ATOM     13  C   UNL     1       2.659   7.917  18.328  0.00  0.00    +0.000 A 
ATOM     14  C   UNL     1       1.544   8.307  19.092  0.00  0.00    +0.000 A 
ATOM     15  C   UNL     1       1.005   9.385  18.418  0.00  0.00    +0.000 A 
ATOM     16  O   UNL     1       1.816   9.679  17.367  0.00  0.00    +0.000 OA
ATOM     17  N   UNL     1       2.863   8.767  17.315  0.00  0.00    +0.000 NA
ENDBRANCH   1  15
BRANCH  11  18
ATOM     18  C   UNL     1       0.183  11.618  20.582  0.00  0.00    +0.000 C 
ATOM     19  C   UNL     1       0.089  10.728  21.838  0.00  0.00    +0.000 C 
ATOM     20  C   UNL     1      -1.214  10.890  22.640  0.00  0.00    +0.000 C 
ATOM     21  N   UNL     1      -1.529  12.286  22.992  0.00  0.00    +0.000 NA
ATOM     22  C   UNL     1      -1.472  13.160  21.800  0.00  0.00    +0.000 C 
ATOM     23  C   UNL     1      -0.170  13.055  20.999  0.00  0.00    +0.000 C 
BRANCH  21  24
ATOM     24  C   UNL     1      -2.897  12.403  23.567  0.00  0.00    +0.000 C 
BRANCH  24  25
ATOM     25  C   UNL     1      -3.353  13.766  24.036  0.00  0.00    +0.000 A 
ATOM     26  C   UNL     1      -2.581  14.605  24.836  0.00  0.00    +0.000 A 
ATOM     27  C   UNL     1      -3.057  15.870  25.183  0.00  0.00    +0.000 A 
ATOM     28  C   UNL     1      -4.290  16.268  24.693  0.00  0.00    +0.000 A 
ATOM     29  N   UNL     1      -5.057  15.502  23.890  0.00  0.00    +0.000 NA
ATOM     30  C   UNL     1      -4.569  14.280  23.578  0.00  0.00    +0.000 A 
ENDBRANCH  24  25
ENDBRANCH  21  24
ENDBRANCH  11  18
TORSDOF 4
ENDMDL
MODEL 2
REMARK VINA RESULT:      -6.9      2.327      7.798
REMARK  Name = 
REMARK  5 active torsions:
REMARK  status: ('A' for Active; 'I' for Inactive)
REMARK    1  A    between atoms: C_1  and  C_2
REMARK    2  A    between atoms: C_4  and  C_5
REMARK    3  A    between atoms: C_15  and  C_16
REMARK    4  A    between atoms: N_19  and  C_20
REMARK    5  A    between atoms: C_20  and  C_21
REMARK                            x       y       z     vdW  Elec       q    Type
REMARK                         _______ _______ _______ _____ _____    ______ ____
ROOT
ATOM      1  C   UNL     1      -2.383  12.713  21.307  0.00  0.00    +0.000 A 
ATOM      2  C   UNL     1      -3.567  12.883  20.602  0.00  0.00    +0.000 A 
ATOM      3  N   UNL     1      -3.844  12.387  19.385  0.00  0.00    +0.000 NA
ATOM      4  C   UNL     1      -2.885  11.668  18.811  0.00  0.00    +0.000 A 
ATOM      5  N   UNL     1      -3.129  11.085  17.605  0.00  0.00    +0.000 N 
ATOM      6  C   UNL     1      -4.325  11.377  16.850  0.00  0.00    +0.000 C 
ATOM      7  C   UNL     1      -4.189  10.399  15.689  0.00  0.00    +0.000 C 
ATOM      8  C   UNL     1      -2.691  10.398  15.398  0.00  0.00    +0.000 C 
ATOM      9  C   UNL     1      -2.025  10.727  16.738  0.00  0.00    +0.000 C 
ATOM     10  N   UNL     1      -1.695  11.460  19.400  0.00  0.00    +0.000 NA
ATOM     11  C   UNL     1      -1.422  11.972  20.628  0.00  0.00    +0.000 A 
ENDROOT
BRANCH   1  15
ATOM     12  C   UNL     1      -1.371  15.452  25.432  0.00  0.00    +0.000 C 
ATOM     13  C   UNL     1      -1.965  14.515  24.451  0.00  0.00    +0.000 A 
ATOM     14  C   UNL     1      -1.322  13.898  23.361  0.00  0.00    +0.000 A 
ATOM     15  C   UNL     1      -2.333  13.293  22.643  0.00  0.00    +0.000 A 
ATOM     16  O   UNL     1      -3.498  13.457  23.325  0.00  0.00    +0.000 OA
ATOM     17  N   UNL     1      -3.268  14.213  24.468  0.00  0.00    +0.000 NA
ENDBRANCH   1  15
BRANCH  11  18
ATOM     18  C   UNL     1      -0.003  11.684  21.118  0.00  0.00    +0.000 C 
ATOM     19  C   UNL     1       1.076  12.141  20.116  0.00  0.00    +0.000 C 
ATOM     20  C   UNL     1       1.258  11.212  18.904  0.00  0.00    +0.000 C 
ATOM     21  N   UNL     1       1.476   9.799  19.261  0.00  0.00    +0.000 NA
ATOM     22  C   UNL     1       0.438   9.323  20.203  0.00  0.00    +0.000 C 
ATOM     23  C   UNL     1       0.259  10.204  21.444  0.00  0.00    +0.000 C 
BRANCH  21  24
ATOM     24  C   UNL     1       1.423   8.922  18.059  0.00  0.00    +0.000 C 
BRANCH  24  25
ATOM     25  C   UNL     1       2.329   7.714  18.025  0.00  0.00    +0.000 A 
ATOM     26  C   UNL     1       1.936   6.442  18.436  0.00  0.00    +0.000 A 
ATOM     27  C   UNL     1       2.821   5.368  18.324  0.00  0.00    +0.000 A 
ATOM     28  C   UNL     1       4.072   5.599  17.776  0.00  0.00    +0.000 A 
ATOM     29  N   UNL     1       4.484   6.806  17.338  0.00  0.00    +0.000 NA
ATOM     30  C   UNL     1       3.605   7.825  17.465  0.00  0.00    +0.000 A 
ENDBRANCH  24  25
ENDBRANCH  21  24
ENDBRANCH  11  18
TORSDOF 4
ENDMDL
MODEL 3
REMARK VINA RESULT:      -6.7      3.802      7.992
REMARK  Name = 
REMARK  5 active torsions:
REMARK  status: ('A' for Active; 'I' for Inactive)
REMARK    1  A    between atoms: C_1  and  C_2
REMARK    2  A    between atoms: C_4  and  C_5
REMARK    3  A    between atoms: C_15  and  C_16
REMARK    4  A    between atoms: N_19  and  C_20
REMARK    5  A    between atoms: C_20  and  C_21
REMARK                            x       y       z     vdW  Elec       q    Type
REMARK                         _______ _______ _______ _____ _____    ______ ____
ROOT
ATOM      1  C   UNL     1      -2.035  15.496  21.586  0.00  0.00    +0.000 A 
ATOM      2  C   UNL     1      -2.655  16.444  20.784  0.00  0.00    +0.000 A 
ATOM      3  N   UNL     1      -2.114  17.058  19.719  0.00  0.00    +0.000 NA
ATOM      4  C   UNL     1      -0.866  16.718  19.416  0.00  0.00    +0.000 A 
ATOM      5  N   UNL     1      -0.284  17.257  18.309  0.00  0.00    +0.000 N 
ATOM      6  C   UNL     1      -0.914  18.324  17.566  0.00  0.00    +0.000 C 
ATOM      7  C   UNL     1       0.039  18.467  16.386  0.00  0.00    +0.000 C 
ATOM      8  C   UNL     1       1.414  18.237  17.008  0.00  0.00    +0.000 C 
ATOM      9  C   UNL     1       1.159  17.316  18.205  0.00  0.00    +0.000 C 
ATOM     10  N   UNL     1      -0.171  15.824  20.139  0.00  0.00    +0.000 NA
ATOM     11  C   UNL     1      -0.724  15.214  21.219  0.00  0.00    +0.000 A 
ENDROOT
BRANCH   1  15
ATOM     12  C   UNL     1      -4.677  12.462  24.646  0.00  0.00    +0.000 C 
ATOM     13  C   UNL     1      -3.951  13.607  24.050  0.00  0.00    +0.000 A 
ATOM     14  C   UNL     1      -3.732  13.862  22.683  0.00  0.00    +0.000 A 
ATOM     15  C   UNL     1      -2.844  14.918  22.653  0.00  0.00    +0.000 A 
ATOM     16  O   UNL     1      -2.627  15.331  23.930  0.00  0.00    +0.000 OA
ATOM     17  N   UNL     1      -3.331  14.518  24.810  0.00  0.00    +0.000 NA
ENDBRANCH   1  15
BRANCH  11  18
ATOM     18  C   UNL     1       0.228  14.272  21.955  0.00  0.00    +0.000 C 
ATOM     19  C   UNL     1       1.543  14.036  21.185  0.00  0.00    +0.000 C 
ATOM     20  C   UNL     1       1.425  13.063  20.000  0.00  0.00    +0.000 C 
ATOM     21  N   UNL     1       0.812  11.769  20.347  0.00  0.00    +0.000 NA
ATOM     22  C   UNL     1      -0.468  11.964  21.065  0.00  0.00    +0.000 C 
ATOM     23  C   UNL     1      -0.377  12.896  22.278  0.00  0.00    +0.000 C 
BRANCH  21  24
ATOM     24  C   UNL     1       0.523  10.963  19.129  0.00  0.00    +0.000 C 
BRANCH  24  25
ATOM     25  C   UNL     1       1.210   9.625  18.988  0.00  0.00    +0.000 A 
ATOM     26  C   UNL     1       1.854   9.207  17.825  0.00  0.00    +0.000 A 
ATOM     27  C   UNL     1       2.508   7.974  17.795  0.00  0.00    +0.000 A 
ATOM     28  C   UNL     1       2.519   7.205  18.947  0.00  0.00    +0.000 A 
ATOM     29  N   UNL     1       1.936   7.583  20.103  0.00  0.00    +0.000 NA
ATOM     30  C   UNL     1       1.306   8.780  20.096  0.00  0.00    +0.000 A 
ENDBRANCH  24  25
ENDBRANCH  21  24
ENDBRANCH  11  18
TORSDOF 4
ENDMDL
MODEL 4
REMARK VINA RESULT:      -6.7      0.919      1.146
REMARK  Name = 
REMARK  5 active torsions:
REMARK  status: ('A' for Active; 'I' for Inactive)
REMARK    1  A    between atoms: C_1  and  C_2
REMARK    2  A    between atoms: C_4  and  C_5
REMARK    3  A    between atoms: C_15  and  C_16
REMARK    4  A    between atoms: N_19  and  C_20
REMARK    5  A    between atoms: C_20  and  C_21
REMARK                            x       y       z     vdW  Elec       q    Type
REMARK                         _______ _______ _______ _____ _____    ______ ____
ROOT
ATOM      1  C   UNL     1      -0.073  10.014  18.646  0.00  0.00    +0.000 A 
ATOM      2  C   UNL     1      -1.091   9.769  17.734  0.00  0.00    +0.000 A 
ATOM      3  N   UNL     1      -2.300  10.355  17.718  0.00  0.00    +0.000 NA
ATOM      4  C   UNL     1      -2.531  11.251  18.672  0.00  0.00    +0.000 A 
ATOM      5  N   UNL     1      -3.714  11.927  18.671  0.00  0.00    +0.000 N 
ATOM      6  C   UNL     1      -4.792  11.565  17.780  0.00  0.00    +0.000 C 
ATOM      7  C   UNL     1      -5.798  12.673  18.067  0.00  0.00    +0.000 C 
ATOM      8  C   UNL     1      -5.657  12.902  19.569  0.00  0.00    +0.000 C 
ATOM      9  C   UNL     1      -4.211  12.518  19.896  0.00  0.00    +0.000 C 
ATOM     10  N   UNL     1      -1.620  11.548  19.613  0.00  0.00    +0.000 NA
ATOM     11  C   UNL     1      -0.403  10.945  19.626  0.00  0.00    +0.000 A 
ENDROOT
BRANCH   1  15
ATOM     12  C   UNL     1       3.609   6.579  18.222  0.00  0.00    +0.000 C 
ATOM     13  C   UNL     1       2.798   7.817  18.166  0.00  0.00    +0.000 A 
ATOM     14  C   UNL     1       1.727   8.176  19.005  0.00  0.00    +0.000 A 
ATOM     15  C   UNL     1       1.180   9.303  18.427  0.00  0.00    +0.000 A 
ATOM     16  O   UNL     1       1.948   9.652  17.360  0.00  0.00    +0.000 OA
ATOM     17  N   UNL     1       2.973   8.727  17.200  0.00  0.00    +0.000 NA
ENDBRANCH   1  15
BRANCH  11  18
ATOM     18  C   UNL     1       0.484  11.361  20.799  0.00  0.00    +0.000 C 
ATOM     19  C   UNL     1       0.147  10.601  22.097  0.00  0.00    +0.000 C 
ATOM     20  C   UNL     1      -1.118  11.096  22.818  0.00  0.00    +0.000 C 
ATOM     21  N   UNL     1      -1.131  12.547  23.073  0.00  0.00    +0.000 NA
ATOM     22  C   UNL     1      -0.837  13.306  21.837  0.00  0.00    +0.000 C 
ATOM     23  C   UNL     1       0.441  12.865  21.114  0.00  0.00    +0.000 C 
BRANCH  21  24
ATOM     24  C   UNL     1      -2.461  12.998  23.567  0.00  0.00    +0.000 C 
BRANCH  24  25
ATOM     25  C   UNL     1      -2.564  14.388  24.151  0.00  0.00    +0.000 A 
ATOM     26  C   UNL     1      -3.749  15.120  24.199  0.00  0.00    +0.000 A 
ATOM     27  C   UNL     1      -3.767  16.378  24.802  0.00  0.00    +0.000 A 
ATOM     28  C   UNL     1      -2.595  16.857  25.366  0.00  0.00    +0.000 A 
ATOM     29  N   UNL     1      -1.435  16.171  25.370  0.00  0.00    +0.000 NA
ATOM     30  C   UNL     1      -1.450  14.958  24.773  0.00  0.00    +0.000 A 
ENDBRANCH  24  25
ENDBRANCH  21  24
ENDBRANCH  11  18
TORSDOF 4
ENDMDL
MODEL 5
REMARK VINA RESULT:      -6.6      7.581     10.583
REMARK  Name = 
REMARK  5 active torsions:
REMARK  status: ('A' for Active; 'I' for Inactive)
REMARK    1  A    between atoms: C_1  and  C_2
REMARK    2  A    between atoms: C_4  and  C_5
REMARK    3  A    between atoms: C_15  and  C_16
REMARK    4  A    between atoms: N_19  and  C_20
REMARK    5  A    between atoms: C_20  and  C_21
REMARK                            x       y       z     vdW  Elec       q    Type
REMARK                         _______ _______ _______ _____ _____    ______ ____
ROOT
ATOM      1  C   UNL     1       6.183  15.067  18.759  0.00  0.00    +0.000 A 
ATOM      2  C   UNL     1       6.761  14.338  17.728  0.00  0.00    +0.000 A 
ATOM      3  N   UNL     1       7.930  13.680  17.780  0.00  0.00    +0.000 NA
ATOM      4  C   UNL     1       8.587  13.739  18.934  0.00  0.00    +0.000 A 
ATOM      5  N   UNL     1       9.747  13.039  19.071  0.00  0.00    +0.000 N 
ATOM      6  C   UNL     1      10.377  12.388  17.945  0.00  0.00    +0.000 C 
ATOM      7  C   UNL     1      11.523  11.655  18.630  0.00  0.00    +0.000 C 
ATOM      8  C   UNL     1      11.972  12.629  19.715  0.00  0.00    +0.000 C 
ATOM      9  C   UNL     1      10.719  13.436  20.068  0.00  0.00    +0.000 C 
ATOM     10  N   UNL     1       8.124  14.432  19.988  0.00  0.00    +0.000 NA
ATOM     11  C   UNL     1       6.944  15.102  19.923  0.00  0.00    +0.000 A 
ENDROOT
BRANCH   1  15
ATOM     12  C   UNL     1       1.255  16.169  18.551  0.00  0.00    +0.000 C 
ATOM     13  C   UNL     1       2.731  16.199  18.431  0.00  0.00    +0.000 A 
ATOM     14  C   UNL     1       3.608  15.099  18.409  0.00  0.00    +0.000 A 
ATOM     15  C   UNL     1       4.873  15.646  18.490  0.00  0.00    +0.000 A 
ATOM     16  O   UNL     1       4.755  17.001  18.460  0.00  0.00    +0.000 OA
ATOM     17  N   UNL     1       3.411  17.351  18.409  0.00  0.00    +0.000 NA
ENDBRANCH   1  15
BRANCH  11  18
ATOM     18  C   UNL     1       6.602  15.881  21.192  0.00  0.00    +0.000 C 
ATOM     19  C   UNL     1       7.749  15.872  22.222  0.00  0.00    +0.000 C 
ATOM     20  C   UNL     1       7.890  14.559  23.011  0.00  0.00    +0.000 C 
ATOM     21  N   UNL     1       6.641  14.110  23.652  0.00  0.00    +0.000 NA
ATOM     22  C   UNL     1       5.525  14.082  22.680  0.00  0.00    +0.000 C 
ATOM     23  C   UNL     1       5.331  15.390  21.904  0.00  0.00    +0.000 C 
BRANCH  21  24
ATOM     24  C   UNL     1       6.781  12.736  24.208  0.00  0.00    +0.000 C 
BRANCH  24  25
ATOM     25  C   UNL     1       5.886  12.345  25.360  0.00  0.00    +0.000 A 
ATOM     26  C   UNL     1       5.591  11.025  25.696  0.00  0.00    +0.000 A 
ATOM     27  C   UNL     1       4.794  10.749  26.807  0.00  0.00    +0.000 A 
ATOM     28  C   UNL     1       4.334  11.811  27.569  0.00  0.00    +0.000 A 
ATOM     29  N   UNL     1       4.619  13.102  27.300  0.00  0.00    +0.000 NA
ATOM     30  C   UNL     1       5.389  13.334  26.213  0.00  0.00    +0.000 A 
ENDBRANCH  24  25
ENDBRANCH  21  24
ENDBRANCH  11  18
TORSDOF 4
ENDMDL
MODEL 6
REMARK VINA RESULT:      -6.6      1.172      1.380
REMARK  Name = 
REMARK  5 active torsions:
REMARK  status: ('A' for Active; 'I' for Inactive)
REMARK    1  A    between atoms: C_1  and  C_2
REMARK    2  A    between atoms: C_4  and  C_5
REMARK    3  A    between atoms: C_15  and  C_16
REMARK    4  A    between atoms: N_19  and  C_20
REMARK    5  A    between atoms: C_20  and  C_21
REMARK                            x       y       z     vdW  Elec       q    Type
REMARK                         _______ _______ _______ _____ _____    ______ ____
ROOT
ATOM      1  C   UNL     1      -0.068   9.896  18.529  0.00  0.00    +0.000 A 
ATOM      2  C   UNL     1      -0.984   9.721  17.501  0.00  0.00    +0.000 A 
ATOM      3  N   UNL     1      -2.186  10.311  17.400  0.00  0.00    +0.000 NA
ATOM      4  C   UNL     1      -2.519  11.138  18.386  0.00  0.00    +0.000 A 
ATOM      5  N   UNL     1      -3.697  11.817  18.309  0.00  0.00    +0.000 N 
ATOM      6  C   UNL     1      -4.675  11.524  17.287  0.00  0.00    +0.000 C 
ATOM      7  C   UNL     1      -5.709  12.613  17.545  0.00  0.00    +0.000 C 
ATOM      8  C   UNL     1      -5.727  12.734  19.066  0.00  0.00    +0.000 C 
ATOM      9  C   UNL     1      -4.322  12.322  19.514  0.00  0.00    +0.000 C 
ATOM     10  N   UNL     1      -1.712  11.363  19.436  0.00  0.00    +0.000 NA
ATOM     11  C   UNL     1      -0.501  10.756  19.533  0.00  0.00    +0.000 A 
ENDROOT
BRANCH   1  15
ATOM     12  C   UNL     1       3.689   6.517  18.447  0.00  0.00    +0.000 C 
ATOM     13  C   UNL     1       2.856   7.730  18.280  0.00  0.00    +0.000 A 
ATOM     14  C   UNL     1       1.758   8.127  19.065  0.00  0.00    +0.000 A 
ATOM     15  C   UNL     1       1.204   9.197  18.393  0.00  0.00    +0.000 A 
ATOM     16  O   UNL     1       1.991   9.482  17.321  0.00  0.00    +0.000 OA
ATOM     17  N   UNL     1       3.037   8.570  17.254  0.00  0.00    +0.000 NA
ENDBRANCH   1  15
BRANCH  11  18
ATOM     18  C   UNL     1       0.256  11.083  20.819  0.00  0.00    +0.000 C 
ATOM     19  C   UNL     1      -0.543  10.723  22.087  0.00  0.00    +0.000 C 
ATOM     20  C   UNL     1      -1.664  11.716  22.441  0.00  0.00    +0.000 C 
ATOM     21  N   UNL     1      -1.219  13.118  22.514  0.00  0.00    +0.000 NA
ATOM     22  C   UNL     1      -0.470  13.502  21.296  0.00  0.00    +0.000 C 
ATOM     23  C   UNL     1       0.681  12.556  20.938  0.00  0.00    +0.000 C 
BRANCH  21  24
ATOM     24  C   UNL     1      -2.375  14.048  22.638  0.00  0.00    +0.000 C 
BRANCH  24  25
ATOM     25  C   UNL     1      -3.670  13.496  23.186  0.00  0.00    +0.000 A 
ATOM     26  C   UNL     1      -3.756  12.743  24.355  0.00  0.00    +0.000 A 
ATOM     27  C   UNL     1      -5.001  12.313  24.818  0.00  0.00    +0.000 A 
ATOM     28  C   UNL     1      -6.132  12.677  24.104  0.00  0.00    +0.000 A 
ATOM     29  N   UNL     1      -6.098  13.429  22.986  0.00  0.00    +0.000 NA
ATOM     30  C   UNL     1      -4.877  13.824  22.561  0.00  0.00    +0.000 A 
ENDBRANCH  24  25
ENDBRANCH  21  24
ENDBRANCH  11  18
TORSDOF 4
ENDMDL
MODEL 7
REMARK VINA RESULT:      -6.6      1.537      4.857
REMARK  Name = 
REMARK  5 active torsions:
REMARK  status: ('A' for Active; 'I' for Inactive)
REMARK    1  A    between atoms: C_1  and  C_2
REMARK    2  A    between atoms: C_4  and  C_5
REMARK    3  A    between atoms: C_15  and  C_16
REMARK    4  A    between atoms: N_19  and  C_20
REMARK    5  A    between atoms: C_20  and  C_21
REMARK                            x       y       z     vdW  Elec       q    Type
REMARK                         _______ _______ _______ _____ _____    ______ ____
ROOT
ATOM      1  C   UNL     1       0.399  10.280  19.846  0.00  0.00    +0.000 A 
ATOM      2  C   UNL     1       0.618  10.550  21.191  0.00  0.00    +0.000 A 
ATOM      3  N   UNL     1      -0.153  11.312  21.983  0.00  0.00    +0.000 NA
ATOM      4  C   UNL     1      -1.224  11.855  21.414  0.00  0.00    +0.000 A 
ATOM      5  N   UNL     1      -2.081  12.585  22.180  0.00  0.00    +0.000 N 
ATOM      6  C   UNL     1      -1.762  12.942  23.544  0.00  0.00    +0.000 C 
ATOM      7  C   UNL     1      -3.058  13.611  23.986  0.00  0.00    +0.000 C 
ATOM      8  C   UNL     1      -3.511  14.367  22.741  0.00  0.00    +0.000 C 
ATOM      9  C   UNL     1      -2.947  13.568  21.562  0.00  0.00    +0.000 C 
ATOM     10  N   UNL     1      -1.517  11.672  20.115  0.00  0.00    +0.000 NA
ATOM     11  C   UNL     1      -0.726  10.905  19.320  0.00  0.00    +0.000 A 
ENDROOT
BRANCH   1  15
ATOM     12  C   UNL     1       2.947   6.271  18.122  0.00  0.00    +0.000 C 
ATOM     13  C   UNL     1       2.441   7.639  18.376  0.00  0.00    +0.000 A 
ATOM     14  C   UNL     1       1.790   8.108  19.532  0.00  0.00    +0.000 A 
ATOM     15  C   UNL     1       1.340   9.371  19.204  0.00  0.00    +0.000 A 
ATOM     16  O   UNL     1       1.788   9.673  17.956  0.00  0.00    +0.000 OA
ATOM     17  N   UNL     1       2.490   8.592  17.438  0.00  0.00    +0.000 NA
ENDBRANCH   1  15
BRANCH  11  18
ATOM     18  C   UNL     1      -1.178  10.854  17.861  0.00  0.00    +0.000 C 
ATOM     19  C   UNL     1      -2.107  12.025  17.485  0.00  0.00    +0.000 C 
ATOM     20  C   UNL     1      -3.554  11.880  17.985  0.00  0.00    +0.000 C 
ATOM     21  N   UNL     1      -4.189  10.602  17.616  0.00  0.00    +0.000 NA
ATOM     22  C   UNL     1      -3.330   9.456  17.990  0.00  0.00    +0.000 C 
ATOM     23  C   UNL     1      -1.891   9.549  17.472  0.00  0.00    +0.000 C 
BRANCH  21  24
ATOM     24  C   UNL     1      -5.495  10.426  18.309  0.00  0.00    +0.000 C 
BRANCH  24  25
ATOM     25  C   UNL     1      -6.326  11.659  18.575  0.00  0.00    +0.000 A 
ATOM     26  C   UNL     1      -6.958  12.395  17.575  0.00  0.00    +0.000 A 
ATOM     27  C   UNL     1      -7.750  13.494  17.913  0.00  0.00    +0.000 A 
ATOM     28  C   UNL     1      -7.906  13.807  19.253  0.00  0.00    +0.000 A 
ATOM     29  N   UNL     1      -7.339  13.105  20.255  0.00  0.00    +0.000 NA
ATOM     30  C   UNL     1      -6.574  12.051  19.894  0.00  0.00    +0.000 A 
ENDBRANCH  24  25
ENDBRANCH  21  24
ENDBRANCH  11  18
TORSDOF 4
ENDMDL
MODEL 8
REMARK VINA RESULT:      -6.6      2.997      8.484
REMARK  Name = 
REMARK  5 active torsions:
REMARK  status: ('A' for Active; 'I' for Inactive)
REMARK    1  A    between atoms: C_1  and  C_2
REMARK    2  A    between atoms: C_4  and  C_5
REMARK    3  A    between atoms: C_15  and  C_16
REMARK    4  A    between atoms: N_19  and  C_20
REMARK    5  A    between atoms: C_20  and  C_21
REMARK                            x       y       z     vdW  Elec       q    Type
REMARK                         _______ _______ _______ _____ _____    ______ ____
ROOT
ATOM      1  C   UNL     1      -1.983  13.287  20.392  0.00  0.00    +0.000 A 
ATOM      2  C   UNL     1      -1.445  14.565  20.326  0.00  0.00    +0.000 A 
ATOM      3  N   UNL     1      -0.269  14.903  19.773  0.00  0.00    +0.000 NA
ATOM      4  C   UNL     1       0.437  13.911  19.241  0.00  0.00    +0.000 A 
ATOM      5  N   UNL     1       1.608  14.198  18.607  0.00  0.00    +0.000 N 
ATOM      6  C   UNL     1       2.193  15.518  18.659  0.00  0.00    +0.000 C 
ATOM      7  C   UNL     1       3.375  15.356  17.711  0.00  0.00    +0.000 C 
ATOM      8  C   UNL     1       3.863  13.937  17.989  0.00  0.00    +0.000 C 
ATOM      9  C   UNL     1       2.619  13.173  18.454  0.00  0.00    +0.000 C 
ATOM     10  N   UNL     1       0.015  12.635  19.268  0.00  0.00    +0.000 NA
ATOM     11  C   UNL     1      -1.173  12.302  19.837  0.00  0.00    +0.000 A 
ENDROOT
BRANCH   1  15
ATOM     12  C   UNL     1      -6.850  12.357  21.384  0.00  0.00    +0.000 C 
ATOM     13  C   UNL     1      -5.417  12.717  21.481  0.00  0.00    +0.000 A 
ATOM     14  C   UNL     1      -4.578  13.168  20.445  0.00  0.00    +0.000 A 
ATOM     15  C   UNL     1      -3.309  13.170  20.987  0.00  0.00    +0.000 A 
ATOM     16  O   UNL     1      -3.404  12.835  22.301  0.00  0.00    +0.000 OA
ATOM     17  N   UNL     1      -4.729  12.563  22.618  0.00  0.00    +0.000 NA
ENDBRANCH   1  15
BRANCH  11  18
ATOM     18  C   UNL     1      -1.466  10.802  19.828  0.00  0.00    +0.000 C 
ATOM     19  C   UNL     1      -0.488  10.001  20.710  0.00  0.00    +0.000 C 
ATOM     20  C   UNL     1       0.901   9.779  20.086  0.00  0.00    +0.000 C 
ATOM     21  N   UNL     1       0.862   9.201  18.732  0.00  0.00    +0.000 NA
ATOM     22  C   UNL     1      -0.050   9.967  17.853  0.00  0.00    +0.000 C 
ATOM     23  C   UNL     1      -1.456  10.171  18.426  0.00  0.00    +0.000 C 
BRANCH  21  24
ATOM     24  C   UNL     1       2.209   9.216  18.098  0.00  0.00    +0.000 C 
BRANCH  24  25
ATOM     25  C   UNL     1       2.942   7.902  17.964  0.00  0.00    +0.000 A 
ATOM     26  C   UNL     1       4.007   7.697  17.089  0.00  0.00    +0.000 A 
ATOM     27  C   UNL     1       4.663   6.465  17.065  0.00  0.00    +0.000 A 
ATOM     28  C   UNL     1       4.244   5.477  17.942  0.00  0.00    +0.000 A 
ATOM     29  N   UNL     1       3.239   5.641  18.826  0.00  0.00    +0.000 NA
ATOM     30  C   UNL     1       2.622   6.844  18.820  0.00  0.00    +0.000 A 
ENDBRANCH  24  25
ENDBRANCH  21  24
ENDBRANCH  11  18
TORSDOF 4
ENDMDL
MODEL 9
REMARK VINA RESULT:      -6.6      2.468      6.867
REMARK  Name = 
REMARK  5 active torsions:
REMARK  status: ('A' for Active; 'I' for Inactive)
REMARK    1  A    between atoms: C_1  and  C_2
REMARK    2  A    between atoms: C_4  and  C_5
REMARK    3  A    between atoms: C_15  and  C_16
REMARK    4  A    between atoms: N_19  and  C_20
REMARK    5  A    between atoms: C_20  and  C_21
REMARK                            x       y       z     vdW  Elec       q    Type
REMARK                         _______ _______ _______ _____ _____    ______ ____
ROOT
ATOM      1  C   UNL     1      -0.980  11.340  22.003  0.00  0.00    +0.000 A 
ATOM      2  C   UNL     1      -0.438  10.157  22.490  0.00  0.00    +0.000 A 
ATOM      3  N   UNL     1       0.332   9.296  21.805  0.00  0.00    +0.000 NA
ATOM      4  C   UNL     1       0.592   9.617  20.542  0.00  0.00    +0.000 A 
ATOM      5  N   UNL     1       1.420   8.818  19.814  0.00  0.00    +0.000 N 
ATOM      6  C   UNL     1       1.870   7.539  20.313  0.00  0.00    +0.000 C 
ATOM      7  C   UNL     1       2.848   7.122  19.222  0.00  0.00    +0.000 C 
ATOM      8  C   UNL     1       2.184   7.617  17.940  0.00  0.00    +0.000 C 
ATOM      9  C   UNL     1       1.350   8.829  18.367  0.00  0.00    +0.000 C 
ATOM     10  N   UNL     1       0.101  10.729  19.969  0.00  0.00    +0.000 NA
ATOM     11  C   UNL     1      -0.683  11.590  20.668  0.00  0.00    +0.000 A 
ENDROOT
BRANCH   1  15
ATOM     12  C   UNL     1      -3.148  15.069  24.636  0.00  0.00    +0.000 C 
ATOM     13  C   UNL     1      -2.754  13.752  24.087  0.00  0.00    +0.000 A 
ATOM     14  C   UNL     1      -1.538  13.415  23.464  0.00  0.00    +0.000 A 
ATOM     15  C   UNL     1      -1.734  12.148  22.953  0.00  0.00    +0.000 A 
ATOM     16  O   UNL     1      -2.965  11.718  23.340  0.00  0.00    +0.000 OA
ATOM     17  N   UNL     1      -3.603  12.718  24.063  0.00  0.00    +0.000 NA
ENDBRANCH   1  15
BRANCH  11  18
ATOM     18  C   UNL     1      -1.198  12.769  19.843  0.00  0.00    +0.000 C 
ATOM     19  C   UNL     1      -2.591  13.249  20.298  0.00  0.00    +0.000 C 
ATOM     20  C   UNL     1      -3.757  12.359  19.836  0.00  0.00    +0.000 C 
ATOM     21  N   UNL     1      -3.769  12.095  18.386  0.00  0.00    +0.000 NA
ATOM     22  C   UNL     1      -2.451  11.606  17.924  0.00  0.00    +0.000 C 
ATOM     23  C   UNL     1      -1.269  12.493  18.332  0.00  0.00    +0.000 C 
BRANCH  21  24
ATOM     24  C   UNL     1      -4.778  11.058  18.033  0.00  0.00    +0.000 C 
BRANCH  24  25
ATOM     25  C   UNL     1      -5.870  10.765  19.035  0.00  0.00    +0.000 A 
ATOM     26  C   UNL     1      -6.583  11.752  19.712  0.00  0.00    +0.000 A 
ATOM     27  C   UNL     1      -7.612  11.394  20.584  0.00  0.00    +0.000 A 
ATOM     28  C   UNL     1      -7.915  10.050  20.732  0.00  0.00    +0.000 A 
ATOM     29  N   UNL     1      -7.273   9.064  20.074  0.00  0.00    +0.000 NA
ATOM     30  C   UNL     1      -6.278   9.444  19.241  0.00  0.00    +0.000 A 
ENDBRANCH  24  25
ENDBRANCH  21  24
ENDBRANCH  11  18
TORSDOF 4
ENDMDL
