MODEL 1
REMARK VINA RESULT:      -7.9      0.000      0.000
REMARK  Name = 
REMARK  5 active torsions:
REMARK  status: ('A' for Active; 'I' for Inactive)
REMARK    1  A    between atoms: N_2  and  C_4
REMARK    2  A    between atoms: C_7  and  N_8
REMARK    3  A    between atoms: C_10  and  C_11
REMARK    4  A    between atoms: C_11  and  N_12
REMARK    5  A    between atoms: N_15  and  C_16
REMARK                            x       y       z     vdW  Elec       q    Type
REMARK                         _______ _______ _______ _____ _____    ______ ____
ROOT
ATOM      1  N   UNL     1       1.429   7.782  20.526  0.00  0.00    +0.000 N 
ATOM      2  C   UNL     1       2.093   7.719  19.322  0.00  0.00    +0.000 A 
ATOM      3  C   UNL     1       2.480   6.402  19.188  0.00  0.00    +0.000 A 
ATOM      4  N   UNL     1       2.049   5.707  20.287  0.00  0.00    +0.000 NA
ATOM      5  N   UNL     1       1.438   6.556  21.105  0.00  0.00    +0.000 NA
ENDROOT
BRANCH   1   9
ATOM      6  C   UNL     1      -0.492  11.093  22.324  0.00  0.00    +0.000 A 
ATOM      7  C   UNL     1      -0.112  11.153  20.976  0.00  0.00    +0.000 A 
ATOM      8  C   UNL     1       0.536  10.060  20.387  0.00  0.00    +0.000 A 
ATOM      9  C   UNL     1       0.791   8.900  21.132  0.00  0.00    +0.000 A 
ATOM     10  C   UNL     1       0.397   8.844  22.480  0.00  0.00    +0.000 A 
ATOM     11  C   UNL     1      -0.233   9.944  23.081  0.00  0.00    +0.000 A 
BRANCH   6  13
ATOM     12  O   UNL     1      -0.480  13.192  23.308  0.00  0.00    +0.000 OA
ATOM     13  N   UNL     1      -1.178  12.241  22.936  0.00  0.00    +0.000 N 
ATOM     14  O   UNL     1      -2.410  12.186  23.043  0.00  0.00    +0.000 OA
ENDBRANCH   6  13
ENDBRANCH   1   9
BRANCH   3  15
ATOM     15  C   UNL     1       3.219   5.717  18.079  0.00  0.00    +0.000 C 
BRANCH  15  16
ATOM     16  N   UNL     1       4.677   5.755  18.294  0.00  0.00    +0.000 NA
ATOM     17  C   UNL     1       5.334   4.444  18.067  0.00  0.00    +0.000 C 
ATOM     18  C   UNL     1       5.436   3.970  16.594  0.00  0.00    +0.000 C 
ATOM     19  N   UNL     1       6.032   5.017  15.742  0.00  0.00    +0.000 N 
ATOM     20  C   UNL     1       5.420   6.352  15.897  0.00  0.00    +0.000 C 
ATOM     21  C   UNL     1       5.325   6.743  17.396  0.00  0.00    +0.000 C 
BRANCH  19  22
ATOM     22  C   UNL     1       6.426   4.680  14.440  0.00  0.00    +0.000 A 
ATOM     23  C   UNL     1       7.486   5.301  13.760  0.00  0.00    +0.000 A 
ATOM     24  C   UNL     1       7.802   4.969  12.436  0.00  0.00    +0.000 A 
ATOM     25  C   UNL     1       7.058   4.013  11.755  0.00  0.00    +0.000 A 
ATOM     26  C   UNL     1       6.005   3.381  12.401  0.00  0.00    +0.000 A 
ATOM     27  C   UNL     1       5.699   3.710  13.726  0.00  0.00    +0.000 A 
ENDBRANCH  19  22
ENDBRANCH  15  16
ENDBRANCH   3  15
TORSDOF 5
ENDMDL
MODEL 2
REMARK VINA RESULT:      -7.8      5.465      8.041
REMARK  Name = 
REMARK  5 active torsions:
REMARK  status: ('A' for Active; 'I' for Inactive)
REMARK    1  A    between atoms: N_2  and  C_4
REMARK    2  A    between atoms: C_7  and  N_8
REMARK    3  A    between atoms: C_10  and  C_11
REMARK    4  A    between atoms: C_11  and  N_12
REMARK    5  A    between atoms: N_15  and  C_16
REMARK                            x       y       z     vdW  Elec       q    Type
REMARK                         _______ _______ _______ _____ _____    ______ ____
ROOT
ATOM      1  N   UNL     1       8.334   8.511  18.259  0.00  0.00    +0.000 N 
ATOM      2  C   UNL     1       7.691   7.947  17.181  0.00  0.00    +0.000 A 
ATOM      3  C   UNL     1       7.533   6.616  17.506  0.00  0.00    +0.000 A 
ATOM      4  N   UNL     1       8.066   6.406  18.750  0.00  0.00    +0.000 NA
ATOM      5  N   UNL     1       8.574   7.552  19.187  0.00  0.00    +0.000 NA
ENDROOT
BRANCH   1   9
ATOM      6  C   UNL     1       9.464  12.545  18.838  0.00  0.00    +0.000 A 
ATOM      7  C   UNL     1       9.922  11.558  19.720  0.00  0.00    +0.000 A 
ATOM      8  C   UNL     1       9.536  10.225  19.534  0.00  0.00    +0.000 A 
ATOM      9  C   UNL     1       8.706   9.869  18.461  0.00  0.00    +0.000 A 
ATOM     10  C   UNL     1       8.260  10.864  17.573  0.00  0.00    +0.000 A 
ATOM     11  C   UNL     1       8.626  12.204  17.768  0.00  0.00    +0.000 A 
BRANCH   6  13
ATOM     12  O   UNL     1      10.490  14.217  20.074  0.00  0.00    +0.000 OA
ATOM     13  N   UNL     1       9.878  13.942  19.034  0.00  0.00    +0.000 N 
ATOM     14  O   UNL     1       9.588  14.759  18.150  0.00  0.00    +0.000 OA
ENDBRANCH   6  13
ENDBRANCH   1   9
BRANCH   3  15
ATOM     15  C   UNL     1       6.886   5.501  16.742  0.00  0.00    +0.000 C 
BRANCH  15  16
ATOM     16  N   UNL     1       5.575   5.904  16.201  0.00  0.00    +0.000 NA
ATOM     17  C   UNL     1       4.738   4.752  15.784  0.00  0.00    +0.000 C 
ATOM     18  C   UNL     1       4.143   3.884  16.923  0.00  0.00    +0.000 C 
ATOM     19  N   UNL     1       3.439   4.722  17.913  0.00  0.00    +0.000 N 
ATOM     20  C   UNL     1       4.214   5.884  18.392  0.00  0.00    +0.000 C 
ATOM     21  C   UNL     1       4.800   6.684  17.198  0.00  0.00    +0.000 C 
BRANCH  19  22
ATOM     22  C   UNL     1       2.635   4.094  18.874  0.00  0.00    +0.000 A 
ATOM     23  C   UNL     1       1.562   3.245  18.560  0.00  0.00    +0.000 A 
ATOM     24  C   UNL     1       0.751   2.689  19.559  0.00  0.00    +0.000 A 
ATOM     25  C   UNL     1       0.988   2.977  20.898  0.00  0.00    +0.000 A 
ATOM     26  C   UNL     1       2.043   3.811  21.239  0.00  0.00    +0.000 A 
ATOM     27  C   UNL     1       2.855   4.356  20.239  0.00  0.00    +0.000 A 
ENDBRANCH  19  22
ENDBRANCH  15  16
ENDBRANCH   3  15
TORSDOF 5
ENDMDL
MODEL 3
REMARK VINA RESULT:      -7.7      0.368      1.150
REMARK  Name = 
REMARK  5 active torsions:
REMARK  status: ('A' for Active; 'I' for Inactive)
REMARK    1  A    between atoms: N_2  and  C_4
REMARK    2  A    between atoms: C_7  and  N_8
REMARK    3  A    between atoms: C_10  and  C_11
REMARK    4  A    between atoms: C_11  and  N_12
REMARK    5  A    between atoms: N_15  and  C_16
REMARK                            x       y       z     vdW  Elec       q    Type
REMARK                         _______ _______ _______ _____ _____    ______ ____
ROOT
ATOM      1  N   UNL     1       1.308   8.118  20.530  0.00  0.00    +0.000 N 
ATOM      2  C   UNL     1       1.842   8.079  19.262  0.00  0.00    +0.000 A 
ATOM      3  C   UNL     1       2.341   6.801  19.117  0.00  0.00    +0.000 A 
ATOM      4  N   UNL     1       2.100   6.105  20.271  0.00  0.00    +0.000 NA
ATOM      5  N   UNL     1       1.500   6.919  21.133  0.00  0.00    +0.000 NA
ENDROOT
BRANCH   1   9
ATOM      6  C   UNL     1      -0.726  11.295  22.442  0.00  0.00    +0.000 A 
ATOM      7  C   UNL     1      -0.137  11.498  21.187  0.00  0.00    +0.000 A 
ATOM      8  C   UNL     1       0.547  10.448  20.562  0.00  0.00    +0.000 A 
ATOM      9  C   UNL     1       0.633   9.191  21.177  0.00  0.00    +0.000 A 
ATOM     10  C   UNL     1       0.030   8.993  22.431  0.00  0.00    +0.000 A 
ATOM     11  C   UNL     1      -0.638  10.047  23.071  0.00  0.00    +0.000 A 
BRANCH   6  13
ATOM     12  O   UNL     1      -2.603  12.179  23.476  0.00  0.00    +0.000 OA
ATOM     13  N   UNL     1      -1.448  12.399  23.091  0.00  0.00    +0.000 N 
ATOM     14  O   UNL     1      -0.859  13.482  23.211  0.00  0.00    +0.000 OA
ENDBRANCH   6  13
ENDBRANCH   1   9
BRANCH   3  15
ATOM     15  C   UNL     1       3.020   6.153  17.949  0.00  0.00    +0.000 C 
BRANCH  15  16
ATOM     16  N   UNL     1       4.417   5.800  18.262  0.00  0.00    +0.000 NA
ATOM     17  C   UNL     1       4.747   4.389  17.942  0.00  0.00    +0.000 C 
ATOM     18  C   UNL     1       4.861   4.031  16.438  0.00  0.00    +0.000 C 
ATOM     19  N   UNL     1       5.771   4.960  15.741  0.00  0.00    +0.000 N 
ATOM     20  C   UNL     1       5.496   6.388  15.994  0.00  0.00    +0.000 C 
ATOM     21  C   UNL     1       5.367   6.663  17.516  0.00  0.00    +0.000 C 
BRANCH  19  22
ATOM     22  C   UNL     1       6.184   4.645  14.440  0.00  0.00    +0.000 A 
ATOM     23  C   UNL     1       5.542   3.700  13.624  0.00  0.00    +0.000 A 
ATOM     24  C   UNL     1       6.032   3.379  12.350  0.00  0.00    +0.000 A 
ATOM     25  C   UNL     1       7.182   3.989  11.865  0.00  0.00    +0.000 A 
ATOM     26  C   UNL     1       7.837   4.928  12.648  0.00  0.00    +0.000 A 
ATOM     27  C   UNL     1       7.340   5.252  13.914  0.00  0.00    +0.000 A 
ENDBRANCH  19  22
ENDBRANCH  15  16
ENDBRANCH   3  15
TORSDOF 5
ENDMDL
MODEL 4
REMARK VINA RESULT:      -7.7      5.242      7.909
REMARK  Name = 
REMARK  5 active torsions:
REMARK  status: ('A' for Active; 'I' for Inactive)
REMARK    1  A    between atoms: N_2  and  C_4
REMARK    2  A    between atoms: C_7  and  N_8
REMARK    3  A    between atoms: C_10  and  C_11
REMARK    4  A    between atoms: C_11  and  N_12
REMARK    5  A    between atoms: N_15  and  C_16
REMARK                            x       y       z     vdW  Elec       q    Type
REMARK                         _______ _______ _______ _____ _____    ______ ____
ROOT
ATOM      1  N   UNL     1       8.437   8.769  18.318  0.00  0.00    +0.000 N 
ATOM      2  C   UNL     1       7.830   8.217  17.213  0.00  0.00    +0.000 A 
ATOM      3  C   UNL     1       7.655   6.884  17.521  0.00  0.00    +0.000 A 
ATOM      4  N   UNL     1       8.144   6.661  18.781  0.00  0.00    +0.000 NA
ATOM      5  N   UNL     1       8.642   7.801  19.245  0.00  0.00    +0.000 NA
ENDROOT
BRANCH   1   9
ATOM      6  C   UNL     1       9.515  12.799  19.009  0.00  0.00    +0.000 A 
ATOM      7  C   UNL     1       8.766  12.462  17.874  0.00  0.00    +0.000 A 
ATOM      8  C   UNL     1       8.422  11.125  17.641  0.00  0.00    +0.000 A 
ATOM      9  C   UNL     1       8.807  10.124  18.544  0.00  0.00    +0.000 A 
ATOM     10  C   UNL     1       9.549  10.473  19.686  0.00  0.00    +0.000 A 
ATOM     11  C   UNL     1       9.915  11.807  19.913  0.00  0.00    +0.000 A 
BRANCH   6  13
ATOM     12  O   UNL     1       8.942  15.006  19.430  0.00  0.00    +0.000 OA
ATOM     13  N   UNL     1       9.869  14.206  19.253  0.00  0.00    +0.000 N 
ATOM     14  O   UNL     1      11.070  14.505  19.264  0.00  0.00    +0.000 OA
ENDBRANCH   6  13
ENDBRANCH   1   9
BRANCH   3  15
ATOM     15  C   UNL     1       7.032   5.778  16.725  0.00  0.00    +0.000 C 
BRANCH  15  16
ATOM     16  N   UNL     1       5.780   6.215  16.079  0.00  0.00    +0.000 NA
ATOM     17  C   UNL     1       5.007   5.094  15.489  0.00  0.00    +0.000 C 
ATOM     18  C   UNL     1       4.305   4.139  16.490  0.00  0.00    +0.000 C 
ATOM     19  N   UNL     1       3.489   4.896  17.459  0.00  0.00    +0.000 N 
ATOM     20  C   UNL     1       4.195   6.022  18.103  0.00  0.00    +0.000 C 
ATOM     21  C   UNL     1       4.894   6.913  17.043  0.00  0.00    +0.000 C 
BRANCH  19  22
ATOM     22  C   UNL     1       2.596   4.193  18.278  0.00  0.00    +0.000 A 
ATOM     23  C   UNL     1       2.090   2.921  17.969  0.00  0.00    +0.000 A 
ATOM     24  C   UNL     1       1.151   2.285  18.794  0.00  0.00    +0.000 A 
ATOM     25  C   UNL     1       0.689   2.913  19.945  0.00  0.00    +0.000 A 
ATOM     26  C   UNL     1       1.173   4.170  20.277  0.00  0.00    +0.000 A 
ATOM     27  C   UNL     1       2.116   4.795  19.455  0.00  0.00    +0.000 A 
ENDBRANCH  19  22
ENDBRANCH  15  16
ENDBRANCH   3  15
TORSDOF 5
ENDMDL
MODEL 5
REMARK VINA RESULT:      -7.7      5.249      7.869
REMARK  Name = 
REMARK  5 active torsions:
REMARK  status: ('A' for Active; 'I' for Inactive)
REMARK    1  A    between atoms: N_2  and  C_4
REMARK    2  A    between atoms: C_7  and  N_8
REMARK    3  A    between atoms: C_10  and  C_11
REMARK    4  A    between atoms: C_11  and  N_12
REMARK    5  A    between atoms: N_15  and  C_16
REMARK                            x       y       z     vdW  Elec       q    Type
REMARK                         _______ _______ _______ _____ _____    ______ ____
ROOT
ATOM      1  N   UNL     1       8.451   8.732  18.376  0.00  0.00    +0.000 N 
ATOM      2  C   UNL     1       7.839   8.202  17.264  0.00  0.00    +0.000 A 
ATOM      3  C   UNL     1       7.650   6.867  17.553  0.00  0.00    +0.000 A 
ATOM      4  N   UNL     1       8.136   6.620  18.810  0.00  0.00    +0.000 NA
ATOM      5  N   UNL     1       8.646   7.749  19.289  0.00  0.00    +0.000 NA
ENDROOT
BRANCH   1   9
ATOM      6  C   UNL     1       9.571  12.741  19.122  0.00  0.00    +0.000 A 
ATOM      7  C   UNL     1       8.943  12.404  17.915  0.00  0.00    +0.000 A 
ATOM      8  C   UNL     1       8.586  11.074  17.665  0.00  0.00    +0.000 A 
ATOM      9  C   UNL     1       8.836  10.080  18.622  0.00  0.00    +0.000 A 
ATOM     10  C   UNL     1       9.457  10.428  19.834  0.00  0.00    +0.000 A 
ATOM     11  C   UNL     1       9.837  11.756  20.080  0.00  0.00    +0.000 A 
BRANCH   6  13
ATOM     12  O   UNL     1      10.943  14.351  20.073  0.00  0.00    +0.000 OA
ATOM     13  N   UNL     1       9.939  14.142  19.381  0.00  0.00    +0.000 N 
ATOM     14  O   UNL     1       9.222  15.026  18.895  0.00  0.00    +0.000 OA
ENDBRANCH   6  13
ENDBRANCH   1   9
BRANCH   3  15
ATOM     15  C   UNL     1       7.014   5.780  16.742  0.00  0.00    +0.000 C 
BRANCH  15  16
ATOM     16  N   UNL     1       5.778   6.245  16.085  0.00  0.00    +0.000 NA
ATOM     17  C   UNL     1       4.971   5.139  15.512  0.00  0.00    +0.000 C 
ATOM     18  C   UNL     1       4.237   4.225  16.527  0.00  0.00    +0.000 C 
ATOM     19  N   UNL     1       3.444   5.023  17.481  0.00  0.00    +0.000 N 
ATOM     20  C   UNL     1       4.183   6.137  18.108  0.00  0.00    +0.000 C 
ATOM     21  C   UNL     1       4.913   6.987  17.035  0.00  0.00    +0.000 C 
BRANCH  19  22
ATOM     22  C   UNL     1       2.527   4.364  18.310  0.00  0.00    +0.000 A 
ATOM     23  C   UNL     1       2.063   4.883  19.529  0.00  0.00    +0.000 A 
ATOM     24  C   UNL     1       1.191   4.156  20.351  0.00  0.00    +0.000 A 
ATOM     25  C   UNL     1       0.768   2.886  19.977  0.00  0.00    +0.000 A 
ATOM     26  C   UNL     1       1.207   2.347  18.776  0.00  0.00    +0.000 A 
ATOM     27  C   UNL     1       2.071   3.081  17.956  0.00  0.00    +0.000 A 
ENDBRANCH  19  22
ENDBRANCH  15  16
ENDBRANCH   3  15
TORSDOF 5
ENDMDL
MODEL 6
REMARK VINA RESULT:      -7.7      0.852      1.656
REMARK  Name = 
REMARK  5 active torsions:
REMARK  status: ('A' for Active; 'I' for Inactive)
REMARK    1  A    between atoms: N_2  and  C_4
REMARK    2  A    between atoms: C_7  and  N_8
REMARK    3  A    between atoms: C_10  and  C_11
REMARK    4  A    between atoms: C_11  and  N_12
REMARK    5  A    between atoms: N_15  and  C_16
REMARK                            x       y       z     vdW  Elec       q    Type
REMARK                         _______ _______ _______ _____ _____    ______ ____
ROOT
ATOM      1  N   UNL     1       1.638   8.303  19.615  0.00  0.00    +0.000 N 
ATOM      2  C   UNL     1       2.191   7.079  19.914  0.00  0.00    +0.000 A 
ATOM      3  C   UNL     1       2.793   6.657  18.747  0.00  0.00    +0.000 A 
ATOM      4  N   UNL     1       2.603   7.615  17.787  0.00  0.00    +0.000 NA
ATOM      5  N   UNL     1       1.877   8.595  18.313  0.00  0.00    +0.000 NA
ENDROOT
BRANCH   1   9
ATOM      6  C   UNL     1      -0.437  10.959  22.169  0.00  0.00    +0.000 A 
ATOM      7  C   UNL     1      -0.022   9.710  22.650  0.00  0.00    +0.000 A 
ATOM      8  C   UNL     1       0.653   8.827  21.798  0.00  0.00    +0.000 A 
ATOM      9  C   UNL     1       0.931   9.192  20.473  0.00  0.00    +0.000 A 
ATOM     10  C   UNL     1       0.521  10.452  20.003  0.00  0.00    +0.000 A 
ATOM     11  C   UNL     1      -0.175  11.331  20.845  0.00  0.00    +0.000 A 
BRANCH   6  13
ATOM     12  O   UNL     1      -0.571  12.943  23.362  0.00  0.00    +0.000 OA
ATOM     13  N   UNL     1      -1.141  11.885  23.070  0.00  0.00    +0.000 N 
ATOM     14  O   UNL     1      -2.259  11.550  23.483  0.00  0.00    +0.000 OA
ENDBRANCH   6  13
ENDBRANCH   1   9
BRANCH   3  15
ATOM     15  C   UNL     1       3.574   5.412  18.454  0.00  0.00    +0.000 C 
BRANCH  15  16
ATOM     16  N   UNL     1       5.026   5.667  18.464  0.00  0.00    +0.000 NA
ATOM     17  C   UNL     1       5.833   4.453  18.186  0.00  0.00    +0.000 C 
ATOM     18  C   UNL     1       5.807   3.926  16.728  0.00  0.00    +0.000 C 
ATOM     19  N   UNL     1       6.123   5.004  15.771  0.00  0.00    +0.000 N 
ATOM     20  C   UNL     1       5.347   6.244  15.971  0.00  0.00    +0.000 C 
ATOM     21  C   UNL     1       5.396   6.692  17.456  0.00  0.00    +0.000 C 
BRANCH  19  22
ATOM     22  C   UNL     1       6.385   4.663  14.438  0.00  0.00    +0.000 A 
ATOM     23  C   UNL     1       5.692   3.663  13.737  0.00  0.00    +0.000 A 
ATOM     24  C   UNL     1       6.033   3.319  12.422  0.00  0.00    +0.000 A 
ATOM     25  C   UNL     1       7.084   3.961  11.778  0.00  0.00    +0.000 A 
ATOM     26  C   UNL     1       7.787   4.955  12.444  0.00  0.00    +0.000 A 
ATOM     27  C   UNL     1       7.436   5.300  13.753  0.00  0.00    +0.000 A 
ENDBRANCH  19  22
ENDBRANCH  15  16
ENDBRANCH   3  15
TORSDOF 5
ENDMDL
MODEL 7
REMARK VINA RESULT:      -7.7      0.908      1.536
REMARK  Name = 
REMARK  5 active torsions:
REMARK  status: ('A' for Active; 'I' for Inactive)
REMARK    1  A    between atoms: N_2  and  C_4
REMARK    2  A    between atoms: C_7  and  N_8
REMARK    3  A    between atoms: C_10  and  C_11
REMARK    4  A    between atoms: C_11  and  N_12
REMARK    5  A    between atoms: N_15  and  C_16
REMARK                            x       y       z     vdW  Elec       q    Type
REMARK                         _______ _______ _______ _____ _____    ______ ____
ROOT
ATOM      1  N   UNL     1       1.458   8.512  19.560  0.00  0.00    +0.000 N 
ATOM      2  C   UNL     1       1.935   7.238  19.770  0.00  0.00    +0.000 A 
ATOM      3  C   UNL     1       2.635   6.919  18.625  0.00  0.00    +0.000 A 
ATOM      4  N   UNL     1       2.574   7.983  17.766  0.00  0.00    +0.000 NA
ATOM      5  N   UNL     1       1.835   8.932  18.328  0.00  0.00    +0.000 NA
ENDROOT
BRANCH   1   9
ATOM      6  C   UNL     1      -0.770  10.973  22.180  0.00  0.00    +0.000 A 
ATOM      7  C   UNL     1      -0.041   9.890  22.690  0.00  0.00    +0.000 A 
ATOM      8  C   UNL     1       0.684   9.068  21.819  0.00  0.00    +0.000 A 
ATOM      9  C   UNL     1       0.701   9.333  20.442  0.00  0.00    +0.000 A 
ATOM     10  C   UNL     1      -0.024  10.428  19.940  0.00  0.00    +0.000 A 
ATOM     11  C   UNL     1      -0.770  11.241  20.806  0.00  0.00    +0.000 A 
BRANCH   6  13
ATOM     12  O   UNL     1      -2.644  11.449  23.460  0.00  0.00    +0.000 OA
ATOM     13  N   UNL     1      -1.525  11.836  23.101  0.00  0.00    +0.000 N 
ATOM     14  O   UNL     1      -0.998  12.898  23.459  0.00  0.00    +0.000 OA
ENDBRANCH   6  13
ENDBRANCH   1   9
BRANCH   3  15
ATOM     15  C   UNL     1       3.397   5.678  18.269  0.00  0.00    +0.000 C 
BRANCH  15  16
ATOM     16  N   UNL     1       4.853   5.889  18.367  0.00  0.00    +0.000 NA
ATOM     17  C   UNL     1       5.636   4.642  18.181  0.00  0.00    +0.000 C 
ATOM     18  C   UNL     1       5.688   4.070  16.741  0.00  0.00    +0.000 C 
ATOM     19  N   UNL     1       6.102   5.106  15.775  0.00  0.00    +0.000 N 
ATOM     20  C   UNL     1       5.356   6.376  15.885  0.00  0.00    +0.000 C 
ATOM     21  C   UNL     1       5.322   6.868  17.356  0.00  0.00    +0.000 C 
BRANCH  19  22
ATOM     22  C   UNL     1       6.440   4.714  14.473  0.00  0.00    +0.000 A 
ATOM     23  C   UNL     1       7.511   5.260  13.747  0.00  0.00    +0.000 A 
ATOM     24  C   UNL     1       7.770   4.877  12.424  0.00  0.00    +0.000 A 
ATOM     25  C   UNL     1       6.959   3.943  11.791  0.00  0.00    +0.000 A 
ATOM     26  C   UNL     1       5.895   3.383  12.484  0.00  0.00    +0.000 A 
ATOM     27  C   UNL     1       5.645   3.764  13.807  0.00  0.00    +0.000 A 
ENDBRANCH  19  22
ENDBRANCH  15  16
ENDBRANCH   3  15
TORSDOF 5
ENDMDL
MODEL 8
REMARK VINA RESULT:      -7.6      4.359     10.684
REMARK  Name = 
REMARK  5 active torsions:
REMARK  status: ('A' for Active; 'I' for Inactive)
REMARK    1  A    between atoms: N_2  and  C_4
REMARK    2  A    between atoms: C_7  and  N_8
REMARK    3  A    between atoms: C_10  and  C_11
REMARK    4  A    between atoms: C_11  and  N_12
REMARK    5  A    between atoms: N_15  and  C_16
REMARK                            x       y       z     vdW  Elec       q    Type
REMARK                         _______ _______ _______ _____ _____    ______ ____
ROOT
ATOM      1  N   UNL     1       3.059   5.917  18.887  0.00  0.00    +0.000 N 
ATOM      2  C   UNL     1       2.335   7.065  19.113  0.00  0.00    +0.000 A 
ATOM      3  C   UNL     1       1.669   6.848  20.301  0.00  0.00    +0.000 A 
ATOM      4  N   UNL     1       1.999   5.602  20.764  0.00  0.00    +0.000 NA
ATOM      5  N   UNL     1       2.818   5.034  19.887  0.00  0.00    +0.000 NA
ENDROOT
BRANCH   1   9
ATOM      6  C   UNL     1       5.733   5.045  15.729  0.00  0.00    +0.000 A 
ATOM      7  C   UNL     1       5.396   6.376  16.012  0.00  0.00    +0.000 A 
ATOM      8  C   UNL     1       4.500   6.661  17.049  0.00  0.00    +0.000 A 
ATOM      9  C   UNL     1       3.951   5.624  17.818  0.00  0.00    +0.000 A 
ATOM     10  C   UNL     1       4.303   4.293  17.535  0.00  0.00    +0.000 A 
ATOM     11  C   UNL     1       5.183   4.001  16.482  0.00  0.00    +0.000 A 
BRANCH   6  13
ATOM     12  O   UNL     1       7.694   5.455  14.561  0.00  0.00    +0.000 OA
ATOM     13  N   UNL     1       6.679   4.752  14.642  0.00  0.00    +0.000 N 
ATOM     14  O   UNL     1       6.403   3.822  13.872  0.00  0.00    +0.000 OA
ENDBRANCH   6  13
ENDBRANCH   1   9
BRANCH   3  15
ATOM     15  C   UNL     1       0.744   7.741  21.071  0.00  0.00    +0.000 C 
BRANCH  15  16
ATOM     16  N   UNL     1       1.395   9.016  21.428  0.00  0.00    +0.000 NA
ATOM     17  C   UNL     1       1.082  10.115  20.481  0.00  0.00    +0.000 C 
ATOM     18  C   UNL     1      -0.358  10.687  20.541  0.00  0.00    +0.000 C 
ATOM     19  N   UNL     1      -0.724  11.056  21.922  0.00  0.00    +0.000 N 
ATOM     20  C   UNL     1      -0.458  10.005  22.925  0.00  0.00    +0.000 C 
ATOM     21  C   UNL     1       0.989   9.462  22.784  0.00  0.00    +0.000 C 
BRANCH  19  22
ATOM     22  C   UNL     1      -1.885  11.811  22.130  0.00  0.00    +0.000 A 
ATOM     23  C   UNL     1      -2.497  12.592  21.137  0.00  0.00    +0.000 A 
ATOM     24  C   UNL     1      -3.625  13.377  21.413  0.00  0.00    +0.000 A 
ATOM     25  C   UNL     1      -4.164  13.406  22.694  0.00  0.00    +0.000 A 
ATOM     26  C   UNL     1      -3.582  12.643  23.696  0.00  0.00    +0.000 A 
ATOM     27  C   UNL     1      -2.462  11.855  23.413  0.00  0.00    +0.000 A 
ENDBRANCH  19  22
ENDBRANCH  15  16
ENDBRANCH   3  15
TORSDOF 5
ENDMDL
MODEL 9
REMARK VINA RESULT:      -7.5      0.675      1.152
REMARK  Name = 
REMARK  5 active torsions:
REMARK  status: ('A' for Active; 'I' for Inactive)
REMARK    1  A    between atoms: N_2  and  C_4
REMARK    2  A    between atoms: C_7  and  N_8
REMARK    3  A    between atoms: C_10  and  C_11
REMARK    4  A    between atoms: C_11  and  N_12
REMARK    5  A    between atoms: N_15  and  C_16
REMARK                            x       y       z     vdW  Elec       q    Type
REMARK                         _______ _______ _______ _____ _____    ______ ____
ROOT
ATOM      1  N   UNL     1       1.355   8.453  20.337  0.00  0.00    +0.000 N 
ATOM      2  C   UNL     1       1.881   8.287  19.076  0.00  0.00    +0.000 A 
ATOM      3  C   UNL     1       2.346   6.988  19.044  0.00  0.00    +0.000 A 
ATOM      4  N   UNL     1       2.094   6.405  20.257  0.00  0.00    +0.000 NA
ATOM      5  N   UNL     1       1.520   7.308  21.044  0.00  0.00    +0.000 NA
ENDROOT
BRANCH   1   9
ATOM      6  C   UNL     1      -0.533  11.861  21.982  0.00  0.00    +0.000 A 
ATOM      7  C   UNL     1      -0.541  10.649  22.687  0.00  0.00    +0.000 A 
ATOM      8  C   UNL     1       0.073   9.519  22.134  0.00  0.00    +0.000 A 
ATOM      9  C   UNL     1       0.711   9.596  20.887  0.00  0.00    +0.000 A 
ATOM     10  C   UNL     1       0.724  10.818  20.192  0.00  0.00    +0.000 A 
ATOM     11  C   UNL     1       0.091  11.948  20.732  0.00  0.00    +0.000 A 
BRANCH   6  13
ATOM     12  O   UNL     1      -0.729  13.463  23.647  0.00  0.00    +0.000 OA
ATOM     13  N   UNL     1      -1.175  13.046  22.571  0.00  0.00    +0.000 N 
ATOM     14  O   UNL     1      -2.122  13.554  21.956  0.00  0.00    +0.000 OA
ENDBRANCH   6  13
ENDBRANCH   1   9
BRANCH   3  15
ATOM     15  C   UNL     1       3.002   6.221  17.937  0.00  0.00    +0.000 C 
BRANCH  15  16
ATOM     16  N   UNL     1       4.330   5.721  18.337  0.00  0.00    +0.000 NA
ATOM     17  C   UNL     1       4.563   4.309  17.944  0.00  0.00    +0.000 C 
ATOM     18  C   UNL     1       4.778   4.040  16.432  0.00  0.00    +0.000 C 
ATOM     19  N   UNL     1       5.823   4.924  15.881  0.00  0.00    +0.000 N 
ATOM     20  C   UNL     1       5.652   6.353  16.214  0.00  0.00    +0.000 C 
ATOM     21  C   UNL     1       5.413   6.538  17.736  0.00  0.00    +0.000 C 
BRANCH  19  22
ATOM     22  C   UNL     1       6.321   4.658  14.599  0.00  0.00    +0.000 A 
ATOM     23  C   UNL     1       7.411   5.335  14.029  0.00  0.00    +0.000 A 
ATOM     24  C   UNL     1       7.832   5.073  12.718  0.00  0.00    +0.000 A 
ATOM     25  C   UNL     1       7.167   4.131  11.941  0.00  0.00    +0.000 A 
ATOM     26  C   UNL     1       6.088   3.444  12.478  0.00  0.00    +0.000 A 
ATOM     27  C   UNL     1       5.677   3.704  13.790  0.00  0.00    +0.000 A 
ENDBRANCH  19  22
ENDBRANCH  15  16
ENDBRANCH   3  15
TORSDOF 5
ENDMDL
