MODEL 1
REMARK VINA RESULT:      -8.2      0.000      0.000
REMARK  Name = 
REMARK  6 active torsions:
REMARK  status: ('A' for Active; 'I' for Inactive)
REMARK    1  A    between atoms: N_3  and  C_4
REMARK    2  A    between atoms: C_4  and  C_5
REMARK    3  A    between atoms: N_11  and  C_12
REMARK    4  A    between atoms: C_12  and  C_13
REMARK    5  A    between atoms: C_12  and  C_17
REMARK    6  A    between atoms: N_15  and  O_16
REMARK                            x       y       z     vdW  Elec       q    Type
REMARK                         _______ _______ _______ _____ _____    ______ ____
ROOT
ATOM      1  O   UNL     1       3.449   4.034  16.613  0.00  0.00    +0.000 OA
ATOM      2  C   UNL     1       4.389   3.347  16.990  0.00  0.00    +0.000 C 
ATOM      3  N   UNL     1       4.268   2.140  17.619  0.00  0.00    +0.000 N 
ATOM      4  N   UNL     1       5.699   3.713  16.839  0.00  0.00    +0.000 N 
ATOM      5  H   UNL     1       5.033   1.882  18.223  0.00  0.00    +0.000 HD
ATOM      6  H   UNL     1       6.334   2.946  16.667  0.00  0.00    +0.000 HD
ENDROOT
BRANCH   3   7
ATOM      7  C   UNL     1       2.960   1.641  17.986  0.00  0.00    +0.000 C 
BRANCH   7   8
ATOM      8  C   UNL     1       2.427   2.359  19.198  0.00  0.00    +0.000 A 
ATOM      9  C   UNL     1       1.232   3.090  19.142  0.00  0.00    +0.000 A 
ATOM     10  C   UNL     1       0.758   3.758  20.273  0.00  0.00    +0.000 A 
ATOM     11  C   UNL     1       1.475   3.705  21.468  0.00  0.00    +0.000 A 
ATOM     12  C   UNL     1       2.667   2.986  21.534  0.00  0.00    +0.000 A 
ATOM     13  C   UNL     1       3.142   2.319  20.404  0.00  0.00    +0.000 A 
ENDBRANCH   7   8
ENDBRANCH   3   7
BRANCH   4  14
ATOM     14  C   UNL     1       6.008   4.957  16.145  0.00  0.00    +0.000 C 
BRANCH  14  15
ATOM     15  C   UNL     1       6.830   5.872  17.037  0.00  0.00    +0.000 A 
ATOM     16  C   UNL     1       7.452   5.354  18.186  0.00  0.00    +0.000 A 
ATOM     17  C   UNL     1       8.186   6.186  19.033  0.00  0.00    +0.000 A 
ATOM     18  C   UNL     1       8.317   7.540  18.737  0.00  0.00    +0.000 A 
ATOM     19  C   UNL     1       7.715   8.068  17.596  0.00  0.00    +0.000 A 
ATOM     20  C   UNL     1       6.975   7.239  16.750  0.00  0.00    +0.000 A 
ENDBRANCH  14  15
BRANCH  14  21
ATOM     21  C   UNL     1       6.753   4.675  14.820  0.00  0.00    +0.000 C 
ATOM     22  O   UNL     1       7.745   5.305  14.441  0.00  0.00    +0.000 OA
ATOM     23  N   UNL     1       6.165   3.704  14.033  0.00  0.00    +0.000 N 
ATOM     24  H   UNL     1       5.663   2.926  14.454  0.00  0.00    +0.000 HD
BRANCH  23  25
ATOM     25  O   UNL     1       6.841   3.412  12.824  0.00  0.00    +0.000 OA
ATOM     26  H   UNL     1       6.130   3.023  12.269  0.00  0.00    +0.000 HD
ENDBRANCH  23  25
ENDBRANCH  14  21
ENDBRANCH   4  14
TORSDOF 6
ENDMDL
MODEL 2
REMARK VINA RESULT:      -8.2      0.155      1.039
REMARK  Name = 
REMARK  6 active torsions:
REMARK  status: ('A' for Active; 'I' for Inactive)
REMARK    1  A    between atoms: N_3  and  C_4
REMARK    2  A    between atoms: C_4  and  C_5
REMARK    3  A    between atoms: N_11  and  C_12
REMARK    4  A    between atoms: C_12  and  C_13
REMARK    5  A    between atoms: C_12  and  C_17
REMARK    6  A    between atoms: N_15  and  O_16
REMARK                            x       y       z     vdW  Elec       q    Type
REMARK                         _______ _______ _______ _____ _____    ______ ____
ROOT
ATOM      1  O   UNL     1       3.369   4.142  16.641  0.00  0.00    +0.000 OA
ATOM      2  C   UNL     1       4.272   3.366  16.920  0.00  0.00    +0.000 C 
ATOM      3  N   UNL     1       4.092   2.135  17.487  0.00  0.00    +0.000 N 
ATOM      4  N   UNL     1       5.596   3.642  16.711  0.00  0.00    +0.000 N 
ATOM      5  H   UNL     1       4.868   1.785  18.028  0.00  0.00    +0.000 HD
ATOM      6  H   UNL     1       6.158   2.841  16.458  0.00  0.00    +0.000 HD
ENDROOT
BRANCH   3   7
ATOM      7  C   UNL     1       2.773   1.714  17.905  0.00  0.00    +0.000 C 
BRANCH   7   8
ATOM      8  C   UNL     1       2.370   2.388  19.190  0.00  0.00    +0.000 A 
ATOM      9  C   UNL     1       3.132   2.242  20.357  0.00  0.00    +0.000 A 
ATOM     10  C   UNL     1       2.737   2.866  21.543  0.00  0.00    +0.000 A 
ATOM     11  C   UNL     1       1.576   3.638  21.573  0.00  0.00    +0.000 A 
ATOM     12  C   UNL     1       0.808   3.787  20.420  0.00  0.00    +0.000 A 
ATOM     13  C   UNL     1       1.201   3.162  19.236  0.00  0.00    +0.000 A 
ENDBRANCH   7   8
ENDBRANCH   3   7
BRANCH   4  14
ATOM     14  C   UNL     1       5.961   4.899  16.070  0.00  0.00    +0.000 C 
BRANCH  14  15
ATOM     15  C   UNL     1       6.792   5.753  17.013  0.00  0.00    +0.000 A 
ATOM     16  C   UNL     1       7.372   5.173  18.154  0.00  0.00    +0.000 A 
ATOM     17  C   UNL     1       8.113   5.949  19.048  0.00  0.00    +0.000 A 
ATOM     18  C   UNL     1       8.293   7.308  18.806  0.00  0.00    +0.000 A 
ATOM     19  C   UNL     1       7.733   7.897  17.674  0.00  0.00    +0.000 A 
ATOM     20  C   UNL     1       6.986   7.125  16.782  0.00  0.00    +0.000 A 
ENDBRANCH  14  15
BRANCH  14  21
ATOM     21  C   UNL     1       6.727   4.640  14.752  0.00  0.00    +0.000 C 
ATOM     22  O   UNL     1       7.698   5.305  14.379  0.00  0.00    +0.000 OA
ATOM     23  N   UNL     1       6.182   3.646  13.964  0.00  0.00    +0.000 N 
ATOM     24  H   UNL     1       5.706   2.851  14.383  0.00  0.00    +0.000 HD
BRANCH  23  25
ATOM     25  O   UNL     1       6.879   3.375  12.761  0.00  0.00    +0.000 OA
ATOM     26  H   UNL     1       6.593   2.459  12.550  0.00  0.00    +0.000 HD
ENDBRANCH  23  25
ENDBRANCH  14  21
ENDBRANCH   4  14
TORSDOF 6
ENDMDL
MODEL 3
REMARK VINA RESULT:      -8.1      0.190      1.466
REMARK  Name = 
REMARK  6 active torsions:
REMARK  status: ('A' for Active; 'I' for Inactive)
REMARK    1  A    between atoms: N_3  and  C_4
REMARK    2  A    between atoms: C_4  and  C_5
REMARK    3  A    between atoms: N_11  and  C_12
REMARK    4  A    between atoms: C_12  and  C_13
REMARK    5  A    between atoms: C_12  and  C_17
REMARK    6  A    between atoms: N_15  and  O_16
REMARK                            x       y       z     vdW  Elec       q    Type
REMARK                         _______ _______ _______ _____ _____    ______ ____
ROOT
ATOM      1  O   UNL     1       3.345   4.165  16.668  0.00  0.00    +0.000 OA
ATOM      2  C   UNL     1       4.233   3.361  16.917  0.00  0.00    +0.000 C 
ATOM      3  N   UNL     1       4.032   2.125  17.464  0.00  0.00    +0.000 N 
ATOM      4  N   UNL     1       5.559   3.607  16.687  0.00  0.00    +0.000 N 
ATOM      5  H   UNL     1       4.809   1.745  17.984  0.00  0.00    +0.000 HD
ATOM      6  H   UNL     1       6.096   2.798  16.410  0.00  0.00    +0.000 HD
ENDROOT
BRANCH   3   7
ATOM      7  C   UNL     1       2.710   1.730  17.899  0.00  0.00    +0.000 C 
BRANCH   7   8
ATOM      8  C   UNL     1       2.347   2.392  19.202  0.00  0.00    +0.000 A 
ATOM      9  C   UNL     1       3.129   2.213  20.352  0.00  0.00    +0.000 A 
ATOM     10  C   UNL     1       2.771   2.826  21.554  0.00  0.00    +0.000 A 
ATOM     11  C   UNL     1       1.628   3.622  21.620  0.00  0.00    +0.000 A 
ATOM     12  C   UNL     1       0.840   3.804  20.485  0.00  0.00    +0.000 A 
ATOM     13  C   UNL     1       1.196   3.189  19.284  0.00  0.00    +0.000 A 
ENDBRANCH   7   8
ENDBRANCH   3   7
BRANCH   4  14
ATOM     14  C   UNL     1       5.945   4.867  16.062  0.00  0.00    +0.000 C 
BRANCH  14  15
ATOM     15  C   UNL     1       6.753   5.714  17.031  0.00  0.00    +0.000 A 
ATOM     16  C   UNL     1       6.903   7.091  16.798  0.00  0.00    +0.000 A 
ATOM     17  C   UNL     1       7.668   7.879  17.661  0.00  0.00    +0.000 A 
ATOM     18  C   UNL     1       8.281   7.303  18.770  0.00  0.00    +0.000 A 
ATOM     19  C   UNL     1       8.133   5.939  19.021  0.00  0.00    +0.000 A 
ATOM     20  C   UNL     1       7.374   5.148  18.156  0.00  0.00    +0.000 A 
ENDBRANCH  14  15
BRANCH  14  21
ATOM     21  C   UNL     1       6.744   4.612  14.763  0.00  0.00    +0.000 C 
ATOM     22  O   UNL     1       7.752   5.247  14.440  0.00  0.00    +0.000 OA
ATOM     23  N   UNL     1       6.188   3.659  13.932  0.00  0.00    +0.000 N 
ATOM     24  H   UNL     1       5.668   2.873  14.314  0.00  0.00    +0.000 HD
BRANCH  23  25
ATOM     25  O   UNL     1       6.914   3.392  12.746  0.00  0.00    +0.000 OA
ATOM     26  H   UNL     1       7.217   2.468  12.884  0.00  0.00    +0.000 HD
ENDBRANCH  23  25
ENDBRANCH  14  21
ENDBRANCH   4  14
TORSDOF 6
ENDMDL
MODEL 4
REMARK VINA RESULT:      -8.1      3.423      7.708
REMARK  Name = 
REMARK  6 active torsions:
REMARK  status: ('A' for Active; 'I' for Inactive)
REMARK    1  A    between atoms: N_3  and  C_4
REMARK    2  A    between atoms: C_4  and  C_5
REMARK    3  A    between atoms: N_11  and  C_12
REMARK    4  A    between atoms: C_12  and  C_13
REMARK    5  A    between atoms: C_12  and  C_17
REMARK    6  A    between atoms: N_15  and  O_16
REMARK                            x       y       z     vdW  Elec       q    Type
REMARK                         _______ _______ _______ _____ _____    ______ ____
ROOT
ATOM      1  O   UNL     1       8.303   6.934  18.947  0.00  0.00    +0.000 OA
ATOM      2  C   UNL     1       7.967   7.587  17.969  0.00  0.00    +0.000 C 
ATOM      3  N   UNL     1       8.230   8.917  17.793  0.00  0.00    +0.000 N 
ATOM      4  N   UNL     1       7.260   7.065  16.919  0.00  0.00    +0.000 N 
ATOM      5  H   UNL     1       7.585   9.416  17.199  0.00  0.00    +0.000 HD
ATOM      6  H   UNL     1       7.494   7.456  16.017  0.00  0.00    +0.000 HD
ENDROOT
BRANCH   3   7
ATOM      7  C   UNL     1       8.854   9.679  18.852  0.00  0.00    +0.000 C 
BRANCH   7   8
ATOM      8  C   UNL     1       9.455  10.954  18.322  0.00  0.00    +0.000 A 
ATOM      9  C   UNL     1       8.648  12.028  17.924  0.00  0.00    +0.000 A 
ATOM     10  C   UNL     1       9.223  13.198  17.424  0.00  0.00    +0.000 A 
ATOM     11  C   UNL     1      10.609  13.305  17.315  0.00  0.00    +0.000 A 
ATOM     12  C   UNL     1      11.422  12.241  17.702  0.00  0.00    +0.000 A 
ATOM     13  C   UNL     1      10.847  11.071  18.200  0.00  0.00    +0.000 A 
ENDBRANCH   7   8
ENDBRANCH   3   7
BRANCH   4  14
ATOM     14  C   UNL     1       6.934   5.644  16.926  0.00  0.00    +0.000 C 
BRANCH  14  15
ATOM     15  C   UNL     1       5.569   5.416  17.552  0.00  0.00    +0.000 A 
ATOM     16  C   UNL     1       4.487   6.235  17.187  0.00  0.00    +0.000 A 
ATOM     17  C   UNL     1       3.233   6.060  17.775  0.00  0.00    +0.000 A 
ATOM     18  C   UNL     1       3.042   5.060  18.723  0.00  0.00    +0.000 A 
ATOM     19  C   UNL     1       4.102   4.231  19.089  0.00  0.00    +0.000 A 
ATOM     20  C   UNL     1       5.359   4.409  18.508  0.00  0.00    +0.000 A 
ENDBRANCH  14  15
BRANCH  14  21
ATOM     21  C   UNL     1       6.981   5.064  15.494  0.00  0.00    +0.000 C 
ATOM     22  O   UNL     1       7.551   5.614  14.547  0.00  0.00    +0.000 OA
ATOM     23  N   UNL     1       6.250   3.904  15.326  0.00  0.00    +0.000 N 
ATOM     24  H   UNL     1       6.146   3.239  16.089  0.00  0.00    +0.000 HD
BRANCH  23  25
ATOM     25  O   UNL     1       6.296   3.341  14.028  0.00  0.00    +0.000 OA
ATOM     26  H   UNL     1       7.260   3.259  13.863  0.00  0.00    +0.000 HD
ENDBRANCH  23  25
ENDBRANCH  14  21
ENDBRANCH   4  14
TORSDOF 6
ENDMDL
MODEL 5
REMARK VINA RESULT:      -8.1      0.171      1.044
REMARK  Name = 
REMARK  6 active torsions:
REMARK  status: ('A' for Active; 'I' for Inactive)
REMARK    1  A    between atoms: N_3  and  C_4
REMARK    2  A    between atoms: C_4  and  C_5
REMARK    3  A    between atoms: N_11  and  C_12
REMARK    4  A    between atoms: C_12  and  C_13
REMARK    5  A    between atoms: C_12  and  C_17
REMARK    6  A    between atoms: N_15  and  O_16
REMARK                            x       y       z     vdW  Elec       q    Type
REMARK                         _______ _______ _______ _____ _____    ______ ____
ROOT
ATOM      1  O   UNL     1       3.395   4.153  16.665  0.00  0.00    +0.000 OA
ATOM      2  C   UNL     1       4.329   3.429  16.981  0.00  0.00    +0.000 C 
ATOM      3  N   UNL     1       4.198   2.193  17.549  0.00  0.00    +0.000 N 
ATOM      4  N   UNL     1       5.642   3.778  16.817  0.00  0.00    +0.000 N 
ATOM      5  H   UNL     1       4.972   1.889  18.119  0.00  0.00    +0.000 HD
ATOM      6  H   UNL     1       6.257   3.009  16.589  0.00  0.00    +0.000 HD
ENDROOT
BRANCH   3   7
ATOM      7  C   UNL     1       2.890   1.701  17.922  0.00  0.00    +0.000 C 
BRANCH   7   8
ATOM      8  C   UNL     1       2.403   2.360  19.186  0.00  0.00    +0.000 A 
ATOM      9  C   UNL     1       1.192   3.066  19.217  0.00  0.00    +0.000 A 
ATOM     10  C   UNL     1       0.762   3.680  20.396  0.00  0.00    +0.000 A 
ATOM     11  C   UNL     1       1.538   3.597  21.551  0.00  0.00    +0.000 A 
ATOM     12  C   UNL     1       2.746   2.902  21.530  0.00  0.00    +0.000 A 
ATOM     13  C   UNL     1       3.177   2.290  20.352  0.00  0.00    +0.000 A 
ENDBRANCH   7   8
ENDBRANCH   3   7
BRANCH   4  14
ATOM     14  C   UNL     1       5.960   5.051  16.182  0.00  0.00    +0.000 C 
BRANCH  14  15
ATOM     15  C   UNL     1       6.788   5.917  17.116  0.00  0.00    +0.000 A 
ATOM     16  C   UNL     1       6.959   7.283  16.835  0.00  0.00    +0.000 A 
ATOM     17  C   UNL     1       7.743   8.087  17.665  0.00  0.00    +0.000 A 
ATOM     18  C   UNL     1       8.354   7.539  18.789  0.00  0.00    +0.000 A 
ATOM     19  C   UNL     1       8.187   6.188  19.088  0.00  0.00    +0.000 A 
ATOM     20  C   UNL     1       7.409   5.380  18.256  0.00  0.00    +0.000 A 
ENDBRANCH  14  15
BRANCH  14  21
ATOM     21  C   UNL     1       6.702   4.826  14.844  0.00  0.00    +0.000 C 
ATOM     22  O   UNL     1       7.798   5.326  14.574  0.00  0.00    +0.000 OA
ATOM     23  N   UNL     1       5.997   4.079  13.921  0.00  0.00    +0.000 N 
ATOM     24  H   UNL     1       5.358   3.348  14.222  0.00  0.00    +0.000 HD
BRANCH  23  25
ATOM     25  O   UNL     1       6.666   3.841  12.696  0.00  0.00    +0.000 OA
ATOM     26  H   UNL     1       6.674   4.730  12.280  0.00  0.00    +0.000 HD
ENDBRANCH  23  25
ENDBRANCH  14  21
ENDBRANCH   4  14
TORSDOF 6
ENDMDL
MODEL 6
REMARK VINA RESULT:      -8.1      3.464      7.691
REMARK  Name = 
REMARK  6 active torsions:
REMARK  status: ('A' for Active; 'I' for Inactive)
REMARK    1  A    between atoms: N_3  and  C_4
REMARK    2  A    between atoms: C_4  and  C_5
REMARK    3  A    between atoms: N_11  and  C_12
REMARK    4  A    between atoms: C_12  and  C_13
REMARK    5  A    between atoms: C_12  and  C_17
REMARK    6  A    between atoms: N_15  and  O_16
REMARK                            x       y       z     vdW  Elec       q    Type
REMARK                         _______ _______ _______ _____ _____    ______ ____
ROOT
ATOM      1  O   UNL     1       8.152   6.788  18.781  0.00  0.00    +0.000 OA
ATOM      2  C   UNL     1       7.746   7.565  17.929  0.00  0.00    +0.000 C 
ATOM      3  N   UNL     1       8.093   8.884  17.849  0.00  0.00    +0.000 N 
ATOM      4  N   UNL     1       6.867   7.209  16.941  0.00  0.00    +0.000 N 
ATOM      5  H   UNL     1       7.420   9.488  17.402  0.00  0.00    +0.000 HD
ATOM      6  H   UNL     1       7.013   7.679  16.058  0.00  0.00    +0.000 HD
ENDROOT
BRANCH   3   7
ATOM      7  C   UNL     1       8.911   9.483  18.881  0.00  0.00    +0.000 C 
BRANCH   7   8
ATOM      8  C   UNL     1       9.433  10.827  18.447  0.00  0.00    +0.000 A 
ATOM      9  C   UNL     1      10.780  11.174  18.621  0.00  0.00    +0.000 A 
ATOM     10  C   UNL     1      11.244  12.430  18.223  0.00  0.00    +0.000 A 
ATOM     11  C   UNL     1      10.367  13.350  17.650  0.00  0.00    +0.000 A 
ATOM     12  C   UNL     1       9.025  13.018  17.477  0.00  0.00    +0.000 A 
ATOM     13  C   UNL     1       8.560  11.765  17.877  0.00  0.00    +0.000 A 
ENDBRANCH   7   8
ENDBRANCH   3   7
BRANCH   4  14
ATOM     14  C   UNL     1       6.429   5.821  16.854  0.00  0.00    +0.000 C 
BRANCH  14  15
ATOM     15  C   UNL     1       5.067   5.654  17.508  0.00  0.00    +0.000 A 
ATOM     16  C   UNL     1       4.750   4.454  18.166  0.00  0.00    +0.000 A 
ATOM     17  C   UNL     1       3.493   4.271  18.745  0.00  0.00    +0.000 A 
ATOM     18  C   UNL     1       2.544   5.287  18.684  0.00  0.00    +0.000 A 
ATOM     19  C   UNL     1       2.846   6.489  18.044  0.00  0.00    +0.000 A 
ATOM     20  C   UNL     1       4.100   6.671  17.458  0.00  0.00    +0.000 A 
ENDBRANCH  14  15
BRANCH  14  21
ATOM     21  C   UNL     1       6.388   5.350  15.382  0.00  0.00    +0.000 C 
ATOM     22  O   UNL     1       5.418   4.786  14.867  0.00  0.00    +0.000 OA
ATOM     23  N   UNL     1       7.571   5.534  14.694  0.00  0.00    +0.000 N 
ATOM     24  H   UNL     1       8.184   6.316  14.910  0.00  0.00    +0.000 HD
BRANCH  23  25
ATOM     25  O   UNL     1       7.553   5.130  13.336  0.00  0.00    +0.000 OA
ATOM     26  H   UNL     1       8.030   4.273  13.361  0.00  0.00    +0.000 HD
ENDBRANCH  23  25
ENDBRANCH  14  21
ENDBRANCH   4  14
TORSDOF 6
ENDMDL
MODEL 7
REMARK VINA RESULT:      -8.0      3.509      7.811
REMARK  Name = 
REMARK  6 active torsions:
REMARK  status: ('A' for Active; 'I' for Inactive)
REMARK    1  A    between atoms: N_3  and  C_4
REMARK    2  A    between atoms: C_4  and  C_5
REMARK    3  A    between atoms: N_11  and  C_12
REMARK    4  A    between atoms: C_12  and  C_13
REMARK    5  A    between atoms: C_12  and  C_17
REMARK    6  A    between atoms: N_15  and  O_16
REMARK                            x       y       z     vdW  Elec       q    Type
REMARK                         _______ _______ _______ _____ _____    ______ ____
ROOT
ATOM      1  O   UNL     1       8.127   6.883  18.725  0.00  0.00    +0.000 OA
ATOM      2  C   UNL     1       7.702   7.647  17.870  0.00  0.00    +0.000 C 
ATOM      3  N   UNL     1       8.046   8.966  17.764  0.00  0.00    +0.000 N 
ATOM      4  N   UNL     1       6.803   7.277  16.907  0.00  0.00    +0.000 N 
ATOM      5  H   UNL     1       7.362   9.563  17.323  0.00  0.00    +0.000 HD
ATOM      6  H   UNL     1       6.929   7.734  16.014  0.00  0.00    +0.000 HD
ENDROOT
BRANCH   3   7
ATOM      7  C   UNL     1       8.885   9.579  18.770  0.00  0.00    +0.000 C 
BRANCH   7   8
ATOM      8  C   UNL     1       9.457  10.882  18.278  0.00  0.00    +0.000 A 
ATOM      9  C   UNL     1      10.837  11.047  18.096  0.00  0.00    +0.000 A 
ATOM     10  C   UNL     1      11.351  12.267  17.649  0.00  0.00    +0.000 A 
ATOM     11  C   UNL     1      10.492  13.332  17.383  0.00  0.00    +0.000 A 
ATOM     12  C   UNL     1       9.118  13.182  17.566  0.00  0.00    +0.000 A 
ATOM     13  C   UNL     1       8.605  11.964  18.015  0.00  0.00    +0.000 A 
ENDBRANCH   7   8
ENDBRANCH   3   7
BRANCH   4  14
ATOM     14  C   UNL     1       6.364   5.888  16.848  0.00  0.00    +0.000 C 
BRANCH  14  15
ATOM     15  C   UNL     1       4.985   5.741  17.470  0.00  0.00    +0.000 A 
ATOM     16  C   UNL     1       4.087   6.821  17.443  0.00  0.00    +0.000 A 
ATOM     17  C   UNL     1       2.828   6.714  18.036  0.00  0.00    +0.000 A 
ATOM     18  C   UNL     1       2.447   5.525  18.652  0.00  0.00    +0.000 A 
ATOM     19  C   UNL     1       3.322   4.440  18.679  0.00  0.00    +0.000 A 
ATOM     20  C   UNL     1       4.585   4.547  18.092  0.00  0.00    +0.000 A 
ENDBRANCH  14  15
BRANCH  14  21
ATOM     21  C   UNL     1       6.362   5.374  15.390  0.00  0.00    +0.000 C 
ATOM     22  O   UNL     1       5.412   4.780  14.872  0.00  0.00    +0.000 OA
ATOM     23  N   UNL     1       7.556   5.557  14.721  0.00  0.00    +0.000 N 
ATOM     24  H   UNL     1       8.152   6.355  14.927  0.00  0.00    +0.000 HD
BRANCH  23  25
ATOM     25  O   UNL     1       7.572   5.115  13.376  0.00  0.00    +0.000 OA
ATOM     26  H   UNL     1       6.937   4.366  13.389  0.00  0.00    +0.000 HD
ENDBRANCH  23  25
ENDBRANCH  14  21
ENDBRANCH   4  14
TORSDOF 6
ENDMDL
MODEL 8
REMARK VINA RESULT:      -8.0      3.116      6.837
REMARK  Name = 
REMARK  6 active torsions:
REMARK  status: ('A' for Active; 'I' for Inactive)
REMARK    1  A    between atoms: N_3  and  C_4
REMARK    2  A    between atoms: C_4  and  C_5
REMARK    3  A    between atoms: N_11  and  C_12
REMARK    4  A    between atoms: C_12  and  C_13
REMARK    5  A    between atoms: C_12  and  C_17
REMARK    6  A    between atoms: N_15  and  O_16
REMARK                            x       y       z     vdW  Elec       q    Type
REMARK                         _______ _______ _______ _____ _____    ______ ____
ROOT
ATOM      1  O   UNL     1       5.750   6.233  15.138  0.00  0.00    +0.000 OA
ATOM      2  C   UNL     1       6.452   5.280  15.447  0.00  0.00    +0.000 C 
ATOM      3  N   UNL     1       7.247   4.585  14.580  0.00  0.00    +0.000 N 
ATOM      4  N   UNL     1       6.518   4.773  16.717  0.00  0.00    +0.000 N 
ATOM      5  H   UNL     1       7.437   3.627  14.832  0.00  0.00    +0.000 HD
ATOM      6  H   UNL     1       7.426   4.417  16.982  0.00  0.00    +0.000 HD
ENDROOT
BRANCH   3   7
ATOM      7  C   UNL     1       7.215   4.886  13.166  0.00  0.00    +0.000 C 
BRANCH   7   8
ATOM      8  C   UNL     1       6.699   3.714  12.374  0.00  0.00    +0.000 A 
ATOM      9  C   UNL     1       5.324   3.475  12.239  0.00  0.00    +0.000 A 
ATOM     10  C   UNL     1       4.864   2.377  11.510  0.00  0.00    +0.000 A 
ATOM     11  C   UNL     1       5.773   1.505  10.910  0.00  0.00    +0.000 A 
ATOM     12  C   UNL     1       7.142   1.729  11.042  0.00  0.00    +0.000 A 
ATOM     13  C   UNL     1       7.602   2.826  11.772  0.00  0.00    +0.000 A 
ENDBRANCH   7   8
ENDBRANCH   3   7
BRANCH   4  14
ATOM     14  C   UNL     1       5.762   5.428  17.778  0.00  0.00    +0.000 C 
BRANCH  14  15
ATOM     15  C   UNL     1       4.307   4.992  17.739  0.00  0.00    +0.000 A 
ATOM     16  C   UNL     1       3.979   3.689  17.332  0.00  0.00    +0.000 A 
ATOM     17  C   UNL     1       2.645   3.280  17.261  0.00  0.00    +0.000 A 
ATOM     18  C   UNL     1       1.628   4.165  17.607  0.00  0.00    +0.000 A 
ATOM     19  C   UNL     1       1.936   5.459  18.023  0.00  0.00    +0.000 A 
ATOM     20  C   UNL     1       3.269   5.871  18.088  0.00  0.00    +0.000 A 
ENDBRANCH  14  15
BRANCH  14  21
ATOM     21  C   UNL     1       6.385   5.127  19.161  0.00  0.00    +0.000 C 
ATOM     22  O   UNL     1       5.810   4.493  20.051  0.00  0.00    +0.000 OA
ATOM     23  N   UNL     1       7.624   5.702  19.364  0.00  0.00    +0.000 N 
ATOM     24  H   UNL     1       8.268   5.840  18.589  0.00  0.00    +0.000 HD
BRANCH  23  25
ATOM     25  O   UNL     1       8.225   5.422  20.615  0.00  0.00    +0.000 OA
ATOM     26  H   UNL     1       7.449   5.239  21.189  0.00  0.00    +0.000 HD
ENDBRANCH  23  25
ENDBRANCH  14  21
ENDBRANCH   4  14
TORSDOF 6
ENDMDL
MODEL 9
REMARK VINA RESULT:      -8.0      3.036      6.881
REMARK  Name = 
REMARK  6 active torsions:
REMARK  status: ('A' for Active; 'I' for Inactive)
REMARK    1  A    between atoms: N_3  and  C_4
REMARK    2  A    between atoms: C_4  and  C_5
REMARK    3  A    between atoms: N_11  and  C_12
REMARK    4  A    between atoms: C_12  and  C_13
REMARK    5  A    between atoms: C_12  and  C_17
REMARK    6  A    between atoms: N_15  and  O_16
REMARK                            x       y       z     vdW  Elec       q    Type
REMARK                         _______ _______ _______ _____ _____    ______ ____
ROOT
ATOM      1  O   UNL     1       5.626   6.149  15.095  0.00  0.00    +0.000 OA
ATOM      2  C   UNL     1       6.424   5.284  15.431  0.00  0.00    +0.000 C 
ATOM      3  N   UNL     1       7.309   4.672  14.588  0.00  0.00    +0.000 N 
ATOM      4  N   UNL     1       6.522   4.804  16.708  0.00  0.00    +0.000 N 
ATOM      5  H   UNL     1       7.600   3.745  14.857  0.00  0.00    +0.000 HD
ATOM      6  H   UNL     1       7.459   4.555  16.994  0.00  0.00    +0.000 HD
ENDROOT
BRANCH   3   7
ATOM      7  C   UNL     1       7.270   4.951  13.169  0.00  0.00    +0.000 C 
BRANCH   7   8
ATOM      8  C   UNL     1       6.711   3.782  12.402  0.00  0.00    +0.000 A 
ATOM      9  C   UNL     1       5.328   3.579  12.293  0.00  0.00    +0.000 A 
ATOM     10  C   UNL     1       4.828   2.483  11.587  0.00  0.00    +0.000 A 
ATOM     11  C   UNL     1       5.703   1.579  10.986  0.00  0.00    +0.000 A 
ATOM     12  C   UNL     1       7.080   1.767  11.092  0.00  0.00    +0.000 A 
ATOM     13  C   UNL     1       7.581   2.861  11.800  0.00  0.00    +0.000 A 
ENDBRANCH   7   8
ENDBRANCH   3   7
BRANCH   4  14
ATOM     14  C   UNL     1       5.677   5.382  17.746  0.00  0.00    +0.000 C 
BRANCH  14  15
ATOM     15  C   UNL     1       4.285   4.775  17.696  0.00  0.00    +0.000 A 
ATOM     16  C   UNL     1       3.159   5.590  17.901  0.00  0.00    +0.000 A 
ATOM     17  C   UNL     1       1.874   5.044  17.889  0.00  0.00    +0.000 A 
ATOM     18  C   UNL     1       1.699   3.682  17.661  0.00  0.00    +0.000 A 
ATOM     19  C   UNL     1       2.805   2.860  17.446  0.00  0.00    +0.000 A 
ATOM     20  C   UNL     1       4.091   3.404  17.464  0.00  0.00    +0.000 A 
ENDBRANCH  14  15
BRANCH  14  21
ATOM     21  C   UNL     1       6.309   5.181  19.143  0.00  0.00    +0.000 C 
ATOM     22  O   UNL     1       5.686   4.774  20.128  0.00  0.00    +0.000 OA
ATOM     23  N   UNL     1       7.628   5.580  19.232  0.00  0.00    +0.000 N 
ATOM     24  H   UNL     1       8.250   5.508  18.431  0.00  0.00    +0.000 HD
BRANCH  23  25
ATOM     25  O   UNL     1       8.237   5.385  20.496  0.00  0.00    +0.000 OA
ATOM     26  H   UNL     1       8.706   4.531  20.378  0.00  0.00    +0.000 HD
ENDBRANCH  23  25
ENDBRANCH  14  21
ENDBRANCH   4  14
TORSDOF 6
ENDMDL
