MODEL 1
REMARK VINA RESULT:      -7.0      0.000      0.000
REMARK  Name = 
REMARK  6 active torsions:
REMARK  status: ('A' for Active; 'I' for Inactive)
REMARK    1  A    between atoms: C_10  and  N_11
REMARK    2  A    between atoms: N_14  and  C_15
REMARK    3  A    between atoms: C_15  and  C_16
REMARK    4  A    between atoms: C_15  and  C_22
REMARK    5  A    between atoms: C_31  and  C_32
REMARK    6  A    between atoms: C_32  and  O_33
REMARK                            x       y       z     vdW  Elec       q    Type
REMARK                         _______ _______ _______ _____ _____    ______ ____
ROOT
ATOM      1  N   UNL     1      -2.935  12.177  19.407  0.00  0.00    +0.000 N 
ATOM      2  C   UNL     1      -2.458  10.782  19.211  0.00  0.00    +0.000 C 
ATOM      3  C   UNL     1      -1.470  10.677  18.024  0.00  0.00    +0.000 C 
ATOM      4  N   UNL     1      -0.325  11.631  18.064  0.00  0.00    +0.000 NA
ATOM      5  C   UNL     1      -0.919  12.990  18.153  0.00  0.00    +0.000 C 
ATOM      6  C   UNL     1      -1.862  13.210  19.360  0.00  0.00    +0.000 C 
ENDROOT
BRANCH   1  16
ATOM      7  O   UNL     1      -7.674  12.884  19.432  0.00  0.00    +0.000 OA
ATOM      8  C   UNL     1      -6.619  12.775  20.054  0.00  0.00    +0.000 A 
ATOM      9  O   UNL     1      -6.622  12.812  21.433  0.00  0.00    +0.000 OA
ATOM     10  C   UNL     1      -5.427  12.765  22.159  0.00  0.00    +0.000 A 
ATOM     11  C   UNL     1      -5.564  12.891  23.545  0.00  0.00    +0.000 A 
ATOM     12  C   UNL     1      -4.430  12.888  24.347  0.00  0.00    +0.000 A 
ATOM     13  C   UNL     1      -3.178  12.795  23.751  0.00  0.00    +0.000 A 
ATOM     14  C   UNL     1      -3.061  12.690  22.356  0.00  0.00    +0.000 A 
ATOM     15  C   UNL     1      -4.193  12.627  21.529  0.00  0.00    +0.000 A 
ATOM     16  C   UNL     1      -4.158  12.456  20.051  0.00  0.00    +0.000 A 
ATOM     17  C   UNL     1      -5.319  12.570  19.366  0.00  0.00    +0.000 A 
BRANCH  17  18
ATOM     18  C   UNL     1      -5.487  12.464  17.865  0.00  0.00    +0.000 C 
BRANCH  18  19
ATOM     19  O   UNL     1      -6.169  11.289  17.433  0.00  0.00    +0.000 OA
ATOM     20  H   UNL     1      -6.973  11.600  16.977  0.00  0.00    +0.000 HD
ENDBRANCH  18  19
ENDBRANCH  17  18
ENDBRANCH   1  16
BRANCH   4  21
ATOM     21  C   UNL     1       0.609  11.340  19.191  0.00  0.00    +0.000 C 
BRANCH  21  22
ATOM     22  C   UNL     1       1.702  12.406  19.389  0.00  0.00    +0.000 A 
ATOM     23  C   UNL     1       2.454  12.851  18.284  0.00  0.00    +0.000 A 
ATOM     24  C   UNL     1       3.406  13.867  18.423  0.00  0.00    +0.000 A 
ATOM     25  C   UNL     1       3.610  14.458  19.666  0.00  0.00    +0.000 A 
ATOM     26 CL   UNL     1       4.728  15.756  19.825  0.00  0.00    +0.000 Cl
ATOM     27  C   UNL     1       2.910  14.007  20.780  0.00  0.00    +0.000 A 
ATOM     28  C   UNL     1       1.981  12.972  20.646  0.00  0.00    +0.000 A 
ENDBRANCH  21  22
BRANCH  21  29
ATOM     29  C   UNL     1       1.206   9.926  19.094  0.00  0.00    +0.000 A 
ATOM     30  C   UNL     1       1.202   9.039  20.185  0.00  0.00    +0.000 A 
ATOM     31  C   UNL     1       1.804   7.783  20.096  0.00  0.00    +0.000 A 
ATOM     32  C   UNL     1       2.448   7.401  18.924  0.00  0.00    +0.000 A 
ATOM     33  C   UNL     1       2.474   8.269  17.834  0.00  0.00    +0.000 A 
ATOM     34  C   UNL     1       1.848   9.515  17.912  0.00  0.00    +0.000 A 
ENDBRANCH  21  29
ENDBRANCH   4  21
TORSDOF 6
ENDMDL
MODEL 2
REMARK VINA RESULT:      -6.7      4.156      6.285
REMARK  Name = 
REMARK  6 active torsions:
REMARK  status: ('A' for Active; 'I' for Inactive)
REMARK    1  A    between atoms: C_10  and  N_11
REMARK    2  A    between atoms: N_14  and  C_15
REMARK    3  A    between atoms: C_15  and  C_16
REMARK    4  A    between atoms: C_15  and  C_22
REMARK    5  A    between atoms: C_31  and  C_32
REMARK    6  A    between atoms: C_32  and  O_33
REMARK                            x       y       z     vdW  Elec       q    Type
REMARK                         _______ _______ _______ _____ _____    ______ ____
ROOT
ATOM      1  N   UNL     1       0.904  14.503  20.447  0.00  0.00    +0.000 N 
ATOM      2  C   UNL     1      -0.325  14.308  19.633  0.00  0.00    +0.000 C 
ATOM      3  C   UNL     1      -0.015  13.599  18.291  0.00  0.00    +0.000 C 
ATOM      4  N   UNL     1       0.756  12.328  18.407  0.00  0.00    +0.000 NA
ATOM      5  C   UNL     1       2.003  12.663  19.141  0.00  0.00    +0.000 C 
ATOM      6  C   UNL     1       1.787  13.306  20.533  0.00  0.00    +0.000 C 
ENDROOT
BRANCH   1  16
ATOM      7  O   UNL     1       2.622  18.631  22.170  0.00  0.00    +0.000 OA
ATOM      8  C   UNL     1       1.854  17.678  22.283  0.00  0.00    +0.000 A 
ATOM      9  O   UNL     1       0.960  17.630  23.332  0.00  0.00    +0.000 OA
ATOM     10  C   UNL     1       0.129  16.521  23.522  0.00  0.00    +0.000 A 
ATOM     11  C   UNL     1      -0.673  16.565  24.667  0.00  0.00    +0.000 A 
ATOM     12  C   UNL     1      -1.509  15.493  24.958  0.00  0.00    +0.000 A 
ATOM     13  C   UNL     1      -1.503  14.383  24.121  0.00  0.00    +0.000 A 
ATOM     14  C   UNL     1      -0.676  14.351  22.989  0.00  0.00    +0.000 A 
ATOM     15  C   UNL     1       0.130  15.445  22.639  0.00  0.00    +0.000 A 
ATOM     16  C   UNL     1       0.989  15.516  21.425  0.00  0.00    +0.000 A 
ATOM     17  C   UNL     1       1.830  16.567  21.297  0.00  0.00    +0.000 A 
BRANCH  17  18
ATOM     18  C   UNL     1       2.803  16.802  20.161  0.00  0.00    +0.000 C 
BRANCH  18  19
ATOM     19  O   UNL     1       2.423  17.848  19.270  0.00  0.00    +0.000 OA
ATOM     20  H   UNL     1       2.554  18.679  19.764  0.00  0.00    +0.000 HD
ENDBRANCH  18  19
ENDBRANCH  17  18
ENDBRANCH   1  16
BRANCH   4  21
ATOM     21  C   UNL     1      -0.032  11.254  19.079  0.00  0.00    +0.000 C 
BRANCH  21  22
ATOM     22  C   UNL     1       0.716   9.913  19.201  0.00  0.00    +0.000 A 
ATOM     23  C   UNL     1       1.373   9.374  18.077  0.00  0.00    +0.000 A 
ATOM     24  C   UNL     1       2.115   8.192  18.176  0.00  0.00    +0.000 A 
ATOM     25  C   UNL     1       2.220   7.541  19.402  0.00  0.00    +0.000 A 
ATOM     26 CL   UNL     1       3.192   6.129  19.542  0.00  0.00    +0.000 Cl
ATOM     27  C   UNL     1       1.546   8.031  20.516  0.00  0.00    +0.000 A 
ATOM     28  C   UNL     1       0.779   9.195  20.408  0.00  0.00    +0.000 A 
ENDBRANCH  21  22
BRANCH  21  29
ATOM     29  C   UNL     1      -1.421  11.074  18.443  0.00  0.00    +0.000 A 
ATOM     30  C   UNL     1      -2.564  11.710  18.958  0.00  0.00    +0.000 A 
ATOM     31  C   UNL     1      -3.825  11.486  18.405  0.00  0.00    +0.000 A 
ATOM     32  C   UNL     1      -3.973  10.597  17.346  0.00  0.00    +0.000 A 
ATOM     33  C   UNL     1      -2.855   9.946  16.827  0.00  0.00    +0.000 A 
ATOM     34  C   UNL     1      -1.588  10.191  17.361  0.00  0.00    +0.000 A 
ENDBRANCH  21  29
ENDBRANCH   4  21
TORSDOF 6
ENDMDL
MODEL 3
REMARK VINA RESULT:      -6.7      1.102      3.086
REMARK  Name = 
REMARK  6 active torsions:
REMARK  status: ('A' for Active; 'I' for Inactive)
REMARK    1  A    between atoms: C_10  and  N_11
REMARK    2  A    between atoms: N_14  and  C_15
REMARK    3  A    between atoms: C_15  and  C_16
REMARK    4  A    between atoms: C_15  and  C_22
REMARK    5  A    between atoms: C_31  and  C_32
REMARK    6  A    between atoms: C_32  and  O_33
REMARK                            x       y       z     vdW  Elec       q    Type
REMARK                         _______ _______ _______ _____ _____    ______ ____
ROOT
ATOM      1  N   UNL     1      -2.835  12.335  19.633  0.00  0.00    +0.000 N 
ATOM      2  C   UNL     1      -2.382  10.928  19.477  0.00  0.00    +0.000 C 
ATOM      3  C   UNL     1      -1.467  10.755  18.239  0.00  0.00    +0.000 C 
ATOM      4  N   UNL     1      -0.315  11.698  18.165  0.00  0.00    +0.000 NA
ATOM      5  C   UNL     1      -0.891  13.066  18.225  0.00  0.00    +0.000 C 
ATOM      6  C   UNL     1      -1.758  13.353  19.474  0.00  0.00    +0.000 C 
ENDROOT
BRANCH   1  16
ATOM      7  O   UNL     1      -5.257  13.436  23.618  0.00  0.00    +0.000 OA
ATOM      8  C   UNL     1      -5.247  13.271  22.400  0.00  0.00    +0.000 A 
ATOM      9  O   UNL     1      -6.385  13.512  21.660  0.00  0.00    +0.000 OA
ATOM     10  C   UNL     1      -6.419  13.262  20.284  0.00  0.00    +0.000 A 
ATOM     11  C   UNL     1      -7.657  13.473  19.668  0.00  0.00    +0.000 A 
ATOM     12  C   UNL     1      -7.796  13.220  18.309  0.00  0.00    +0.000 A 
ATOM     13  C   UNL     1      -6.709  12.726  17.596  0.00  0.00    +0.000 A 
ATOM     14  C   UNL     1      -5.481  12.502  18.239  0.00  0.00    +0.000 A 
ATOM     15  C   UNL     1      -5.297  12.809  19.595  0.00  0.00    +0.000 A 
ATOM     16  C   UNL     1      -4.015  12.658  20.335  0.00  0.00    +0.000 A 
ATOM     17  C   UNL     1      -4.024  12.844  21.675  0.00  0.00    +0.000 A 
BRANCH  17  18
ATOM     18  C   UNL     1      -2.838  12.704  22.606  0.00  0.00    +0.000 C 
BRANCH  18  19
ATOM     19  O   UNL     1      -2.955  11.641  23.548  0.00  0.00    +0.000 OA
ATOM     20  H   UNL     1      -2.047  11.319  23.699  0.00  0.00    +0.000 HD
ENDBRANCH  18  19
ENDBRANCH  17  18
ENDBRANCH   1  16
BRANCH   4  21
ATOM     21  C   UNL     1       0.683  11.451  19.247  0.00  0.00    +0.000 C 
BRANCH  21  22
ATOM     22  C   UNL     1       1.755  12.549  19.373  0.00  0.00    +0.000 A 
ATOM     23  C   UNL     1       2.035  13.112  20.633  0.00  0.00    +0.000 A 
ATOM     24  C   UNL     1       3.050  14.063  20.787  0.00  0.00    +0.000 A 
ATOM     25  C   UNL     1       3.805  14.453  19.685  0.00  0.00    +0.000 A 
ATOM     26 CL   UNL     1       5.100  15.567  19.886  0.00  0.00    +0.000 Cl
ATOM     27  C   UNL     1       3.520  13.943  18.424  0.00  0.00    +0.000 A 
ATOM     28  C   UNL     1       2.485  13.016  18.266  0.00  0.00    +0.000 A 
ENDBRANCH  21  22
BRANCH  21  29
ATOM     29  C   UNL     1       1.313  10.051  19.140  0.00  0.00    +0.000 A 
ATOM     30  C   UNL     1       1.888   9.582  17.946  0.00  0.00    +0.000 A 
ATOM     31  C   UNL     1       2.399   8.287  17.852  0.00  0.00    +0.000 A 
ATOM     32  C   UNL     1       2.316   7.425  18.940  0.00  0.00    +0.000 A 
ATOM     33  C   UNL     1       1.740   7.865  20.130  0.00  0.00    +0.000 A 
ATOM     34  C   UNL     1       1.254   9.170  20.235  0.00  0.00    +0.000 A 
ENDBRANCH  21  29
ENDBRANCH   4  21
TORSDOF 6
ENDMDL
MODEL 4
REMARK VINA RESULT:      -6.7      0.234      1.209
REMARK  Name = 
REMARK  6 active torsions:
REMARK  status: ('A' for Active; 'I' for Inactive)
REMARK    1  A    between atoms: C_10  and  N_11
REMARK    2  A    between atoms: N_14  and  C_15
REMARK    3  A    between atoms: C_15  and  C_16
REMARK    4  A    between atoms: C_15  and  C_22
REMARK    5  A    between atoms: C_31  and  C_32
REMARK    6  A    between atoms: C_32  and  O_33
REMARK                            x       y       z     vdW  Elec       q    Type
REMARK                         _______ _______ _______ _____ _____    ______ ____
ROOT
ATOM      1  N   UNL     1      -2.974  12.079  19.291  0.00  0.00    +0.000 N 
ATOM      2  C   UNL     1      -2.496  10.674  19.200  0.00  0.00    +0.000 C 
ATOM      3  C   UNL     1      -1.494  10.485  18.035  0.00  0.00    +0.000 C 
ATOM      4  N   UNL     1      -0.349  11.440  18.020  0.00  0.00    +0.000 NA
ATOM      5  C   UNL     1      -0.943  12.802  18.006  0.00  0.00    +0.000 C 
ATOM      6  C   UNL     1      -1.900  13.106  19.184  0.00  0.00    +0.000 C 
ENDROOT
BRANCH   1  16
ATOM      7  O   UNL     1      -7.691  12.913  19.188  0.00  0.00    +0.000 OA
ATOM      8  C   UNL     1      -6.655  12.787  19.837  0.00  0.00    +0.000 A 
ATOM      9  O   UNL     1      -6.690  12.850  21.214  0.00  0.00    +0.000 OA
ATOM     10  C   UNL     1      -5.514  12.784  21.971  0.00  0.00    +0.000 A 
ATOM     11  C   UNL     1      -5.682  12.940  23.350  0.00  0.00    +0.000 A 
ATOM     12  C   UNL     1      -4.568  12.921  24.180  0.00  0.00    +0.000 A 
ATOM     13  C   UNL     1      -3.304  12.784  23.616  0.00  0.00    +0.000 A 
ATOM     14  C   UNL     1      -3.157  12.650  22.227  0.00  0.00    +0.000 A 
ATOM     15  C   UNL     1      -4.270  12.602  21.374  0.00  0.00    +0.000 A 
ATOM     16  C   UNL     1      -4.204  12.403  19.900  0.00  0.00    +0.000 A 
ATOM     17  C   UNL     1      -5.345  12.535  19.185  0.00  0.00    +0.000 A 
BRANCH  17  18
ATOM     18  C   UNL     1      -5.480  12.405  17.683  0.00  0.00    +0.000 C 
BRANCH  18  19
ATOM     19  O   UNL     1      -5.478  11.062  17.208  0.00  0.00    +0.000 OA
ATOM     20  H   UNL     1      -4.566  10.887  16.910  0.00  0.00    +0.000 HD
ENDBRANCH  18  19
ENDBRANCH  17  18
ENDBRANCH   1  16
BRANCH   4  21
ATOM     21  C   UNL     1       0.572  11.230  19.176  0.00  0.00    +0.000 C 
BRANCH  21  22
ATOM     22  C   UNL     1       1.587  12.368  19.381  0.00  0.00    +0.000 A 
ATOM     23  C   UNL     1       1.735  12.953  20.654  0.00  0.00    +0.000 A 
ATOM     24  C   UNL     1       2.696  13.943  20.884  0.00  0.00    +0.000 A 
ATOM     25  C   UNL     1       3.531  14.351  19.849  0.00  0.00    +0.000 A 
ATOM     26 CL   UNL     1       4.763  15.514  20.147  0.00  0.00    +0.000 Cl
ATOM     27  C   UNL     1       3.378  13.818  18.573  0.00  0.00    +0.000 A 
ATOM     28  C   UNL     1       2.396  12.852  18.337  0.00  0.00    +0.000 A 
ENDBRANCH  21  22
BRANCH  21  29
ATOM     29  C   UNL     1       1.262   9.856  19.120  0.00  0.00    +0.000 A 
ATOM     30  C   UNL     1       1.870   9.375  17.947  0.00  0.00    +0.000 A 
ATOM     31  C   UNL     1       2.436   8.100  17.899  0.00  0.00    +0.000 A 
ATOM     32  C   UNL     1       2.377   7.270  19.012  0.00  0.00    +0.000 A 
ATOM     33  C   UNL     1       1.769   7.721  20.182  0.00  0.00    +0.000 A 
ATOM     34  C   UNL     1       1.227   9.007  20.241  0.00  0.00    +0.000 A 
ENDBRANCH  21  29
ENDBRANCH   4  21
TORSDOF 6
ENDMDL
MODEL 5
REMARK VINA RESULT:      -6.5      4.087      6.260
REMARK  Name = 
REMARK  6 active torsions:
REMARK  status: ('A' for Active; 'I' for Inactive)
REMARK    1  A    between atoms: C_10  and  N_11
REMARK    2  A    between atoms: N_14  and  C_15
REMARK    3  A    between atoms: C_15  and  C_16
REMARK    4  A    between atoms: C_15  and  C_22
REMARK    5  A    between atoms: C_31  and  C_32
REMARK    6  A    between atoms: C_32  and  O_33
REMARK                            x       y       z     vdW  Elec       q    Type
REMARK                         _______ _______ _______ _____ _____    ______ ____
ROOT
ATOM      1  N   UNL     1       0.792  14.477  20.455  0.00  0.00    +0.000 N 
ATOM      2  C   UNL     1      -0.441  14.240  19.658  0.00  0.00    +0.000 C 
ATOM      3  C   UNL     1      -0.125  13.560  18.303  0.00  0.00    +0.000 C 
ATOM      4  N   UNL     1       0.700  12.322  18.391  0.00  0.00    +0.000 NA
ATOM      5  C   UNL     1       1.945  12.699  19.109  0.00  0.00    +0.000 C 
ATOM      6  C   UNL     1       1.725  13.317  20.512  0.00  0.00    +0.000 C 
ENDROOT
BRANCH   1  16
ATOM      7  O   UNL     1       2.400  18.631  22.220  0.00  0.00    +0.000 OA
ATOM      8  C   UNL     1       1.659  17.656  22.323  0.00  0.00    +0.000 A 
ATOM      9  O   UNL     1       0.768  17.573  23.373  0.00  0.00    +0.000 OA
ATOM     10  C   UNL     1      -0.033  16.440  23.553  0.00  0.00    +0.000 A 
ATOM     11  C   UNL     1      -0.834  16.450  24.699  0.00  0.00    +0.000 A 
ATOM     12  C   UNL     1      -1.640  15.353  24.979  0.00  0.00    +0.000 A 
ATOM     13  C   UNL     1      -1.605  14.252  24.131  0.00  0.00    +0.000 A 
ATOM     14  C   UNL     1      -0.779  14.255  22.997  0.00  0.00    +0.000 A 
ATOM     15  C   UNL     1      -0.004  15.374  22.658  0.00  0.00    +0.000 A 
ATOM     16  C   UNL     1       0.851  15.481  21.444  0.00  0.00    +0.000 A 
ATOM     17  C   UNL     1       1.663  16.556  21.326  0.00  0.00    +0.000 A 
BRANCH  17  18
ATOM     18  C   UNL     1       2.627  16.830  20.191  0.00  0.00    +0.000 C 
BRANCH  18  19
ATOM     19  O   UNL     1       2.004  16.997  18.920  0.00  0.00    +0.000 OA
ATOM     20  H   UNL     1       1.925  16.101  18.543  0.00  0.00    +0.000 HD
ENDBRANCH  18  19
ENDBRANCH  17  18
ENDBRANCH   1  16
BRANCH   4  21
ATOM     21  C   UNL     1      -0.031  11.207  19.063  0.00  0.00    +0.000 C 
BRANCH  21  22
ATOM     22  C   UNL     1       0.798   9.920  19.221  0.00  0.00    +0.000 A 
ATOM     23  C   UNL     1       0.818   9.248  20.459  0.00  0.00    +0.000 A 
ATOM     24  C   UNL     1       1.509   8.041  20.611  0.00  0.00    +0.000 A 
ATOM     25  C   UNL     1       2.179   7.485  19.526  0.00  0.00    +0.000 A 
ATOM     26 CL   UNL     1       2.968   5.965  19.692  0.00  0.00    +0.000 Cl
ATOM     27  C   UNL     1       2.209   8.150  18.305  0.00  0.00    +0.000 A 
ATOM     28  C   UNL     1       1.543   9.372  18.162  0.00  0.00    +0.000 A 
ENDBRANCH  21  22
BRANCH  21  29
ATOM     29  C   UNL     1      -1.391  10.929  18.400  0.00  0.00    +0.000 A 
ATOM     30  C   UNL     1      -1.509  10.131  17.248  0.00  0.00    +0.000 A 
ATOM     31  C   UNL     1      -2.744   9.941  16.626  0.00  0.00    +0.000 A 
ATOM     32  C   UNL     1      -3.879  10.570  17.124  0.00  0.00    +0.000 A 
ATOM     33  C   UNL     1      -3.783  11.375  18.258  0.00  0.00    +0.000 A 
ATOM     34  C   UNL     1      -2.554  11.544  18.899  0.00  0.00    +0.000 A 
ENDBRANCH  21  29
ENDBRANCH   4  21
TORSDOF 6
ENDMDL
MODEL 6
REMARK VINA RESULT:      -6.5      1.291      2.886
REMARK  Name = 
REMARK  6 active torsions:
REMARK  status: ('A' for Active; 'I' for Inactive)
REMARK    1  A    between atoms: C_10  and  N_11
REMARK    2  A    between atoms: N_14  and  C_15
REMARK    3  A    between atoms: C_15  and  C_16
REMARK    4  A    between atoms: C_15  and  C_22
REMARK    5  A    between atoms: C_31  and  C_32
REMARK    6  A    between atoms: C_32  and  O_33
REMARK                            x       y       z     vdW  Elec       q    Type
REMARK                         _______ _______ _______ _____ _____    ______ ____
ROOT
ATOM      1  N   UNL     1      -2.753  12.507  20.043  0.00  0.00    +0.000 N 
ATOM      2  C   UNL     1      -2.290  11.146  19.662  0.00  0.00    +0.000 C 
ATOM      3  C   UNL     1      -1.432  11.175  18.373  0.00  0.00    +0.000 C 
ATOM      4  N   UNL     1      -0.297  12.141  18.386  0.00  0.00    +0.000 NA
ATOM      5  C   UNL     1      -0.887  13.474  18.671  0.00  0.00    +0.000 C 
ATOM      6  C   UNL     1      -1.699  13.558  19.987  0.00  0.00    +0.000 C 
ENDROOT
BRANCH   1  16
ATOM      7  O   UNL     1      -4.998  12.989  24.248  0.00  0.00    +0.000 OA
ATOM      8  C   UNL     1      -5.044  12.993  23.020  0.00  0.00    +0.000 A 
ATOM      9  O   UNL     1      -6.222  13.305  22.373  0.00  0.00    +0.000 OA
ATOM     10  C   UNL     1      -6.318  13.244  20.979  0.00  0.00    +0.000 A 
ATOM     11  C   UNL     1      -7.589  13.506  20.456  0.00  0.00    +0.000 A 
ATOM     12  C   UNL     1      -7.789  13.438  19.083  0.00  0.00    +0.000 A 
ATOM     13  C   UNL     1      -6.730  13.075  18.260  0.00  0.00    +0.000 A 
ATOM     14  C   UNL     1      -5.468  12.796  18.808  0.00  0.00    +0.000 A 
ATOM     15  C   UNL     1      -5.223  12.919  20.184  0.00  0.00    +0.000 A 
ATOM     16  C   UNL     1      -3.903  12.700  20.836  0.00  0.00    +0.000 A 
ATOM     17  C   UNL     1      -3.850  12.701  22.188  0.00  0.00    +0.000 A 
BRANCH  17  18
ATOM     18  C   UNL     1      -2.618  12.465  23.035  0.00  0.00    +0.000 C 
BRANCH  18  19
ATOM     19  O   UNL     1      -2.119  13.632  23.682  0.00  0.00    +0.000 OA
ATOM     20  H   UNL     1      -2.310  14.374  23.078  0.00  0.00    +0.000 HD
ENDBRANCH  18  19
ENDBRANCH  17  18
ENDBRANCH   1  16
BRANCH   4  21
ATOM     21  C   UNL     1       0.754  11.758  19.375  0.00  0.00    +0.000 C 
BRANCH  21  22
ATOM     22  C   UNL     1       1.931  12.746  19.451  0.00  0.00    +0.000 A 
ATOM     23  C   UNL     1       2.578  13.157  18.269  0.00  0.00    +0.000 A 
ATOM     24  C   UNL     1       3.607  14.104  18.303  0.00  0.00    +0.000 A 
ATOM     25  C   UNL     1       3.993  14.663  19.517  0.00  0.00    +0.000 A 
ATOM     26 CL   UNL     1       5.207  15.882  19.553  0.00  0.00    +0.000 Cl
ATOM     27  C   UNL     1       3.399  14.244  20.703  0.00  0.00    +0.000 A 
ATOM     28  C   UNL     1       2.392  13.274  20.671  0.00  0.00    +0.000 A 
ENDBRANCH  21  22
BRANCH  21  29
ATOM     29  C   UNL     1       1.238  10.312  19.170  0.00  0.00    +0.000 A 
ATOM     30  C   UNL     1       1.194   9.359  20.203  0.00  0.00    +0.000 A 
ATOM     31  C   UNL     1       1.694   8.069  20.016  0.00  0.00    +0.000 A 
ATOM     32  C   UNL     1       2.278   7.718  18.803  0.00  0.00    +0.000 A 
ATOM     33  C   UNL     1       2.342   8.651  17.770  0.00  0.00    +0.000 A 
ATOM     34  C   UNL     1       1.816   9.932  17.946  0.00  0.00    +0.000 A 
ENDBRANCH  21  29
ENDBRANCH   4  21
TORSDOF 6
ENDMDL
MODEL 7
REMARK VINA RESULT:      -6.5      6.147      8.784
REMARK  Name = 
REMARK  6 active torsions:
REMARK  status: ('A' for Active; 'I' for Inactive)
REMARK    1  A    between atoms: C_10  and  N_11
REMARK    2  A    between atoms: N_14  and  C_15
REMARK    3  A    between atoms: C_15  and  C_16
REMARK    4  A    between atoms: C_15  and  C_22
REMARK    5  A    between atoms: C_31  and  C_32
REMARK    6  A    between atoms: C_32  and  O_33
REMARK                            x       y       z     vdW  Elec       q    Type
REMARK                         _______ _______ _______ _____ _____    ______ ____
ROOT
ATOM      1  N   UNL     1       4.748  15.608  18.981  0.00  0.00    +0.000 N 
ATOM      2  C   UNL     1       5.360  14.515  18.180  0.00  0.00    +0.000 C 
ATOM      3  C   UNL     1       6.705  14.952  17.550  0.00  0.00    +0.000 C 
ATOM      4  N   UNL     1       7.694  15.533  18.502  0.00  0.00    +0.000 NA
ATOM      5  C   UNL     1       7.013  16.674  19.166  0.00  0.00    +0.000 C 
ATOM      6  C   UNL     1       5.694  16.312  19.892  0.00  0.00    +0.000 C 
ENDROOT
BRANCH   1  16
ATOM      7  O   UNL     1       0.831  14.477  21.496  0.00  0.00    +0.000 OA
ATOM      8  C   UNL     1       1.348  15.096  20.570  0.00  0.00    +0.000 A 
ATOM      9  O   UNL     1       0.589  15.957  19.804  0.00  0.00    +0.000 OA
ATOM     10  C   UNL     1       1.138  16.616  18.699  0.00  0.00    +0.000 A 
ATOM     11  C   UNL     1       0.241  17.396  17.962  0.00  0.00    +0.000 A 
ATOM     12  C   UNL     1       0.688  18.064  16.828  0.00  0.00    +0.000 A 
ATOM     13  C   UNL     1       2.011  17.912  16.429  0.00  0.00    +0.000 A 
ATOM     14  C   UNL     1       2.889  17.107  17.171  0.00  0.00    +0.000 A 
ATOM     15  C   UNL     1       2.479  16.474  18.355  0.00  0.00    +0.000 A 
ATOM     16  C   UNL     1       3.361  15.654  19.230  0.00  0.00    +0.000 A 
ATOM     17  C   UNL     1       2.794  14.976  20.254  0.00  0.00    +0.000 A 
BRANCH  17  18
ATOM     18  C   UNL     1       3.509  14.067  21.231  0.00  0.00    +0.000 C 
BRANCH  18  19
ATOM     19  O   UNL     1       3.493  14.527  22.580  0.00  0.00    +0.000 OA
ATOM     20  H   UNL     1       4.366  14.298  22.949  0.00  0.00    +0.000 HD
ENDBRANCH  18  19
ENDBRANCH  17  18
ENDBRANCH   1  16
BRANCH   4  21
ATOM     21  C   UNL     1       8.195  14.521  19.478  0.00  0.00    +0.000 C 
BRANCH  21  22
ATOM     22  C   UNL     1       8.877  15.130  20.716  0.00  0.00    +0.000 A 
ATOM     23  C   UNL     1       8.386  14.834  22.003  0.00  0.00    +0.000 A 
ATOM     24  C   UNL     1       9.027  15.320  23.147  0.00  0.00    +0.000 A 
ATOM     25  C   UNL     1      10.175  16.096  23.021  0.00  0.00    +0.000 A 
ATOM     26 CL   UNL     1      11.007  16.633  24.428  0.00  0.00    +0.000 Cl
ATOM     27  C   UNL     1      10.656  16.436  21.761  0.00  0.00    +0.000 A 
ATOM     28  C   UNL     1       9.996  15.976  20.617  0.00  0.00    +0.000 A 
ENDBRANCH  21  22
BRANCH  21  29
ATOM     29  C   UNL     1       9.082  13.460  18.804  0.00  0.00    +0.000 A 
ATOM     30  C   UNL     1       9.112  12.126  19.243  0.00  0.00    +0.000 A 
ATOM     31  C   UNL     1       9.969  11.192  18.658  0.00  0.00    +0.000 A 
ATOM     32  C   UNL     1      10.836  11.584  17.644  0.00  0.00    +0.000 A 
ATOM     33  C   UNL     1      10.832  12.905  17.200  0.00  0.00    +0.000 A 
ATOM     34  C   UNL     1       9.955  13.833  17.765  0.00  0.00    +0.000 A 
ENDBRANCH  21  29
ENDBRANCH   4  21
TORSDOF 6
ENDMDL
MODEL 8
REMARK VINA RESULT:      -6.5      4.002      6.090
REMARK  Name = 
REMARK  6 active torsions:
REMARK  status: ('A' for Active; 'I' for Inactive)
REMARK    1  A    between atoms: C_10  and  N_11
REMARK    2  A    between atoms: N_14  and  C_15
REMARK    3  A    between atoms: C_15  and  C_16
REMARK    4  A    between atoms: C_15  and  C_22
REMARK    5  A    between atoms: C_31  and  C_32
REMARK    6  A    between atoms: C_32  and  O_33
REMARK                            x       y       z     vdW  Elec       q    Type
REMARK                         _______ _______ _______ _____ _____    ______ ____
ROOT
ATOM      1  N   UNL     1       0.322  14.361  21.089  0.00  0.00    +0.000 N 
ATOM      2  C   UNL     1      -0.806  14.190  20.136  0.00  0.00    +0.000 C 
ATOM      3  C   UNL     1      -0.316  13.695  18.752  0.00  0.00    +0.000 C 
ATOM      4  N   UNL     1       0.548  12.480  18.781  0.00  0.00    +0.000 NA
ATOM      5  C   UNL     1       1.689  12.802  19.676  0.00  0.00    +0.000 C 
ATOM      6  C   UNL     1       1.292  13.231  21.109  0.00  0.00    +0.000 C 
ENDROOT
BRANCH   1  16
ATOM      7  O   UNL     1       1.695  18.191  23.620  0.00  0.00    +0.000 OA
ATOM      8  C   UNL     1       0.923  17.247  23.469  0.00  0.00    +0.000 A 
ATOM      9  O   UNL     1      -0.141  17.079  24.329  0.00  0.00    +0.000 OA
ATOM     10  C   UNL     1      -0.990  15.971  24.222  0.00  0.00    +0.000 A 
ATOM     11  C   UNL     1      -1.980  15.880  25.205  0.00  0.00    +0.000 A 
ATOM     12  C   UNL     1      -2.851  14.797  25.199  0.00  0.00    +0.000 A 
ATOM     13  C   UNL     1      -2.694  13.807  24.237  0.00  0.00    +0.000 A 
ATOM     14  C   UNL     1      -1.680  13.908  23.272  0.00  0.00    +0.000 A 
ATOM     15  C   UNL     1      -0.829  15.022  23.217  0.00  0.00    +0.000 A 
ATOM     16  C   UNL     1       0.230  15.234  22.193  0.00  0.00    +0.000 A 
ATOM     17  C   UNL     1       1.077  16.277  22.355  0.00  0.00    +0.000 A 
BRANCH  17  18
ATOM     18  C   UNL     1       2.233  16.639  21.448  0.00  0.00    +0.000 C 
BRANCH  18  19
ATOM     19  O   UNL     1       3.518  16.346  21.990  0.00  0.00    +0.000 OA
ATOM     20  H   UNL     1       4.162  16.778  21.398  0.00  0.00    +0.000 HD
ENDBRANCH  18  19
ENDBRANCH  17  18
ENDBRANCH   1  16
BRANCH   4  21
ATOM     21  C   UNL     1      -0.203  11.269  19.226  0.00  0.00    +0.000 C 
BRANCH  21  22
ATOM     22  C   UNL     1       0.663  10.001  19.331  0.00  0.00    +0.000 A 
ATOM     23  C   UNL     1       0.710   9.284  20.543  0.00  0.00    +0.000 A 
ATOM     24  C   UNL     1       1.434   8.092  20.646  0.00  0.00    +0.000 A 
ATOM     25  C   UNL     1       2.111   7.595  19.537  0.00  0.00    +0.000 A 
ATOM     26 CL   UNL     1       2.942   6.092  19.641  0.00  0.00    +0.000 Cl
ATOM     27  C   UNL     1       2.114   8.305  18.341  0.00  0.00    +0.000 A 
ATOM     28  C   UNL     1       1.415   9.513  18.248  0.00  0.00    +0.000 A 
ENDBRANCH  21  22
BRANCH  21  29
ATOM     29  C   UNL     1      -1.463  11.029  18.377  0.00  0.00    +0.000 A 
ATOM     30  C   UNL     1      -2.713  11.567  18.729  0.00  0.00    +0.000 A 
ATOM     31  C   UNL     1      -3.857  11.287  17.980  0.00  0.00    +0.000 A 
ATOM     32  C   UNL     1      -3.779  10.437  16.882  0.00  0.00    +0.000 A 
ATOM     33  C   UNL     1      -2.552   9.883  16.521  0.00  0.00    +0.000 A 
ATOM     34  C   UNL     1      -1.401  10.185  17.253  0.00  0.00    +0.000 A 
ENDBRANCH  21  29
ENDBRANCH   4  21
TORSDOF 6
ENDMDL
MODEL 9
REMARK VINA RESULT:      -6.4      3.882      5.999
REMARK  Name = 
REMARK  6 active torsions:
REMARK  status: ('A' for Active; 'I' for Inactive)
REMARK    1  A    between atoms: C_10  and  N_11
REMARK    2  A    between atoms: N_14  and  C_15
REMARK    3  A    between atoms: C_15  and  C_16
REMARK    4  A    between atoms: C_15  and  C_22
REMARK    5  A    between atoms: C_31  and  C_32
REMARK    6  A    between atoms: C_32  and  O_33
REMARK                            x       y       z     vdW  Elec       q    Type
REMARK                         _______ _______ _______ _____ _____    ______ ____
ROOT
ATOM      1  N   UNL     1       0.260  14.282  20.943  0.00  0.00    +0.000 N 
ATOM      2  C   UNL     1      -0.879  14.134  20.000  0.00  0.00    +0.000 C 
ATOM      3  C   UNL     1      -0.411  13.636  18.610  0.00  0.00    +0.000 C 
ATOM      4  N   UNL     1       0.432  12.406  18.627  0.00  0.00    +0.000 NA
ATOM      5  C   UNL     1       1.587  12.704  19.512  0.00  0.00    +0.000 C 
ATOM      6  C   UNL     1       1.211  13.135  20.950  0.00  0.00    +0.000 C 
ENDROOT
BRANCH   1  16
ATOM      7  O   UNL     1       1.730  18.072  23.480  0.00  0.00    +0.000 OA
ATOM      8  C   UNL     1       0.937  17.144  23.330  0.00  0.00    +0.000 A 
ATOM      9  O   UNL     1      -0.125  16.996  24.197  0.00  0.00    +0.000 OA
ATOM     10  C   UNL     1      -0.997  15.906  24.091  0.00  0.00    +0.000 A 
ATOM     11  C   UNL     1      -1.983  15.832  25.080  0.00  0.00    +0.000 A 
ATOM     12  C   UNL     1      -2.876  14.767  25.076  0.00  0.00    +0.000 A 
ATOM     13  C   UNL     1      -2.746  13.778  24.109  0.00  0.00    +0.000 A 
ATOM     14  C   UNL     1      -1.736  13.861  23.138  0.00  0.00    +0.000 A 
ATOM     15  C   UNL     1      -0.863  14.958  23.082  0.00  0.00    +0.000 A 
ATOM     16  C   UNL     1       0.194  15.152  22.051  0.00  0.00    +0.000 A 
ATOM     17  C   UNL     1       1.063  16.176  22.212  0.00  0.00    +0.000 A 
BRANCH  17  18
ATOM     18  C   UNL     1       2.221  16.518  21.298  0.00  0.00    +0.000 C 
BRANCH  18  19
ATOM     19  O   UNL     1       2.034  17.707  20.535  0.00  0.00    +0.000 OA
ATOM     20  H   UNL     1       2.794  18.281  20.747  0.00  0.00    +0.000 HD
ENDBRANCH  18  19
ENDBRANCH  17  18
ENDBRANCH   1  16
BRANCH   4  21
ATOM     21  C   UNL     1      -0.336  11.207  19.074  0.00  0.00    +0.000 C 
BRANCH  21  22
ATOM     22  C   UNL     1       0.508   9.922  19.165  0.00  0.00    +0.000 A 
ATOM     23  C   UNL     1       1.195   9.454  18.027  0.00  0.00    +0.000 A 
ATOM     24  C   UNL     1       2.021   8.328  18.099  0.00  0.00    +0.000 A 
ATOM     25  C   UNL     1       2.182   7.662  19.310  0.00  0.00    +0.000 A 
ATOM     26 CL   UNL     1       3.254   6.322  19.417  0.00  0.00    +0.000 Cl
ATOM     27  C   UNL     1       1.482   8.080  20.437  0.00  0.00    +0.000 A 
ATOM     28  C   UNL     1       0.632   9.187  20.357  0.00  0.00    +0.000 A 
ENDBRANCH  21  22
BRANCH  21  29
ATOM     29  C   UNL     1      -1.609  10.993  18.237  0.00  0.00    +0.000 A 
ATOM     30  C   UNL     1      -1.602  10.239  17.050  0.00  0.00    +0.000 A 
ATOM     31  C   UNL     1      -2.753  10.108  16.272  0.00  0.00    +0.000 A 
ATOM     32  C   UNL     1      -3.926  10.754  16.649  0.00  0.00    +0.000 A 
ATOM     33  C   UNL     1      -3.952  11.516  17.816  0.00  0.00    +0.000 A 
ATOM     34  C   UNL     1      -2.809  11.625  18.610  0.00  0.00    +0.000 A 
ENDBRANCH  21  29
ENDBRANCH   4  21
TORSDOF 6
ENDMDL
