MODEL 1
REMARK VINA RESULT:      -7.8      0.000      0.000
REMARK  Name = 
REMARK  8 active torsions:
REMARK  status: ('A' for Active; 'I' for Inactive)
REMARK    1  A    between atoms: C_1  and  O_2
REMARK    2  A    between atoms: O_2  and  C_3
REMARK    3  A    between atoms: C_8  and  N_9
REMARK    4  A    between atoms: N_12  and  C_13
REMARK    5  A    between atoms: C_13  and  C_14
REMARK    6  A    between atoms: N_16  and  N_17
REMARK    7  A    between atoms: C_18  and  C_19
REMARK    8  A    between atoms: C_24  and  O_25
REMARK                            x       y       z     vdW  Elec       q    Type
REMARK                         _______ _______ _______ _____ _____    ______ ____
ROOT
ATOM      1  C   UNL     1       3.053   3.664  20.365  0.00  0.00    +0.000 C 
ENDROOT
BRANCH   1   5
ATOM      2  N   UNL     1       1.881   7.246  19.903  0.00  0.00    +0.000 N 
ATOM      3  C   UNL     1       1.512   6.405  21.048  0.00  0.00    +0.000 C 
ATOM      4  C   UNL     1       1.017   5.052  20.534  0.00  0.00    +0.000 C 
ATOM      5  N   UNL     1       1.986   4.380  19.657  0.00  0.00    +0.000 NA
ATOM      6  C   UNL     1       2.422   5.237  18.563  0.00  0.00    +0.000 C 
ATOM      7  C   UNL     1       2.870   6.649  18.992  0.00  0.00    +0.000 C 
BRANCH   2  13
ATOM      8  C   UNL     1       0.905   9.310  20.858  0.00  0.00    +0.000 A 
ATOM      9  C   UNL     1       0.457  10.622  20.647  0.00  0.00    +0.000 A 
ATOM     10  C   UNL     1       0.525  11.213  19.389  0.00  0.00    +0.000 A 
ATOM     11  C   UNL     1       1.055  10.499  18.328  0.00  0.00    +0.000 A 
ATOM     12  C   UNL     1       1.502   9.192  18.531  0.00  0.00    +0.000 A 
ATOM     13  C   UNL     1       1.424   8.547  19.785  0.00  0.00    +0.000 A 
BRANCH   8  15
ATOM     14  C   UNL     1       0.161   9.481  23.107  0.00  0.00    +0.000 C 
ATOM     15  O   UNL     1       0.775   8.700  22.088  0.00  0.00    +0.000 OA
ENDBRANCH   8  15
ENDBRANCH   2  13
ENDBRANCH   1   5
BRANCH   1  16
ATOM     16  C   UNL     1       3.822   2.715  19.422  0.00  0.00    +0.000 C 
ATOM     17  O   UNL     1       3.328   1.662  19.011  0.00  0.00    +0.000 OA
ATOM     18  N   UNL     1       5.117   3.054  19.085  0.00  0.00    +0.000 N 
ATOM     19  H   UNL     1       5.577   2.500  18.374  0.00  0.00    +0.000 HD
BRANCH  18  20
ATOM     20  N   UNL     1       5.705   4.173  19.574  0.00  0.00    +0.000 NA
ATOM     21  C   UNL     1       6.112   5.140  18.812  0.00  0.00    +0.000 C 
BRANCH  21  22
ATOM     22  C   UNL     1       6.197   5.155  17.356  0.00  0.00    +0.000 A 
ATOM     23  C   UNL     1       5.170   5.704  16.585  0.00  0.00    +0.000 A 
ATOM     24  C   UNL     1       5.307   5.785  15.210  0.00  0.00    +0.000 A 
ATOM     25  C   UNL     1       6.437   5.243  14.606  0.00  0.00    +0.000 A 
ATOM     26  C   UNL     1       7.431   4.620  15.367  0.00  0.00    +0.000 A 
ATOM     27  C   UNL     1       7.308   4.572  16.748  0.00  0.00    +0.000 A 
BRANCH  27  28
ATOM     28  O   UNL     1       8.270   3.972  17.506  0.00  0.00    +0.000 OA
ATOM     29  H   UNL     1       8.834   4.646  17.920  0.00  0.00    +0.000 HD
ENDBRANCH  27  28
ENDBRANCH  21  22
ENDBRANCH  18  20
ENDBRANCH   1  16
TORSDOF 7
ENDMDL
MODEL 2
REMARK VINA RESULT:      -7.5      3.356      5.857
REMARK  Name = 
REMARK  8 active torsions:
REMARK  status: ('A' for Active; 'I' for Inactive)
REMARK    1  A    between atoms: C_1  and  O_2
REMARK    2  A    between atoms: O_2  and  C_3
REMARK    3  A    between atoms: C_8  and  N_9
REMARK    4  A    between atoms: N_12  and  C_13
REMARK    5  A    between atoms: C_13  and  C_14
REMARK    6  A    between atoms: N_16  and  N_17
REMARK    7  A    between atoms: C_18  and  C_19
REMARK    8  A    between atoms: C_24  and  O_25
REMARK                            x       y       z     vdW  Elec       q    Type
REMARK                         _______ _______ _______ _____ _____    ______ ____
ROOT
ATOM      1  C   UNL     1       0.557   9.389  19.220  0.00  0.00    +0.000 C 
ENDROOT
BRANCH   1   5
ATOM      2  N   UNL     1      -1.060  11.649  21.807  0.00  0.00    +0.000 N 
ATOM      3  C   UNL     1      -1.176  11.850  20.358  0.00  0.00    +0.000 C 
ATOM      4  C   UNL     1       0.218  11.781  19.732  0.00  0.00    +0.000 C 
ATOM      5  N   UNL     1       0.933  10.537  20.051  0.00  0.00    +0.000 NA
ATOM      6  C   UNL     1       0.980  10.286  21.485  0.00  0.00    +0.000 C 
ATOM      7  C   UNL     1      -0.378  10.407  22.205  0.00  0.00    +0.000 C 
BRANCH   2  13
ATOM      8  C   UNL     1      -1.103  13.716  23.167  0.00  0.00    +0.000 A 
ATOM      9  C   UNL     1      -1.791  14.520  24.087  0.00  0.00    +0.000 A 
ATOM     10  C   UNL     1      -3.050  14.162  24.557  0.00  0.00    +0.000 A 
ATOM     11  C   UNL     1      -3.642  12.997  24.100  0.00  0.00    +0.000 A 
ATOM     12  C   UNL     1      -2.963  12.191  23.185  0.00  0.00    +0.000 A 
ATOM     13  C   UNL     1      -1.671  12.505  22.706  0.00  0.00    +0.000 A 
BRANCH   8  15
ATOM     14  C   UNL     1       0.275  15.085  21.800  0.00  0.00    +0.000 C 
ATOM     15  O   UNL     1       0.174  14.034  22.755  0.00  0.00    +0.000 OA
ENDBRANCH   8  15
ENDBRANCH   2  13
ENDBRANCH   1   5
BRANCH   1  16
ATOM     16  C   UNL     1       1.785   8.764  18.528  0.00  0.00    +0.000 C 
ATOM     17  O   UNL     1       2.228   9.200  17.462  0.00  0.00    +0.000 OA
ATOM     18  N   UNL     1       2.358   7.652  19.114  0.00  0.00    +0.000 N 
ATOM     19  H   UNL     1       3.232   7.317  18.731  0.00  0.00    +0.000 HD
BRANCH  18  20
ATOM     20  N   UNL     1       1.852   7.114  20.251  0.00  0.00    +0.000 NA
ATOM     21  C   UNL     1       1.877   5.840  20.492  0.00  0.00    +0.000 C 
BRANCH  21  22
ATOM     22  C   UNL     1       2.252   4.765  19.581  0.00  0.00    +0.000 A 
ATOM     23  C   UNL     1       1.300   3.856  19.114  0.00  0.00    +0.000 A 
ATOM     24  C   UNL     1       1.659   2.896  18.184  0.00  0.00    +0.000 A 
ATOM     25  C   UNL     1       2.989   2.798  17.786  0.00  0.00    +0.000 A 
ATOM     26  C   UNL     1       3.962   3.654  18.312  0.00  0.00    +0.000 A 
ATOM     27  C   UNL     1       3.592   4.639  19.216  0.00  0.00    +0.000 A 
BRANCH  27  28
ATOM     28  O   UNL     1       4.528   5.485  19.737  0.00  0.00    +0.000 OA
ATOM     29  H   UNL     1       5.360   5.006  19.887  0.00  0.00    +0.000 HD
ENDBRANCH  27  28
ENDBRANCH  21  22
ENDBRANCH  18  20
ENDBRANCH   1  16
TORSDOF 7
ENDMDL
MODEL 3
REMARK VINA RESULT:      -7.3      2.695      8.268
REMARK  Name = 
REMARK  8 active torsions:
REMARK  status: ('A' for Active; 'I' for Inactive)
REMARK    1  A    between atoms: C_1  and  O_2
REMARK    2  A    between atoms: O_2  and  C_3
REMARK    3  A    between atoms: C_8  and  N_9
REMARK    4  A    between atoms: N_12  and  C_13
REMARK    5  A    between atoms: C_13  and  C_14
REMARK    6  A    between atoms: N_16  and  N_17
REMARK    7  A    between atoms: C_18  and  C_19
REMARK    8  A    between atoms: C_24  and  O_25
REMARK                            x       y       z     vdW  Elec       q    Type
REMARK                         _______ _______ _______ _____ _____    ______ ____
ROOT
ATOM      1  C   UNL     1       1.943   8.287  20.375  0.00  0.00    +0.000 C 
ENDROOT
BRANCH   1   5
ATOM      2  N   UNL     1       4.156   6.315  18.003  0.00  0.00    +0.000 N 
ATOM      3  C   UNL     1       3.536   7.601  17.665  0.00  0.00    +0.000 C 
ATOM      4  C   UNL     1       2.049   7.546  18.021  0.00  0.00    +0.000 C 
ATOM      5  N   UNL     1       1.806   7.179  19.423  0.00  0.00    +0.000 NA
ATOM      6  C   UNL     1       2.488   5.946  19.792  0.00  0.00    +0.000 C 
ATOM      7  C   UNL     1       3.979   5.892  19.401  0.00  0.00    +0.000 C 
BRANCH   2  13
ATOM      8  C   UNL     1       6.189   6.125  16.604  0.00  0.00    +0.000 A 
ATOM      9  C   UNL     1       6.933   5.374  15.681  0.00  0.00    +0.000 A 
ATOM     10  C   UNL     1       6.491   4.131  15.243  0.00  0.00    +0.000 A 
ATOM     11  C   UNL     1       5.302   3.617  15.733  0.00  0.00    +0.000 A 
ATOM     12  C   UNL     1       4.557   4.359  16.650  0.00  0.00    +0.000 A 
ATOM     13  C   UNL     1       4.956   5.638  17.099  0.00  0.00    +0.000 A 
BRANCH   8  15
ATOM     14  C   UNL     1       7.711   7.445  17.863  0.00  0.00    +0.000 C 
ATOM     15  O   UNL     1       6.590   7.388  16.987  0.00  0.00    +0.000 OA
ENDBRANCH   8  15
ENDBRANCH   2  13
ENDBRANCH   1   5
BRANCH   1  16
ATOM     16  C   UNL     1       0.576   8.713  20.949  0.00  0.00    +0.000 C 
ATOM     17  O   UNL     1      -0.045   8.008  21.749  0.00  0.00    +0.000 OA
ATOM     18  N   UNL     1       0.032   9.900  20.501  0.00  0.00    +0.000 N 
ATOM     19  H   UNL     1      -0.801  10.239  20.965  0.00  0.00    +0.000 HD
BRANCH  18  20
ATOM     20  N   UNL     1       0.663  10.662  19.575  0.00  0.00    +0.000 NA
ATOM     21  C   UNL     1       0.041  11.211  18.579  0.00  0.00    +0.000 C 
BRANCH  21  22
ATOM     22  C   UNL     1      -1.338  10.991  18.156  0.00  0.00    +0.000 A 
ATOM     23  C   UNL     1      -1.656   9.976  17.252  0.00  0.00    +0.000 A 
ATOM     24  C   UNL     1      -2.979   9.729  16.929  0.00  0.00    +0.000 A 
ATOM     25  C   UNL     1      -3.972  10.552  17.450  0.00  0.00    +0.000 A 
ATOM     26  C   UNL     1      -3.651  11.621  18.293  0.00  0.00    +0.000 A 
ATOM     27  C   UNL     1      -2.327  11.844  18.644  0.00  0.00    +0.000 A 
BRANCH  27  28
ATOM     28  O   UNL     1      -1.997  12.880  19.467  0.00  0.00    +0.000 OA
ATOM     29  H   UNL     1      -1.584  13.593  18.953  0.00  0.00    +0.000 HD
ENDBRANCH  27  28
ENDBRANCH  21  22
ENDBRANCH  18  20
ENDBRANCH   1  16
TORSDOF 7
ENDMDL
MODEL 4
REMARK VINA RESULT:      -7.3      4.638      7.003
REMARK  Name = 
REMARK  8 active torsions:
REMARK  status: ('A' for Active; 'I' for Inactive)
REMARK    1  A    between atoms: C_1  and  O_2
REMARK    2  A    between atoms: O_2  and  C_3
REMARK    3  A    between atoms: C_8  and  N_9
REMARK    4  A    between atoms: N_12  and  C_13
REMARK    5  A    between atoms: C_13  and  C_14
REMARK    6  A    between atoms: N_16  and  N_17
REMARK    7  A    between atoms: C_18  and  C_19
REMARK    8  A    between atoms: C_24  and  O_25
REMARK                            x       y       z     vdW  Elec       q    Type
REMARK                         _______ _______ _______ _____ _____    ______ ____
ROOT
ATOM      1  C   UNL     1       7.402   6.429  17.158  0.00  0.00    +0.000 C 
ENDROOT
BRANCH   1   5
ATOM      2  N   UNL     1       4.276   4.465  18.046  0.00  0.00    +0.000 N 
ATOM      3  C   UNL     1       4.944   4.395  16.741  0.00  0.00    +0.000 C 
ATOM      4  C   UNL     1       5.195   5.816  16.234  0.00  0.00    +0.000 C 
ATOM      5  N   UNL     1       5.951   6.642  17.186  0.00  0.00    +0.000 NA
ATOM      6  C   UNL     1       5.341   6.649  18.508  0.00  0.00    +0.000 C 
ATOM      7  C   UNL     1       4.990   5.254  19.063  0.00  0.00    +0.000 C 
BRANCH   2  13
ATOM      8  C   UNL     1       3.139   2.467  18.963  0.00  0.00    +0.000 A 
ATOM      9  C   UNL     1       1.936   1.782  19.190  0.00  0.00    +0.000 A 
ATOM     10  C   UNL     1       0.715   2.324  18.805  0.00  0.00    +0.000 A 
ATOM     11  C   UNL     1       0.682   3.568  18.197  0.00  0.00    +0.000 A 
ATOM     12  C   UNL     1       1.876   4.255  17.967  0.00  0.00    +0.000 A 
ATOM     13  C   UNL     1       3.138   3.725  18.316  0.00  0.00    +0.000 A 
BRANCH   8  15
ATOM     14  C   UNL     1       4.676   1.852  20.667  0.00  0.00    +0.000 C 
ATOM     15  O   UNL     1       4.356   1.900  19.281  0.00  0.00    +0.000 OA
ENDBRANCH   8  15
ENDBRANCH   2  13
ENDBRANCH   1   5
BRANCH   1  16
ATOM     16  C   UNL     1       8.061   6.838  18.491  0.00  0.00    +0.000 C 
ATOM     17  O   UNL     1       8.260   6.026  19.398  0.00  0.00    +0.000 OA
ATOM     18  N   UNL     1       8.383   8.169  18.668  0.00  0.00    +0.000 N 
ATOM     19  H   UNL     1       8.923   8.417  19.487  0.00  0.00    +0.000 HD
BRANCH  18  20
ATOM     20  N   UNL     1       8.116   9.093  17.713  0.00  0.00    +0.000 NA
ATOM     21  C   UNL     1       8.667  10.267  17.702  0.00  0.00    +0.000 C 
BRANCH  21  22
ATOM     22  C   UNL     1       9.486  10.879  18.743  0.00  0.00    +0.000 A 
ATOM     23  C   UNL     1       9.013  10.994  20.052  0.00  0.00    +0.000 A 
ATOM     24  C   UNL     1       9.838  11.500  21.042  0.00  0.00    +0.000 A 
ATOM     25  C   UNL     1      11.104  11.965  20.701  0.00  0.00    +0.000 A 
ATOM     26  C   UNL     1      11.552  11.926  19.377  0.00  0.00    +0.000 A 
ATOM     27  C   UNL     1      10.738  11.385  18.393  0.00  0.00    +0.000 A 
BRANCH  27  28
ATOM     28  O   UNL     1      11.161  11.336  17.097  0.00  0.00    +0.000 OA
ATOM     29  H   UNL     1      11.833  10.643  16.994  0.00  0.00    +0.000 HD
ENDBRANCH  27  28
ENDBRANCH  21  22
ENDBRANCH  18  20
ENDBRANCH   1  16
TORSDOF 7
ENDMDL
MODEL 5
REMARK VINA RESULT:      -7.3      4.745      6.554
REMARK  Name = 
REMARK  8 active torsions:
REMARK  status: ('A' for Active; 'I' for Inactive)
REMARK    1  A    between atoms: C_1  and  O_2
REMARK    2  A    between atoms: O_2  and  C_3
REMARK    3  A    between atoms: C_8  and  N_9
REMARK    4  A    between atoms: N_12  and  C_13
REMARK    5  A    between atoms: C_13  and  C_14
REMARK    6  A    between atoms: N_16  and  N_17
REMARK    7  A    between atoms: C_18  and  C_19
REMARK    8  A    between atoms: C_24  and  O_25
REMARK                            x       y       z     vdW  Elec       q    Type
REMARK                         _______ _______ _______ _____ _____    ______ ____
ROOT
ATOM      1  C   UNL     1       7.185   6.692  17.351  0.00  0.00    +0.000 C 
ENDROOT
BRANCH   1   5
ATOM      2  N   UNL     1       4.008   4.881  18.367  0.00  0.00    +0.000 N 
ATOM      3  C   UNL     1       5.054   5.290  19.311  0.00  0.00    +0.000 C 
ATOM      4  C   UNL     1       6.413   4.831  18.778  0.00  0.00    +0.000 C 
ATOM      5  N   UNL     1       6.691   5.313  17.418  0.00  0.00    +0.000 NA
ATOM      6  C   UNL     1       5.617   4.984  16.491  0.00  0.00    +0.000 C 
ATOM      7  C   UNL     1       4.203   5.351  16.987  0.00  0.00    +0.000 C 
BRANCH   2  13
ATOM      8  C   UNL     1       2.045   4.659  19.859  0.00  0.00    +0.000 A 
ATOM      9  C   UNL     1       0.910   3.924  20.230  0.00  0.00    +0.000 A 
ATOM     10  C   UNL     1       0.551   2.762  19.554  0.00  0.00    +0.000 A 
ATOM     11  C   UNL     1       1.322   2.328  18.488  0.00  0.00    +0.000 A 
ATOM     12  C   UNL     1       2.454   3.054  18.115  0.00  0.00    +0.000 A 
ATOM     13  C   UNL     1       2.867   4.222  18.793  0.00  0.00    +0.000 A 
BRANCH   8  15
ATOM     14  C   UNL     1       1.522   6.859  20.586  0.00  0.00    +0.000 C 
ATOM     15  O   UNL     1       2.441   5.771  20.572  0.00  0.00    +0.000 OA
ENDBRANCH   8  15
ENDBRANCH   2  13
ENDBRANCH   1   5
BRANCH   1  16
ATOM     16  C   UNL     1       8.135   7.012  18.524  0.00  0.00    +0.000 C 
ATOM     17  O   UNL     1       8.496   6.148  19.327  0.00  0.00    +0.000 OA
ATOM     18  N   UNL     1       8.538   8.323  18.686  0.00  0.00    +0.000 N 
ATOM     19  H   UNL     1       9.252   8.512  19.377  0.00  0.00    +0.000 HD
BRANCH  18  20
ATOM     20  N   UNL     1       8.104   9.303  17.856  0.00  0.00    +0.000 NA
ATOM     21  C   UNL     1       8.604  10.500  17.866  0.00  0.00    +0.000 C 
BRANCH  21  22
ATOM     22  C   UNL     1       9.540  11.069  18.830  0.00  0.00    +0.000 A 
ATOM     23  C   UNL     1       9.173  11.248  20.165  0.00  0.00    +0.000 A 
ATOM     24  C   UNL     1      10.102  11.710  21.081  0.00  0.00    +0.000 A 
ATOM     25  C   UNL     1      11.372  12.069  20.640  0.00  0.00    +0.000 A 
ATOM     26  C   UNL     1      11.719  11.968  19.289  0.00  0.00    +0.000 A 
ATOM     27  C   UNL     1      10.797  11.470  18.379  0.00  0.00    +0.000 A 
BRANCH  27  28
ATOM     28  O   UNL     1      11.120  11.362  17.058  0.00  0.00    +0.000 OA
ATOM     29  H   UNL     1      10.825  10.503  16.715  0.00  0.00    +0.000 HD
ENDBRANCH  27  28
ENDBRANCH  21  22
ENDBRANCH  18  20
ENDBRANCH   1  16
TORSDOF 7
ENDMDL
MODEL 6
REMARK VINA RESULT:      -7.2      1.554      2.308
REMARK  Name = 
REMARK  8 active torsions:
REMARK  status: ('A' for Active; 'I' for Inactive)
REMARK    1  A    between atoms: C_1  and  O_2
REMARK    2  A    between atoms: O_2  and  C_3
REMARK    3  A    between atoms: C_8  and  N_9
REMARK    4  A    between atoms: N_12  and  C_13
REMARK    5  A    between atoms: C_13  and  C_14
REMARK    6  A    between atoms: N_16  and  N_17
REMARK    7  A    between atoms: C_18  and  C_19
REMARK    8  A    between atoms: C_24  and  O_25
REMARK                            x       y       z     vdW  Elec       q    Type
REMARK                         _______ _______ _______ _____ _____    ______ ____
ROOT
ATOM      1  C   UNL     1       3.580   5.905  19.829  0.00  0.00    +0.000 C 
ENDROOT
BRANCH   1   5
ATOM      2  N   UNL     1       1.194   8.851  20.034  0.00  0.00    +0.000 N 
ATOM      3  C   UNL     1       1.447   7.924  21.143  0.00  0.00    +0.000 C 
ATOM      4  C   UNL     1       1.318   6.488  20.631  0.00  0.00    +0.000 C 
ATOM      5  N   UNL     1       2.188   6.207  19.480  0.00  0.00    +0.000 NA
ATOM      6  C   UNL     1       2.004   7.174  18.406  0.00  0.00    +0.000 C 
ATOM      7  C   UNL     1       2.049   8.649  18.853  0.00  0.00    +0.000 C 
BRANCH   2  13
ATOM      8  C   UNL     1      -0.569  10.343  19.147  0.00  0.00    +0.000 A 
ATOM      9  C   UNL     1      -1.425  11.433  19.362  0.00  0.00    +0.000 A 
ATOM     10  C   UNL     1      -1.443  12.105  20.580  0.00  0.00    +0.000 A 
ATOM     11  C   UNL     1      -0.611  11.684  21.603  0.00  0.00    +0.000 A 
ATOM     12  C   UNL     1       0.245  10.601  21.395  0.00  0.00    +0.000 A 
ATOM     13  C   UNL     1       0.313   9.911  20.164  0.00  0.00    +0.000 A 
BRANCH   8  15
ATOM     14  C   UNL     1      -1.657   9.838  17.096  0.00  0.00    +0.000 C 
ATOM     15  O   UNL     1      -0.501   9.721  17.918  0.00  0.00    +0.000 OA
ENDBRANCH   8  15
ENDBRANCH   2  13
ENDBRANCH   1   5
BRANCH   1  16
ATOM     16  C   UNL     1       3.921   4.423  19.571  0.00  0.00    +0.000 C 
ATOM     17  O   UNL     1       3.047   3.558  19.475  0.00  0.00    +0.000 OA
ATOM     18  N   UNL     1       5.255   4.073  19.497  0.00  0.00    +0.000 N 
ATOM     19  H   UNL     1       5.477   3.130  19.209  0.00  0.00    +0.000 HD
BRANCH  18  20
ATOM     20  N   UNL     1       6.237   4.993  19.663  0.00  0.00    +0.000 NA
ATOM     21  C   UNL     1       6.708   5.698  18.682  0.00  0.00    +0.000 C 
BRANCH  21  22
ATOM     22  C   UNL     1       6.442   5.535  17.257  0.00  0.00    +0.000 A 
ATOM     23  C   UNL     1       5.387   6.213  16.643  0.00  0.00    +0.000 A 
ATOM     24  C   UNL     1       5.204   6.111  15.275  0.00  0.00    +0.000 A 
ATOM     25  C   UNL     1       6.029   5.267  14.539  0.00  0.00    +0.000 A 
ATOM     26  C   UNL     1       7.037   4.524  15.162  0.00  0.00    +0.000 A 
ATOM     27  C   UNL     1       7.241   4.656  16.527  0.00  0.00    +0.000 A 
BRANCH  27  28
ATOM     28  O   UNL     1       8.222   3.941  17.151  0.00  0.00    +0.000 OA
ATOM     29  H   UNL     1       7.887   3.062  17.394  0.00  0.00    +0.000 HD
ENDBRANCH  27  28
ENDBRANCH  21  22
ENDBRANCH  18  20
ENDBRANCH   1  16
TORSDOF 7
ENDMDL
MODEL 7
REMARK VINA RESULT:      -7.2      4.858      7.043
REMARK  Name = 
REMARK  8 active torsions:
REMARK  status: ('A' for Active; 'I' for Inactive)
REMARK    1  A    between atoms: C_1  and  O_2
REMARK    2  A    between atoms: O_2  and  C_3
REMARK    3  A    between atoms: C_8  and  N_9
REMARK    4  A    between atoms: N_12  and  C_13
REMARK    5  A    between atoms: C_13  and  C_14
REMARK    6  A    between atoms: N_16  and  N_17
REMARK    7  A    between atoms: C_18  and  C_19
REMARK    8  A    between atoms: C_24  and  O_25
REMARK                            x       y       z     vdW  Elec       q    Type
REMARK                         _______ _______ _______ _____ _____    ______ ____
ROOT
ATOM      1  C   UNL     1       6.824   7.350  17.226  0.00  0.00    +0.000 C 
ENDROOT
BRANCH   1   5
ATOM      2  N   UNL     1       3.997   5.263  18.664  0.00  0.00    +0.000 N 
ATOM      3  C   UNL     1       5.263   5.519  19.362  0.00  0.00    +0.000 C 
ATOM      4  C   UNL     1       6.424   5.221  18.412  0.00  0.00    +0.000 C 
ATOM      5  N   UNL     1       6.341   5.967  17.148  0.00  0.00    +0.000 NA
ATOM      6  C   UNL     1       5.055   5.787  16.490  0.00  0.00    +0.000 C 
ATOM      7  C   UNL     1       3.829   5.999  17.401  0.00  0.00    +0.000 C 
BRANCH   2  13
ATOM      8  C   UNL     1       2.972   3.080  19.218  0.00  0.00    +0.000 A 
ATOM      9  C   UNL     1       1.915   2.379  19.817  0.00  0.00    +0.000 A 
ATOM     10  C   UNL     1       0.879   3.050  20.458  0.00  0.00    +0.000 A 
ATOM     11  C   UNL     1       0.895   4.433  20.516  0.00  0.00    +0.000 A 
ATOM     12  C   UNL     1       1.943   5.137  19.921  0.00  0.00    +0.000 A 
ATOM     13  C   UNL     1       2.999   4.494  19.236  0.00  0.00    +0.000 A 
BRANCH   8  15
ATOM     14  C   UNL     1       3.790   1.015  18.375  0.00  0.00    +0.000 C 
ATOM     15  O   UNL     1       3.964   2.420  18.523  0.00  0.00    +0.000 OA
ENDBRANCH   8  15
ENDBRANCH   2  13
ENDBRANCH   1   5
BRANCH   1  16
ATOM     16  C   UNL     1       8.005   7.484  18.210  0.00  0.00    +0.000 C 
ATOM     17  O   UNL     1       8.440   6.520  18.844  0.00  0.00    +0.000 OA
ATOM     18  N   UNL     1       8.541   8.742  18.404  0.00  0.00    +0.000 N 
ATOM     19  H   UNL     1       9.388   8.811  18.952  0.00  0.00    +0.000 HD
BRANCH  18  20
ATOM     20  N   UNL     1       8.040   9.829  17.768  0.00  0.00    +0.000 NA
ATOM     21  C   UNL     1       8.551  11.014  17.900  0.00  0.00    +0.000 C 
BRANCH  21  22
ATOM     22  C   UNL     1       9.579  11.443  18.841  0.00  0.00    +0.000 A 
ATOM     23  C   UNL     1       9.263  11.715  20.174  0.00  0.00    +0.000 A 
ATOM     24  C   UNL     1      10.267  12.039  21.070  0.00  0.00    +0.000 A 
ATOM     25  C   UNL     1      11.573  12.168  20.610  0.00  0.00    +0.000 A 
ATOM     26  C   UNL     1      11.883  11.975  19.260  0.00  0.00    +0.000 A 
ATOM     27  C   UNL     1      10.881  11.615  18.371  0.00  0.00    +0.000 A 
BRANCH  27  28
ATOM     28  O   UNL     1      11.166  11.420  17.051  0.00  0.00    +0.000 OA
ATOM     29  H   UNL     1      10.757  10.595  16.743  0.00  0.00    +0.000 HD
ENDBRANCH  27  28
ENDBRANCH  21  22
ENDBRANCH  18  20
ENDBRANCH   1  16
TORSDOF 7
ENDMDL
MODEL 8
REMARK VINA RESULT:      -7.2      1.849      6.357
REMARK  Name = 
REMARK  8 active torsions:
REMARK  status: ('A' for Active; 'I' for Inactive)
REMARK    1  A    between atoms: C_1  and  O_2
REMARK    2  A    between atoms: O_2  and  C_3
REMARK    3  A    between atoms: C_8  and  N_9
REMARK    4  A    between atoms: N_12  and  C_13
REMARK    5  A    between atoms: C_13  and  C_14
REMARK    6  A    between atoms: N_16  and  N_17
REMARK    7  A    between atoms: C_18  and  C_19
REMARK    8  A    between atoms: C_24  and  O_25
REMARK                            x       y       z     vdW  Elec       q    Type
REMARK                         _______ _______ _______ _____ _____    ______ ____
ROOT
ATOM      1  C   UNL     1       1.967   2.498  20.519  0.00  0.00    +0.000 C 
ENDROOT
BRANCH   1   5
ATOM      2  N   UNL     1       4.471   3.659  17.912  0.00  0.00    +0.000 N 
ATOM      3  C   UNL     1       3.042   3.461  17.644  0.00  0.00    +0.000 C 
ATOM      4  C   UNL     1       2.621   2.089  18.173  0.00  0.00    +0.000 C 
ATOM      5  N   UNL     1       2.937   1.899  19.596  0.00  0.00    +0.000 NA
ATOM      6  C   UNL     1       4.337   2.175  19.888  0.00  0.00    +0.000 C 
ATOM      7  C   UNL     1       4.860   3.512  19.324  0.00  0.00    +0.000 C 
BRANCH   2  13
ATOM      8  C   UNL     1       6.664   4.524  17.160  0.00  0.00    +0.000 A 
ATOM      9  C   UNL     1       7.476   4.947  16.097  0.00  0.00    +0.000 A 
ATOM     10  C   UNL     1       7.011   4.930  14.786  0.00  0.00    +0.000 A 
ATOM     11  C   UNL     1       5.730   4.477  14.522  0.00  0.00    +0.000 A 
ATOM     12  C   UNL     1       4.916   4.056  15.576  0.00  0.00    +0.000 A 
ATOM     13  C   UNL     1       5.341   4.085  16.923  0.00  0.00    +0.000 A 
BRANCH   8  15
ATOM     14  C   UNL     1       7.679   5.847  18.852  0.00  0.00    +0.000 C 
ATOM     15  O   UNL     1       7.099   4.606  18.467  0.00  0.00    +0.000 OA
ENDBRANCH   8  15
ENDBRANCH   2  13
ENDBRANCH   1   5
BRANCH   1  16
ATOM     16  C   UNL     1       0.994   3.443  19.785  0.00  0.00    +0.000 C 
ATOM     17  O   UNL     1       0.101   3.018  19.048  0.00  0.00    +0.000 OA
ATOM     18  N   UNL     1       1.180   4.803  19.937  0.00  0.00    +0.000 N 
ATOM     19  H   UNL     1       0.473   5.419  19.557  0.00  0.00    +0.000 HD
BRANCH  18  20
ATOM     20  N   UNL     1       2.193   5.297  20.690  0.00  0.00    +0.000 NA
ATOM     21  C   UNL     1       2.469   6.564  20.747  0.00  0.00    +0.000 C 
BRANCH  21  22
ATOM     22  C   UNL     1       1.916   7.636  19.927  0.00  0.00    +0.000 A 
ATOM     23  C   UNL     1       1.001   8.546  20.461  0.00  0.00    +0.000 A 
ATOM     24  C   UNL     1       0.553   9.606  19.691  0.00  0.00    +0.000 A 
ATOM     25  C   UNL     1       0.960   9.705  18.365  0.00  0.00    +0.000 A 
ATOM     26  C   UNL     1       1.814   8.750  17.803  0.00  0.00    +0.000 A 
ATOM     27  C   UNL     1       2.290   7.709  18.586  0.00  0.00    +0.000 A 
BRANCH  27  28
ATOM     28  O   UNL     1       3.126   6.771  18.054  0.00  0.00    +0.000 OA
ATOM     29  H   UNL     1       3.527   7.111  17.237  0.00  0.00    +0.000 HD
ENDBRANCH  27  28
ENDBRANCH  21  22
ENDBRANCH  18  20
ENDBRANCH   1  16
TORSDOF 7
ENDMDL
MODEL 9
REMARK VINA RESULT:      -7.2      2.217      3.472
REMARK  Name = 
REMARK  8 active torsions:
REMARK  status: ('A' for Active; 'I' for Inactive)
REMARK    1  A    between atoms: C_1  and  O_2
REMARK    2  A    between atoms: O_2  and  C_3
REMARK    3  A    between atoms: C_8  and  N_9
REMARK    4  A    between atoms: N_12  and  C_13
REMARK    5  A    between atoms: C_13  and  C_14
REMARK    6  A    between atoms: N_16  and  N_17
REMARK    7  A    between atoms: C_18  and  C_19
REMARK    8  A    between atoms: C_24  and  O_25
REMARK                            x       y       z     vdW  Elec       q    Type
REMARK                         _______ _______ _______ _____ _____    ______ ____
ROOT
ATOM      1  C   UNL     1       1.903   6.275  18.942  0.00  0.00    +0.000 C 
ENDROOT
BRANCH   1   5
ATOM      2  N   UNL     1       0.882   9.931  18.875  0.00  0.00    +0.000 N 
ATOM      3  C   UNL     1       1.367   9.195  17.701  0.00  0.00    +0.000 C 
ATOM      4  C   UNL     1       2.656   8.460  18.072  0.00  0.00    +0.000 C 
ATOM      5  N   UNL     1       2.503   7.580  19.239  0.00  0.00    +0.000 NA
ATOM      6  C   UNL     1       1.943   8.283  20.385  0.00  0.00    +0.000 C 
ATOM      7  C   UNL     1       0.678   9.109  20.078  0.00  0.00    +0.000 C 
BRANCH   2  13
ATOM      8  C   UNL     1      -0.802  11.724  18.607  0.00  0.00    +0.000 A 
ATOM      9  C   UNL     1      -1.076  13.097  18.528  0.00  0.00    +0.000 A 
ATOM     10  C   UNL     1      -0.062  14.042  18.647  0.00  0.00    +0.000 A 
ATOM     11  C   UNL     1       1.240  13.621  18.859  0.00  0.00    +0.000 A 
ATOM     12  C   UNL     1       1.520  12.256  18.938  0.00  0.00    +0.000 A 
ATOM     13  C   UNL     1       0.523  11.265  18.793  0.00  0.00    +0.000 A 
BRANCH   8  15
ATOM     14  C   UNL     1      -2.864  11.173  17.564  0.00  0.00    +0.000 C 
ATOM     15  O   UNL     1      -1.796  10.785  18.420  0.00  0.00    +0.000 OA
ENDBRANCH   8  15
ENDBRANCH   2  13
ENDBRANCH   1   5
BRANCH   1  16
ATOM     16  C   UNL     1       2.710   5.122  19.573  0.00  0.00    +0.000 C 
ATOM     17  O   UNL     1       2.770   4.958  20.795  0.00  0.00    +0.000 OA
ATOM     18  N   UNL     1       3.418   4.293  18.726  0.00  0.00    +0.000 N 
ATOM     19  H   UNL     1       3.847   3.469  19.126  0.00  0.00    +0.000 HD
BRANCH  18  20
ATOM     20  N   UNL     1       3.422   4.490  17.385  0.00  0.00    +0.000 NA
ATOM     21  C   UNL     1       4.432   5.006  16.756  0.00  0.00    +0.000 C 
BRANCH  21  22
ATOM     22  C   UNL     1       5.623   5.620  17.332  0.00  0.00    +0.000 A 
ATOM     23  C   UNL     1       6.018   6.906  16.957  0.00  0.00    +0.000 A 
ATOM     24  C   UNL     1       7.102   7.504  17.578  0.00  0.00    +0.000 A 
ATOM     25  C   UNL     1       7.835   6.781  18.512  0.00  0.00    +0.000 A 
ATOM     26  C   UNL     1       7.491   5.463  18.832  0.00  0.00    +0.000 A 
ATOM     27  C   UNL     1       6.383   4.879  18.236  0.00  0.00    +0.000 A 
BRANCH  27  28
ATOM     28  O   UNL     1       6.032   3.596  18.540  0.00  0.00    +0.000 OA
ATOM     29  H   UNL     1       5.088   3.556  18.764  0.00  0.00    +0.000 HD
ENDBRANCH  27  28
ENDBRANCH  21  22
ENDBRANCH  18  20
ENDBRANCH   1  16
TORSDOF 7
ENDMDL
