MODEL 1
REMARK VINA RESULT:      -7.3      0.000      0.000
REMARK  Name = 
REMARK  8 active torsions:
REMARK  status: ('A' for Active; 'I' for Inactive)
REMARK    1  A    between atoms: C_1  and  N_2
REMARK    2  A    between atoms: N_2  and  C_3
REMARK    3  A    between atoms: N_2  and  C_4
REMARK    4  A    between atoms: C_4  and  C_5
REMARK    5  A    between atoms: C_5  and  N_6
REMARK    6  A    between atoms: C_8  and  C_9
REMARK    7  A    between atoms: N_12  and  C_13
REMARK    8  A    between atoms: C_13  and  C_14
REMARK                            x       y       z     vdW  Elec       q    Type
REMARK                         _______ _______ _______ _____ _____    ______ ____
ROOT
ATOM      1  N   UNL     1       2.715   6.123  19.740  0.00  0.00    +0.000 N 
ATOM      2  N   UNL     1       3.770   6.143  18.900  0.00  0.00    +0.000 NA
ATOM      3  C   UNL     1       4.178   4.867  18.845  0.00  0.00    +0.000 A 
ATOM      4  C   UNL     1       3.383   4.032  19.679  0.00  0.00    +0.000 A 
ATOM      5  C   UNL     1       3.334   2.677  20.044  0.00  0.00    +0.000 A 
ATOM      6  C   UNL     1       2.339   2.291  20.944  0.00  0.00    +0.000 A 
ATOM      7  C   UNL     1       1.453   3.246  21.426  0.00  0.00    +0.000 A 
ATOM      8  N   UNL     1       1.454   4.558  21.101  0.00  0.00    +0.000 NA
ATOM      9  C   UNL     1       2.435   4.882  20.233  0.00  0.00    +0.000 A 
ENDROOT
BRANCH   3  10
ATOM     10  C   UNL     1       5.370   4.481  18.005  0.00  0.00    +0.000 C 
ATOM     11  C   UNL     1       6.650   5.236  18.375  0.00  0.00    +0.000 C 
ATOM     12  C   UNL     1       6.632   6.406  17.406  0.00  0.00    +0.000 C 
ATOM     13  N   UNL     1       6.208   5.812  16.123  0.00  0.00    +0.000 NA
ATOM     14  C   UNL     1       5.183   4.813  16.509  0.00  0.00    +0.000 C 
BRANCH  13  15
ATOM     15  C   UNL     1       7.366   5.215  15.435  0.00  0.00    +0.000 C 
BRANCH  15  16
ATOM     16  C   UNL     1       7.090   4.762  14.018  0.00  0.00    +0.000 A 
ATOM     17  C   UNL     1       7.800   5.303  12.936  0.00  0.00    +0.000 A 
ATOM     18  C   UNL     1       7.599   4.814  11.644  0.00  0.00    +0.000 A 
ATOM     19  C   UNL     1       6.685   3.785  11.422  0.00  0.00    +0.000 A 
ATOM     20  C   UNL     1       5.963   3.250  12.486  0.00  0.00    +0.000 A 
ATOM     21  C   UNL     1       6.163   3.737  13.778  0.00  0.00    +0.000 A 
ENDBRANCH  15  16
ENDBRANCH  13  15
ENDBRANCH   3  10
BRANCH   1  22
ATOM     22  C   UNL     1       2.028   7.368  20.040  0.00  0.00    +0.000 C 
BRANCH  22  23
ATOM     23  C   UNL     1       1.953   8.292  18.818  0.00  0.00    +0.000 C 
BRANCH  23  25
ATOM     24  C   UNL     1       0.322   9.887  18.051  0.00  0.00    +0.000 C 
ATOM     25  N   UNL     1       1.333   9.613  19.079  0.00  0.00    +0.000 NA
ATOM     26  C   UNL     1       0.718   9.688  20.404  0.00  0.00    +0.000 C 
ENDBRANCH  23  25
ENDBRANCH  22  23
ENDBRANCH   1  22
TORSDOF 6
ENDMDL
MODEL 2
REMARK VINA RESULT:      -7.2      0.977      1.498
REMARK  Name = 
REMARK  8 active torsions:
REMARK  status: ('A' for Active; 'I' for Inactive)
REMARK    1  A    between atoms: C_1  and  N_2
REMARK    2  A    between atoms: N_2  and  C_3
REMARK    3  A    between atoms: N_2  and  C_4
REMARK    4  A    between atoms: C_4  and  C_5
REMARK    5  A    between atoms: C_5  and  N_6
REMARK    6  A    between atoms: C_8  and  C_9
REMARK    7  A    between atoms: N_12  and  C_13
REMARK    8  A    between atoms: C_13  and  C_14
REMARK                            x       y       z     vdW  Elec       q    Type
REMARK                         _______ _______ _______ _____ _____    ______ ____
ROOT
ATOM      1  N   UNL     1       2.852   6.327  19.446  0.00  0.00    +0.000 N 
ATOM      2  N   UNL     1       3.775   6.446  18.470  0.00  0.00    +0.000 NA
ATOM      3  C   UNL     1       4.356   5.238  18.411  0.00  0.00    +0.000 A 
ATOM      4  C   UNL     1       3.807   4.351  19.378  0.00  0.00    +0.000 A 
ATOM      5  C   UNL     1       4.006   3.026  19.799  0.00  0.00    +0.000 A 
ATOM      6  C   UNL     1       3.203   2.557  20.840  0.00  0.00    +0.000 A 
ATOM      7  C   UNL     1       2.255   3.405  21.400  0.00  0.00    +0.000 A 
ATOM      8  N   UNL     1       2.022   4.683  21.027  0.00  0.00    +0.000 NA
ATOM      9  C   UNL     1       2.824   5.090  20.022  0.00  0.00    +0.000 A 
ENDROOT
BRANCH   3  10
ATOM     10  C   UNL     1       5.474   4.975  17.432  0.00  0.00    +0.000 C 
ATOM     11  C   UNL     1       6.053   6.247  16.807  0.00  0.00    +0.000 C 
ATOM     12  C   UNL     1       5.259   6.370  15.518  0.00  0.00    +0.000 C 
ATOM     13  N   UNL     1       5.193   4.991  14.995  0.00  0.00    +0.000 NA
ATOM     14  C   UNL     1       5.017   4.154  16.206  0.00  0.00    +0.000 C 
BRANCH  13  15
ATOM     15  C   UNL     1       6.423   4.675  14.248  0.00  0.00    +0.000 C 
BRANCH  15  16
ATOM     16  C   UNL     1       6.224   3.734  13.081  0.00  0.00    +0.000 A 
ATOM     17  C   UNL     1       4.939   3.432  12.608  0.00  0.00    +0.000 A 
ATOM     18  C   UNL     1       4.773   2.633  11.475  0.00  0.00    +0.000 A 
ATOM     19  C   UNL     1       5.888   2.126  10.809  0.00  0.00    +0.000 A 
ATOM     20  C   UNL     1       7.169   2.406  11.278  0.00  0.00    +0.000 A 
ATOM     21  C   UNL     1       7.337   3.205  12.409  0.00  0.00    +0.000 A 
ENDBRANCH  15  16
ENDBRANCH  13  15
ENDBRANCH   3  10
BRANCH   1  22
ATOM     22  C   UNL     1       2.033   7.479  19.787  0.00  0.00    +0.000 C 
BRANCH  22  23
ATOM     23  C   UNL     1       2.021   8.526  18.668  0.00  0.00    +0.000 C 
BRANCH  23  25
ATOM     24  C   UNL     1       0.093   9.869  18.143  0.00  0.00    +0.000 C 
ATOM     25  N   UNL     1       1.285   9.771  18.994  0.00  0.00    +0.000 NA
ATOM     26  C   UNL     1       0.888   9.831  20.401  0.00  0.00    +0.000 C 
ENDBRANCH  23  25
ENDBRANCH  22  23
ENDBRANCH   1  22
TORSDOF 6
ENDMDL
MODEL 3
REMARK VINA RESULT:      -7.2      0.966      1.517
REMARK  Name = 
REMARK  8 active torsions:
REMARK  status: ('A' for Active; 'I' for Inactive)
REMARK    1  A    between atoms: C_1  and  N_2
REMARK    2  A    between atoms: N_2  and  C_3
REMARK    3  A    between atoms: N_2  and  C_4
REMARK    4  A    between atoms: C_4  and  C_5
REMARK    5  A    between atoms: C_5  and  N_6
REMARK    6  A    between atoms: C_8  and  C_9
REMARK    7  A    between atoms: N_12  and  C_13
REMARK    8  A    between atoms: C_13  and  C_14
REMARK                            x       y       z     vdW  Elec       q    Type
REMARK                         _______ _______ _______ _____ _____    ______ ____
ROOT
ATOM      1  N   UNL     1       2.219   5.975  20.307  0.00  0.00    +0.000 N 
ATOM      2  N   UNL     1       3.262   6.397  19.562  0.00  0.00    +0.000 NA
ATOM      3  C   UNL     1       3.927   5.275  19.252  0.00  0.00    +0.000 A 
ATOM      4  C   UNL     1       3.308   4.129  19.827  0.00  0.00    +0.000 A 
ATOM      5  C   UNL     1       3.536   2.745  19.877  0.00  0.00    +0.000 A 
ATOM      6  C   UNL     1       2.627   1.972  20.602  0.00  0.00    +0.000 A 
ATOM      7  C   UNL     1       1.553   2.595  21.226  0.00  0.00    +0.000 A 
ATOM      8  N   UNL     1       1.288   3.920  21.202  0.00  0.00    +0.000 NA
ATOM      9  C   UNL     1       2.195   4.624  20.493  0.00  0.00    +0.000 A 
ENDROOT
BRANCH   3  10
ATOM     10  C   UNL     1       5.188   5.337  18.426  0.00  0.00    +0.000 C 
ATOM     11  C   UNL     1       5.481   6.729  17.859  0.00  0.00    +0.000 C 
ATOM     12  C   UNL     1       4.851   6.660  16.479  0.00  0.00    +0.000 C 
ATOM     13  N   UNL     1       5.221   5.324  15.973  0.00  0.00    +0.000 NA
ATOM     14  C   UNL     1       5.124   4.448  17.165  0.00  0.00    +0.000 C 
BRANCH  13  15
ATOM     15  C   UNL     1       6.575   5.361  15.392  0.00  0.00    +0.000 C 
BRANCH  15  16
ATOM     16  C   UNL     1       6.694   4.699  14.037  0.00  0.00    +0.000 A 
ATOM     17  C   UNL     1       5.808   3.685  13.648  0.00  0.00    +0.000 A 
ATOM     18  C   UNL     1       5.872   3.145  12.362  0.00  0.00    +0.000 A 
ATOM     19  C   UNL     1       6.825   3.610  11.457  0.00  0.00    +0.000 A 
ATOM     20  C   UNL     1       7.721   4.606  11.836  0.00  0.00    +0.000 A 
ATOM     21  C   UNL     1       7.657   5.148  13.120  0.00  0.00    +0.000 A 
ENDBRANCH  15  16
ENDBRANCH  13  15
ENDBRANCH   3  10
BRANCH   1  22
ATOM     22  C   UNL     1       1.283   6.956  20.831  0.00  0.00    +0.000 C 
BRANCH  22  23
ATOM     23  C   UNL     1       1.494   8.341  20.209  0.00  0.00    +0.000 C 
BRANCH  23  25
ATOM     24  C   UNL     1      -0.312   8.978  21.667  0.00  0.00    +0.000 C 
ATOM     25  N   UNL     1       0.367   9.284  20.402  0.00  0.00    +0.000 NA
ATOM     26  C   UNL     1       0.803  10.680  20.404  0.00  0.00    +0.000 C 
ENDBRANCH  23  25
ENDBRANCH  22  23
ENDBRANCH   1  22
TORSDOF 6
ENDMDL
MODEL 4
REMARK VINA RESULT:      -7.2      2.977      9.039
REMARK  Name = 
REMARK  8 active torsions:
REMARK  status: ('A' for Active; 'I' for Inactive)
REMARK    1  A    between atoms: C_1  and  N_2
REMARK    2  A    between atoms: N_2  and  C_3
REMARK    3  A    between atoms: N_2  and  C_4
REMARK    4  A    between atoms: C_4  and  C_5
REMARK    5  A    between atoms: C_5  and  N_6
REMARK    6  A    between atoms: C_8  and  C_9
REMARK    7  A    between atoms: N_12  and  C_13
REMARK    8  A    between atoms: C_13  and  C_14
REMARK                            x       y       z     vdW  Elec       q    Type
REMARK                         _______ _______ _______ _____ _____    ______ ____
ROOT
ATOM      1  N   UNL     1       2.303   6.110  20.025  0.00  0.00    +0.000 N 
ATOM      2  N   UNL     1       1.658   7.278  20.222  0.00  0.00    +0.000 NA
ATOM      3  C   UNL     1       2.064   8.059  19.210  0.00  0.00    +0.000 A 
ATOM      4  C   UNL     1       2.995   7.383  18.374  0.00  0.00    +0.000 A 
ATOM      5  C   UNL     1       3.755   7.667  17.227  0.00  0.00    +0.000 A 
ATOM      6  C   UNL     1       4.579   6.652  16.738  0.00  0.00    +0.000 A 
ATOM      7  C   UNL     1       4.607   5.426  17.391  0.00  0.00    +0.000 A 
ATOM      8  N   UNL     1       3.892   5.103  18.492  0.00  0.00    +0.000 NA
ATOM      9  C   UNL     1       3.115   6.115  18.928  0.00  0.00    +0.000 A 
ENDROOT
BRANCH   3  10
ATOM     10  C   UNL     1       1.565   9.478  19.092  0.00  0.00    +0.000 C 
ATOM     11  C   UNL     1       0.933  10.015  20.380  0.00  0.00    +0.000 C 
ATOM     12  C   UNL     1      -0.542   9.719  20.170  0.00  0.00    +0.000 C 
ATOM     13  N   UNL     1      -0.790  10.079  18.760  0.00  0.00    +0.000 NA
ATOM     14  C   UNL     1       0.433   9.632  18.052  0.00  0.00    +0.000 C 
BRANCH  13  15
ATOM     15  C   UNL     1      -1.028  11.529  18.643  0.00  0.00    +0.000 C 
BRANCH  15  16
ATOM     16  C   UNL     1      -2.438  11.963  18.979  0.00  0.00    +0.000 A 
ATOM     17  C   UNL     1      -3.526  11.544  18.201  0.00  0.00    +0.000 A 
ATOM     18  C   UNL     1      -4.830  11.878  18.572  0.00  0.00    +0.000 A 
ATOM     19  C   UNL     1      -5.057  12.636  19.719  0.00  0.00    +0.000 A 
ATOM     20  C   UNL     1      -3.983  13.072  20.492  0.00  0.00    +0.000 A 
ATOM     21  C   UNL     1      -2.679  12.737  20.123  0.00  0.00    +0.000 A 
ENDBRANCH  15  16
ENDBRANCH  13  15
ENDBRANCH   3  10
BRANCH   1  22
ATOM     22  C   UNL     1       2.098   5.023  20.967  0.00  0.00    +0.000 C 
BRANCH  22  23
ATOM     23  C   UNL     1       1.039   4.029  20.474  0.00  0.00    +0.000 C 
BRANCH  23  25
ATOM     24  C   UNL     1       1.411   2.279  18.864  0.00  0.00    +0.000 C 
ATOM     25  N   UNL     1       1.533   2.645  20.280  0.00  0.00    +0.000 NA
ATOM     26  C   UNL     1       2.922   2.484  20.710  0.00  0.00    +0.000 C 
ENDBRANCH  23  25
ENDBRANCH  22  23
ENDBRANCH   1  22
TORSDOF 6
ENDMDL
MODEL 5
REMARK VINA RESULT:      -7.1      2.743      8.345
REMARK  Name = 
REMARK  8 active torsions:
REMARK  status: ('A' for Active; 'I' for Inactive)
REMARK    1  A    between atoms: C_1  and  N_2
REMARK    2  A    between atoms: N_2  and  C_3
REMARK    3  A    between atoms: N_2  and  C_4
REMARK    4  A    between atoms: C_4  and  C_5
REMARK    5  A    between atoms: C_5  and  N_6
REMARK    6  A    between atoms: C_8  and  C_9
REMARK    7  A    between atoms: N_12  and  C_13
REMARK    8  A    between atoms: C_13  and  C_14
REMARK                            x       y       z     vdW  Elec       q    Type
REMARK                         _______ _______ _______ _____ _____    ______ ____
ROOT
ATOM      1  N   UNL     1       2.601   6.204  19.514  0.00  0.00    +0.000 N 
ATOM      2  N   UNL     1       1.756   7.234  19.298  0.00  0.00    +0.000 NA
ATOM      3  C   UNL     1       2.266   7.867  18.232  0.00  0.00    +0.000 A 
ATOM      4  C   UNL     1       3.462   7.241  17.780  0.00  0.00    +0.000 A 
ATOM      5  C   UNL     1       4.419   7.442  16.772  0.00  0.00    +0.000 A 
ATOM      6  C   UNL     1       5.481   6.539  16.708  0.00  0.00    +0.000 A 
ATOM      7  C   UNL     1       5.541   5.496  17.624  0.00  0.00    +0.000 A 
ATOM      8  N   UNL     1       4.644   5.257  18.606  0.00  0.00    +0.000 NA
ATOM      9  C   UNL     1       3.639   6.158  18.630  0.00  0.00    +0.000 A 
ENDROOT
BRANCH   3  10
ATOM     10  C   UNL     1       1.599   9.105  17.687  0.00  0.00    +0.000 C 
ATOM     11  C   UNL     1       2.164  10.408  18.259  0.00  0.00    +0.000 C 
ATOM     12  C   UNL     1       1.228  10.690  19.421  0.00  0.00    +0.000 C 
ATOM     13  N   UNL     1      -0.115  10.380  18.893  0.00  0.00    +0.000 NA
ATOM     14  C   UNL     1       0.098   9.184  18.044  0.00  0.00    +0.000 C 
BRANCH  13  15
ATOM     15  C   UNL     1      -0.642  11.534  18.143  0.00  0.00    +0.000 C 
BRANCH  15  16
ATOM     16  C   UNL     1      -2.099  11.418  17.754  0.00  0.00    +0.000 A 
ATOM     17  C   UNL     1      -3.118  11.679  18.682  0.00  0.00    +0.000 A 
ATOM     18  C   UNL     1      -4.457  11.655  18.287  0.00  0.00    +0.000 A 
ATOM     19  C   UNL     1      -4.789  11.365  16.964  0.00  0.00    +0.000 A 
ATOM     20  C   UNL     1      -3.787  11.088  16.037  0.00  0.00    +0.000 A 
ATOM     21  C   UNL     1      -2.449  11.113  16.430  0.00  0.00    +0.000 A 
ENDBRANCH  15  16
ENDBRANCH  13  15
ENDBRANCH   3  10
BRANCH   1  22
ATOM     22  C   UNL     1       2.347   5.303  20.626  0.00  0.00    +0.000 C 
BRANCH  22  23
ATOM     23  C   UNL     1       1.078   4.470  20.412  0.00  0.00    +0.000 C 
BRANCH  23  25
ATOM     24  C   UNL     1       2.314   2.589  19.560  0.00  0.00    +0.000 C 
ATOM     25  N   UNL     1       1.276   3.004  20.510  0.00  0.00    +0.000 NA
ATOM     26  C   UNL     1       1.651   2.583  21.860  0.00  0.00    +0.000 C 
ENDBRANCH  23  25
ENDBRANCH  22  23
ENDBRANCH   1  22
TORSDOF 6
ENDMDL
MODEL 6
REMARK VINA RESULT:      -7.1      1.130      1.498
REMARK  Name = 
REMARK  8 active torsions:
REMARK  status: ('A' for Active; 'I' for Inactive)
REMARK    1  A    between atoms: C_1  and  N_2
REMARK    2  A    between atoms: N_2  and  C_3
REMARK    3  A    between atoms: N_2  and  C_4
REMARK    4  A    between atoms: C_4  and  C_5
REMARK    5  A    between atoms: C_5  and  N_6
REMARK    6  A    between atoms: C_8  and  C_9
REMARK    7  A    between atoms: N_12  and  C_13
REMARK    8  A    between atoms: C_13  and  C_14
REMARK                            x       y       z     vdW  Elec       q    Type
REMARK                         _______ _______ _______ _____ _____    ______ ____
ROOT
ATOM      1  N   UNL     1       2.119   6.459  20.199  0.00  0.00    +0.000 N 
ATOM      2  N   UNL     1       3.197   6.911  19.526  0.00  0.00    +0.000 NA
ATOM      3  C   UNL     1       3.781   5.803  19.046  0.00  0.00    +0.000 A 
ATOM      4  C   UNL     1       3.074   4.633  19.440  0.00  0.00    +0.000 A 
ATOM      5  C   UNL     1       3.200   3.243  19.277  0.00  0.00    +0.000 A 
ATOM      6  C   UNL     1       2.230   2.438  19.877  0.00  0.00    +0.000 A 
ATOM      7  C   UNL     1       1.198   3.036  20.591  0.00  0.00    +0.000 A 
ATOM      8  N   UNL     1       1.031   4.365  20.770  0.00  0.00    +0.000 NA
ATOM      9  C   UNL     1       1.994   5.100  20.176  0.00  0.00    +0.000 A 
ENDROOT
BRANCH   3  10
ATOM     10  C   UNL     1       5.051   5.898  18.238  0.00  0.00    +0.000 C 
ATOM     11  C   UNL     1       4.826   6.360  16.795  0.00  0.00    +0.000 C 
ATOM     12  C   UNL     1       4.714   5.045  16.043  0.00  0.00    +0.000 C 
ATOM     13  N   UNL     1       5.777   4.200  16.623  0.00  0.00    +0.000 NA
ATOM     14  C   UNL     1       5.756   4.535  18.067  0.00  0.00    +0.000 C 
BRANCH  13  15
ATOM     15  C   UNL     1       7.068   4.499  15.979  0.00  0.00    +0.000 C 
BRANCH  15  16
ATOM     16  C   UNL     1       7.028   4.507  14.467  0.00  0.00    +0.000 A 
ATOM     17  C   UNL     1       7.844   5.376  13.728  0.00  0.00    +0.000 A 
ATOM     18  C   UNL     1       7.863   5.313  12.333  0.00  0.00    +0.000 A 
ATOM     19  C   UNL     1       7.065   4.384  11.666  0.00  0.00    +0.000 A 
ATOM     20  C   UNL     1       6.239   3.527  12.388  0.00  0.00    +0.000 A 
ATOM     21  C   UNL     1       6.220   3.588  13.782  0.00  0.00    +0.000 A 
ENDBRANCH  15  16
ENDBRANCH  13  15
ENDBRANCH   3  10
BRANCH   1  22
ATOM     22  C   UNL     1       1.252   7.414  20.868  0.00  0.00    +0.000 C 
BRANCH  22  23
ATOM     23  C   UNL     1       1.104   8.713  20.069  0.00  0.00    +0.000 C 
BRANCH  23  25
ATOM     24  C   UNL     1      -0.413   9.153  21.886  0.00  0.00    +0.000 C 
ATOM     25  N   UNL     1       0.229   9.731  20.699  0.00  0.00    +0.000 NA
ATOM     26  C   UNL     1       0.963  10.938  21.078  0.00  0.00    +0.000 C 
ENDBRANCH  23  25
ENDBRANCH  22  23
ENDBRANCH   1  22
TORSDOF 6
ENDMDL
MODEL 7
REMARK VINA RESULT:      -7.1      1.776      8.210
REMARK  Name = 
REMARK  8 active torsions:
REMARK  status: ('A' for Active; 'I' for Inactive)
REMARK    1  A    between atoms: C_1  and  N_2
REMARK    2  A    between atoms: N_2  and  C_3
REMARK    3  A    between atoms: N_2  and  C_4
REMARK    4  A    between atoms: C_4  and  C_5
REMARK    5  A    between atoms: C_5  and  N_6
REMARK    6  A    between atoms: C_8  and  C_9
REMARK    7  A    between atoms: N_12  and  C_13
REMARK    8  A    between atoms: C_13  and  C_14
REMARK                            x       y       z     vdW  Elec       q    Type
REMARK                         _______ _______ _______ _____ _____    ______ ____
ROOT
ATOM      1  N   UNL     1       5.148   5.477  18.356  0.00  0.00    +0.000 N 
ATOM      2  N   UNL     1       4.274   6.474  18.109  0.00  0.00    +0.000 NA
ATOM      3  C   UNL     1       3.135   6.073  18.693  0.00  0.00    +0.000 A 
ATOM      4  C   UNL     1       3.286   4.794  19.299  0.00  0.00    +0.000 A 
ATOM      5  C   UNL     1       2.485   3.883  20.007  0.00  0.00    +0.000 A 
ATOM      6  C   UNL     1       3.083   2.691  20.419  0.00  0.00    +0.000 A 
ATOM      7  C   UNL     1       4.421   2.465  20.121  0.00  0.00    +0.000 A 
ATOM      8  N   UNL     1       5.233   3.311  19.449  0.00  0.00    +0.000 NA
ATOM      9  C   UNL     1       4.610   4.446  19.069  0.00  0.00    +0.000 A 
ENDROOT
BRANCH   3  10
ATOM     10  C   UNL     1       1.896   6.930  18.619  0.00  0.00    +0.000 C 
ATOM     11  C   UNL     1       1.991   8.058  17.588  0.00  0.00    +0.000 C 
ATOM     12  C   UNL     1       2.475   9.229  18.426  0.00  0.00    +0.000 C 
ATOM     13  N   UNL     1       1.691   9.136  19.672  0.00  0.00    +0.000 NA
ATOM     14  C   UNL     1       1.605   7.680  19.938  0.00  0.00    +0.000 C 
BRANCH  13  15
ATOM     15  C   UNL     1       0.372   9.768  19.488  0.00  0.00    +0.000 C 
BRANCH  15  16
ATOM     16  C   UNL     1      -0.220  10.362  20.746  0.00  0.00    +0.000 A 
ATOM     17  C   UNL     1      -0.946  11.561  20.707  0.00  0.00    +0.000 A 
ATOM     18  C   UNL     1      -1.563  12.052  21.859  0.00  0.00    +0.000 A 
ATOM     19  C   UNL     1      -1.457  11.352  23.060  0.00  0.00    +0.000 A 
ATOM     20  C   UNL     1      -0.726  10.168  23.116  0.00  0.00    +0.000 A 
ATOM     21  C   UNL     1      -0.110   9.675  21.965  0.00  0.00    +0.000 A 
ENDBRANCH  15  16
ENDBRANCH  13  15
ENDBRANCH   3  10
BRANCH   1  22
ATOM     22  C   UNL     1       6.503   5.582  17.842  0.00  0.00    +0.000 C 
BRANCH  22  23
ATOM     23  C   UNL     1       6.527   5.802  16.325  0.00  0.00    +0.000 C 
BRANCH  23  25
ATOM     24  C   UNL     1       5.827   3.621  15.586  0.00  0.00    +0.000 C 
ATOM     25  N   UNL     1       6.911   4.609  15.534  0.00  0.00    +0.000 NA
ATOM     26  C   UNL     1       7.209   4.937  14.140  0.00  0.00    +0.000 C 
ENDBRANCH  23  25
ENDBRANCH  22  23
ENDBRANCH   1  22
TORSDOF 6
ENDMDL
MODEL 8
REMARK VINA RESULT:      -7.0      2.807      8.395
REMARK  Name = 
REMARK  8 active torsions:
REMARK  status: ('A' for Active; 'I' for Inactive)
REMARK    1  A    between atoms: C_1  and  N_2
REMARK    2  A    between atoms: N_2  and  C_3
REMARK    3  A    between atoms: N_2  and  C_4
REMARK    4  A    between atoms: C_4  and  C_5
REMARK    5  A    between atoms: C_5  and  N_6
REMARK    6  A    between atoms: C_8  and  C_9
REMARK    7  A    between atoms: N_12  and  C_13
REMARK    8  A    between atoms: C_13  and  C_14
REMARK                            x       y       z     vdW  Elec       q    Type
REMARK                         _______ _______ _______ _____ _____    ______ ____
ROOT
ATOM      1  N   UNL     1       2.513   6.312  19.606  0.00  0.00    +0.000 N 
ATOM      2  N   UNL     1       1.691   7.359  19.384  0.00  0.00    +0.000 NA
ATOM      3  C   UNL     1       2.210   7.969  18.308  0.00  0.00    +0.000 A 
ATOM      4  C   UNL     1       3.388   7.312  17.857  0.00  0.00    +0.000 A 
ATOM      5  C   UNL     1       4.344   7.481  16.843  0.00  0.00    +0.000 A 
ATOM      6  C   UNL     1       5.386   6.553  16.783  0.00  0.00    +0.000 A 
ATOM      7  C   UNL     1       5.427   5.519  17.709  0.00  0.00    +0.000 A 
ATOM      8  N   UNL     1       4.529   5.310  18.698  0.00  0.00    +0.000 NA
ATOM      9  C   UNL     1       3.546   6.234  18.717  0.00  0.00    +0.000 A 
ENDROOT
BRANCH   3  10
ATOM     10  C   UNL     1       1.567   9.217  17.754  0.00  0.00    +0.000 C 
ATOM     11  C   UNL     1       2.100  10.509  18.379  0.00  0.00    +0.000 C 
ATOM     12  C   UNL     1       1.106  10.767  19.498  0.00  0.00    +0.000 C 
ATOM     13  N   UNL     1      -0.208  10.466  18.897  0.00  0.00    +0.000 NA
ATOM     14  C   UNL     1       0.050   9.286  18.037  0.00  0.00    +0.000 C 
BRANCH  13  15
ATOM     15  C   UNL     1      -0.700  11.633  18.143  0.00  0.00    +0.000 C 
BRANCH  15  16
ATOM     16  C   UNL     1      -2.164  11.570  17.771  0.00  0.00    +0.000 A 
ATOM     17  C   UNL     1      -2.566  11.197  16.480  0.00  0.00    +0.000 A 
ATOM     18  C   UNL     1      -3.921  11.056  16.175  0.00  0.00    +0.000 A 
ATOM     19  C   UNL     1      -4.885  11.289  17.155  0.00  0.00    +0.000 A 
ATOM     20  C   UNL     1      -4.499  11.675  18.436  0.00  0.00    +0.000 A 
ATOM     21  C   UNL     1      -3.146  11.815  18.744  0.00  0.00    +0.000 A 
ENDBRANCH  15  16
ENDBRANCH  13  15
ENDBRANCH   3  10
BRANCH   1  22
ATOM     22  C   UNL     1       2.245   5.429  20.728  0.00  0.00    +0.000 C 
BRANCH  22  23
ATOM     23  C   UNL     1       1.249   4.322  20.362  0.00  0.00    +0.000 C 
BRANCH  23  25
ATOM     24  C   UNL     1       2.799   2.500  20.095  0.00  0.00    +0.000 C 
ATOM     25  N   UNL     1       1.774   3.305  19.420  0.00  0.00    +0.000 NA
ATOM     26  C   UNL     1       0.722   2.429  18.905  0.00  0.00    +0.000 C 
ENDBRANCH  23  25
ENDBRANCH  22  23
ENDBRANCH   1  22
TORSDOF 6
ENDMDL
MODEL 9
REMARK VINA RESULT:      -7.0      1.328      1.847
REMARK  Name = 
REMARK  8 active torsions:
REMARK  status: ('A' for Active; 'I' for Inactive)
REMARK    1  A    between atoms: C_1  and  N_2
REMARK    2  A    between atoms: N_2  and  C_3
REMARK    3  A    between atoms: N_2  and  C_4
REMARK    4  A    between atoms: C_4  and  C_5
REMARK    5  A    between atoms: C_5  and  N_6
REMARK    6  A    between atoms: C_8  and  C_9
REMARK    7  A    between atoms: N_12  and  C_13
REMARK    8  A    between atoms: C_13  and  C_14
REMARK                            x       y       z     vdW  Elec       q    Type
REMARK                         _______ _______ _______ _____ _____    ______ ____
ROOT
ATOM      1  N   UNL     1       1.925   6.359  20.255  0.00  0.00    +0.000 N 
ATOM      2  N   UNL     1       2.979   6.879  19.592  0.00  0.00    +0.000 NA
ATOM      3  C   UNL     1       3.618   5.813  19.090  0.00  0.00    +0.000 A 
ATOM      4  C   UNL     1       2.972   4.600  19.458  0.00  0.00    +0.000 A 
ATOM      5  C   UNL     1       3.167   3.222  19.266  0.00  0.00    +0.000 A 
ATOM      6  C   UNL     1       2.239   2.357  19.848  0.00  0.00    +0.000 A 
ATOM      7  C   UNL     1       1.179   2.886  20.573  0.00  0.00    +0.000 A 
ATOM      8  N   UNL     1       0.945   4.201  20.781  0.00  0.00    +0.000 NA
ATOM      9  C   UNL     1       1.870   4.996  20.203  0.00  0.00    +0.000 A 
ENDROOT
BRANCH   3  10
ATOM     10  C   UNL     1       4.882   5.989  18.285  0.00  0.00    +0.000 C 
ATOM     11  C   UNL     1       4.631   6.428  16.839  0.00  0.00    +0.000 C 
ATOM     12  C   UNL     1       4.610   5.106  16.093  0.00  0.00    +0.000 C 
ATOM     13  N   UNL     1       5.724   4.336  16.679  0.00  0.00    +0.000 NA
ATOM     14  C   UNL     1       5.677   4.675  18.122  0.00  0.00    +0.000 C 
BRANCH  13  15
ATOM     15  C   UNL     1       6.995   4.717  16.037  0.00  0.00    +0.000 C 
BRANCH  15  16
ATOM     16  C   UNL     1       7.022   4.527  14.537  0.00  0.00    +0.000 A 
ATOM     17  C   UNL     1       6.212   3.566  13.916  0.00  0.00    +0.000 A 
ATOM     18  C   UNL     1       6.180   3.461  12.524  0.00  0.00    +0.000 A 
ATOM     19  C   UNL     1       6.960   4.312  11.742  0.00  0.00    +0.000 A 
ATOM     20  C   UNL     1       7.781   5.260  12.348  0.00  0.00    +0.000 A 
ATOM     21  C   UNL     1       7.812   5.368  13.738  0.00  0.00    +0.000 A 
ENDBRANCH  15  16
ENDBRANCH  13  15
ENDBRANCH   3  10
BRANCH   1  22
ATOM     22  C   UNL     1       1.012   7.254  20.944  0.00  0.00    +0.000 C 
BRANCH  22  23
ATOM     23  C   UNL     1       1.700   8.553  21.378  0.00  0.00    +0.000 C 
BRANCH  23  25
ATOM     24  C   UNL     1       0.478  10.568  20.886  0.00  0.00    +0.000 C 
ATOM     25  N   UNL     1       0.786   9.583  21.929  0.00  0.00    +0.000 NA
ATOM     26  C   UNL     1      -0.457   9.007  22.442  0.00  0.00    +0.000 C 
ENDBRANCH  23  25
ENDBRANCH  22  23
ENDBRANCH   1  22
TORSDOF 6
ENDMDL
