MODEL 1
REMARK VINA RESULT:      -8.3      0.000      0.000
REMARK  Name = 
REMARK  5 active torsions:
REMARK  status: ('A' for Active; 'I' for Inactive)
REMARK    1  A    between atoms: C_2  and  C_3
REMARK    2  A    between atoms: C_3  and  C_4
REMARK    3  A    between atoms: C_7  and  C_8
REMARK    4  A    between atoms: N_15  and  C_16
REMARK    5  A    between atoms: C_19  and  N_20
REMARK                            x       y       z     vdW  Elec       q    Type
REMARK                         _______ _______ _______ _____ _____    ______ ____
ROOT
ATOM      1  O   UNL     1       1.384   4.463  18.582  0.00  0.00    +0.000 OA
ATOM      2  C   UNL     1       2.593   4.699  18.545  0.00  0.00    +0.000 C 
ATOM      3  N   UNL     1       3.164   5.963  18.534  0.00  0.00    +0.000 N 
ATOM      4  H   UNL     1       4.142   6.040  18.280  0.00  0.00    +0.000 HD
ENDROOT
BRANCH   3   5
ATOM      5  C   UNL     1       2.483   7.177  18.776  0.00  0.00    +0.000 A 
ATOM      6  C   UNL     1       2.205   8.102  17.773  0.00  0.00    +0.000 A 
ATOM      7  C   UNL     1       1.483   9.270  18.051  0.00  0.00    +0.000 A 
ATOM      8  C   UNL     1       1.021   9.563  19.337  0.00  0.00    +0.000 A 
ATOM      9  C   UNL     1       1.320   8.627  20.340  0.00  0.00    +0.000 A 
ATOM     10  C   UNL     1       2.023   7.442  20.066  0.00  0.00    +0.000 A 
BRANCH   8  11
ATOM     11  N   UNL     1       0.253  10.679  19.619  0.00  0.00    +0.000 N 
ATOM     12  C   UNL     1      -1.165  10.768  19.227  0.00  0.00    +0.000 C 
ATOM     13  C   UNL     1      -1.361  11.739  18.057  0.00  0.00    +0.000 C 
ATOM     14  O   UNL     1      -0.798  13.028  18.347  0.00  0.00    +0.000 OA
ATOM     15  C   UNL     1       0.613  12.905  18.590  0.00  0.00    +0.000 C 
ATOM     16  C   UNL     1       0.912  11.988  19.790  0.00  0.00    +0.000 C 
ENDBRANCH   8  11
ENDBRANCH   3   5
BRANCH   2  17
ATOM     17  C   UNL     1       3.593   3.559  18.468  0.00  0.00    +0.000 C 
BRANCH  17  18
ATOM     18  C   UNL     1       4.861   3.994  17.805  0.00  0.00    +0.000 A 
ATOM     19  C   UNL     1       6.023   4.401  18.433  0.00  0.00    +0.000 A 
ATOM     20  S   UNL     1       7.221   4.781  17.276  0.00  0.00    +0.000 S 
ATOM     21  C   UNL     1       6.134   4.350  16.009  0.00  0.00    +0.000 A 
ATOM     22  N   UNL     1       4.932   3.982  16.417  0.00  0.00    +0.000 NA
BRANCH  21  23
ATOM     23  C   UNL     1       6.539   4.436  14.601  0.00  0.00    +0.000 A 
ATOM     24  C   UNL     1       5.965   3.588  13.648  0.00  0.00    +0.000 A 
ATOM     25  C   UNL     1       6.354   3.667  12.309  0.00  0.00    +0.000 A 
ATOM     26  C   UNL     1       7.319   4.595  11.959  0.00  0.00    +0.000 A 
ATOM     27  N   UNL     1       7.909   5.426  12.844  0.00  0.00    +0.000 NA
ATOM     28  C   UNL     1       7.508   5.324  14.137  0.00  0.00    +0.000 A 
ENDBRANCH  21  23
ENDBRANCH  17  18
ENDBRANCH   2  17
TORSDOF 5
ENDMDL
MODEL 2
REMARK VINA RESULT:      -8.1      0.880      1.620
REMARK  Name = 
REMARK  5 active torsions:
REMARK  status: ('A' for Active; 'I' for Inactive)
REMARK    1  A    between atoms: C_2  and  C_3
REMARK    2  A    between atoms: C_3  and  C_4
REMARK    3  A    between atoms: C_7  and  C_8
REMARK    4  A    between atoms: N_15  and  C_16
REMARK    5  A    between atoms: C_19  and  N_20
REMARK                            x       y       z     vdW  Elec       q    Type
REMARK                         _______ _______ _______ _____ _____    ______ ____
ROOT
ATOM      1  O   UNL     1       1.445   4.762  17.968  0.00  0.00    +0.000 OA
ATOM      2  C   UNL     1       2.607   4.937  18.337  0.00  0.00    +0.000 C 
ATOM      3  N   UNL     1       3.164   6.161  18.679  0.00  0.00    +0.000 N 
ATOM      4  H   UNL     1       4.173   6.220  18.750  0.00  0.00    +0.000 HD
ENDROOT
BRANCH   3   5
ATOM      5  C   UNL     1       2.452   7.367  18.866  0.00  0.00    +0.000 A 
ATOM      6  C   UNL     1       1.811   7.690  20.059  0.00  0.00    +0.000 A 
ATOM      7  C   UNL     1       1.158   8.920  20.216  0.00  0.00    +0.000 A 
ATOM      8  C   UNL     1       1.112   9.866  19.188  0.00  0.00    +0.000 A 
ATOM      9  C   UNL     1       1.751   9.520  17.987  0.00  0.00    +0.000 A 
ATOM     10  C   UNL     1       2.428   8.300  17.828  0.00  0.00    +0.000 A 
BRANCH   8  11
ATOM     11  N   UNL     1       0.526  11.110  19.343  0.00  0.00    +0.000 N 
ATOM     12  C   UNL     1       1.246  12.355  19.021  0.00  0.00    +0.000 C 
ATOM     13  C   UNL     1       1.648  13.113  20.292  0.00  0.00    +0.000 C 
ATOM     14  O   UNL     1       0.514  13.348  21.141  0.00  0.00    +0.000 OA
ATOM     15  C   UNL     1      -0.072  12.097  21.537  0.00  0.00    +0.000 C 
ATOM     16  C   UNL     1      -0.561  11.282  20.325  0.00  0.00    +0.000 C 
ENDBRANCH   8  11
ENDBRANCH   3   5
BRANCH   2  17
ATOM     17  C   UNL     1       3.571   3.767  18.412  0.00  0.00    +0.000 C 
BRANCH  17  18
ATOM     18  C   UNL     1       4.873   4.094  17.753  0.00  0.00    +0.000 A 
ATOM     19  C   UNL     1       6.072   4.371  18.383  0.00  0.00    +0.000 A 
ATOM     20  S   UNL     1       7.296   4.662  17.229  0.00  0.00    +0.000 S 
ATOM     21  C   UNL     1       6.168   4.370  15.958  0.00  0.00    +0.000 A 
ATOM     22  N   UNL     1       4.938   4.110  16.365  0.00  0.00    +0.000 NA
BRANCH  21  23
ATOM     23  C   UNL     1       6.574   4.452  14.551  0.00  0.00    +0.000 A 
ATOM     24  C   UNL     1       6.011   3.591  13.602  0.00  0.00    +0.000 A 
ATOM     25  C   UNL     1       6.401   3.666  12.264  0.00  0.00    +0.000 A 
ATOM     26  C   UNL     1       7.356   4.602  11.909  0.00  0.00    +0.000 A 
ATOM     27  N   UNL     1       7.936   5.445  12.789  0.00  0.00    +0.000 NA
ATOM     28  C   UNL     1       7.534   5.347  14.083  0.00  0.00    +0.000 A 
ENDBRANCH  21  23
ENDBRANCH  17  18
ENDBRANCH   2  17
TORSDOF 5
ENDMDL
MODEL 3
REMARK VINA RESULT:      -8.0      0.882      1.551
REMARK  Name = 
REMARK  5 active torsions:
REMARK  status: ('A' for Active; 'I' for Inactive)
REMARK    1  A    between atoms: C_2  and  C_3
REMARK    2  A    between atoms: C_3  and  C_4
REMARK    3  A    between atoms: C_7  and  C_8
REMARK    4  A    between atoms: N_15  and  C_16
REMARK    5  A    between atoms: C_19  and  N_20
REMARK                            x       y       z     vdW  Elec       q    Type
REMARK                         _______ _______ _______ _____ _____    ______ ____
ROOT
ATOM      1  O   UNL     1       1.715   5.146  17.628  0.00  0.00    +0.000 OA
ATOM      2  C   UNL     1       2.699   5.258  18.361  0.00  0.00    +0.000 C 
ATOM      3  N   UNL     1       3.070   6.414  19.034  0.00  0.00    +0.000 N 
ATOM      4  H   UNL     1       4.005   6.456  19.423  0.00  0.00    +0.000 HD
ENDROOT
BRANCH   3   5
ATOM      5  C   UNL     1       2.284   7.580  19.164  0.00  0.00    +0.000 A 
ATOM      6  C   UNL     1       1.668   7.949  20.357  0.00  0.00    +0.000 A 
ATOM      7  C   UNL     1       0.938   9.141  20.453  0.00  0.00    +0.000 A 
ATOM      8  C   UNL     1       0.787  10.001  19.362  0.00  0.00    +0.000 A 
ATOM      9  C   UNL     1       1.402   9.610  18.162  0.00  0.00    +0.000 A 
ATOM     10  C   UNL     1       2.155   8.428  18.064  0.00  0.00    +0.000 A 
BRANCH   8  11
ATOM     11  N   UNL     1       0.123  11.212  19.452  0.00  0.00    +0.000 N 
ATOM     12  C   UNL     1      -0.067  11.902  20.741  0.00  0.00    +0.000 C 
ATOM     13  C   UNL     1      -1.523  11.815  21.212  0.00  0.00    +0.000 C 
ATOM     14  O   UNL     1      -2.428  12.294  20.204  0.00  0.00    +0.000 OA
ATOM     15  C   UNL     1      -2.299  11.502  19.012  0.00  0.00    +0.000 C 
ATOM     16  C   UNL     1      -0.876  11.569  18.427  0.00  0.00    +0.000 C 
ENDBRANCH   8  11
ENDBRANCH   3   5
BRANCH   2  17
ATOM     17  C   UNL     1       3.642   4.085  18.561  0.00  0.00    +0.000 C 
BRANCH  17  18
ATOM     18  C   UNL     1       4.945   4.313  17.862  0.00  0.00    +0.000 A 
ATOM     19  C   UNL     1       6.173   4.534  18.456  0.00  0.00    +0.000 A 
ATOM     20  S   UNL     1       7.384   4.716  17.265  0.00  0.00    +0.000 S 
ATOM     21  C   UNL     1       6.208   4.456  16.030  0.00  0.00    +0.000 A 
ATOM     22  N   UNL     1       4.975   4.284  16.473  0.00  0.00    +0.000 NA
BRANCH  21  23
ATOM     23  C   UNL     1       6.583   4.472  14.612  0.00  0.00    +0.000 A 
ATOM     24  C   UNL     1       5.995   3.573  13.715  0.00  0.00    +0.000 A 
ATOM     25  C   UNL     1       6.355   3.585  12.367  0.00  0.00    +0.000 A 
ATOM     26  C   UNL     1       7.307   4.498  11.949  0.00  0.00    +0.000 A 
ATOM     27  N   UNL     1       7.910   5.377  12.777  0.00  0.00    +0.000 NA
ATOM     28  C   UNL     1       7.538   5.339  14.083  0.00  0.00    +0.000 A 
ENDBRANCH  21  23
ENDBRANCH  17  18
ENDBRANCH   2  17
TORSDOF 5
ENDMDL
MODEL 4
REMARK VINA RESULT:      -8.0      1.800      2.542
REMARK  Name = 
REMARK  5 active torsions:
REMARK  status: ('A' for Active; 'I' for Inactive)
REMARK    1  A    between atoms: C_2  and  C_3
REMARK    2  A    between atoms: C_3  and  C_4
REMARK    3  A    between atoms: C_7  and  C_8
REMARK    4  A    between atoms: N_15  and  C_16
REMARK    5  A    between atoms: C_19  and  N_20
REMARK                            x       y       z     vdW  Elec       q    Type
REMARK                         _______ _______ _______ _____ _____    ______ ____
ROOT
ATOM      1  O   UNL     1       0.510   5.096  20.511  0.00  0.00    +0.000 OA
ATOM      2  C   UNL     1       1.711   5.293  20.705  0.00  0.00    +0.000 C 
ATOM      3  N   UNL     1       2.342   6.527  20.636  0.00  0.00    +0.000 N 
ATOM      4  H   UNL     1       3.355   6.539  20.593  0.00  0.00    +0.000 HD
ENDROOT
BRANCH   3   5
ATOM      5  C   UNL     1       1.696   7.779  20.543  0.00  0.00    +0.000 A 
ATOM      6  C   UNL     1       1.121   8.419  21.637  0.00  0.00    +0.000 A 
ATOM      7  C   UNL     1       0.534   9.684  21.507  0.00  0.00    +0.000 A 
ATOM      8  C   UNL     1       0.489  10.352  20.280  0.00  0.00    +0.000 A 
ATOM      9  C   UNL     1       1.061   9.690  19.182  0.00  0.00    +0.000 A 
ATOM     10  C   UNL     1       1.672   8.431  19.309  0.00  0.00    +0.000 A 
BRANCH   8  11
ATOM     11  N   UNL     1      -0.031  11.628  20.143  0.00  0.00    +0.000 N 
ATOM     12  C   UNL     1      -1.368  11.866  19.571  0.00  0.00    +0.000 C 
ATOM     13  C   UNL     1      -1.273  12.462  18.161  0.00  0.00    +0.000 C 
ATOM     14  O   UNL     1      -0.460  13.646  18.148  0.00  0.00    +0.000 OA
ATOM     15  C   UNL     1       0.871  13.333  18.587  0.00  0.00    +0.000 C 
ATOM     16  C   UNL     1       0.888  12.775  20.022  0.00  0.00    +0.000 C 
ENDBRANCH   8  11
ENDBRANCH   3   5
BRANCH   2  17
ATOM     17  C   UNL     1       2.636   4.131  21.016  0.00  0.00    +0.000 C 
BRANCH  17  18
ATOM     18  C   UNL     1       3.167   3.510  19.762  0.00  0.00    +0.000 A 
ATOM     19  C   UNL     1       2.826   2.275  19.244  0.00  0.00    +0.000 A 
ATOM     20  S   UNL     1       3.661   1.994  17.781  0.00  0.00    +0.000 S 
ATOM     21  C   UNL     1       4.401   3.547  17.906  0.00  0.00    +0.000 A 
ATOM     22  N   UNL     1       4.079   4.223  18.994  0.00  0.00    +0.000 NA
BRANCH  21  23
ATOM     23  C   UNL     1       5.338   4.024  16.882  0.00  0.00    +0.000 A 
ATOM     24  C   UNL     1       5.003   3.941  15.525  0.00  0.00    +0.000 A 
ATOM     25  C   UNL     1       5.896   4.390  14.551  0.00  0.00    +0.000 A 
ATOM     26  C   UNL     1       7.112   4.908  14.962  0.00  0.00    +0.000 A 
ATOM     27  N   UNL     1       7.483   4.998  16.256  0.00  0.00    +0.000 NA
ATOM     28  C   UNL     1       6.592   4.552  17.179  0.00  0.00    +0.000 A 
ENDBRANCH  21  23
ENDBRANCH  17  18
ENDBRANCH   2  17
TORSDOF 5
ENDMDL
MODEL 5
REMARK VINA RESULT:      -8.0      1.882      2.571
REMARK  Name = 
REMARK  5 active torsions:
REMARK  status: ('A' for Active; 'I' for Inactive)
REMARK    1  A    between atoms: C_2  and  C_3
REMARK    2  A    between atoms: C_3  and  C_4
REMARK    3  A    between atoms: C_7  and  C_8
REMARK    4  A    between atoms: N_15  and  C_16
REMARK    5  A    between atoms: C_19  and  N_20
REMARK                            x       y       z     vdW  Elec       q    Type
REMARK                         _______ _______ _______ _____ _____    ______ ____
ROOT
ATOM      1  O   UNL     1       0.541   5.312  20.500  0.00  0.00    +0.000 OA
ATOM      2  C   UNL     1       1.759   5.466  20.603  0.00  0.00    +0.000 C 
ATOM      3  N   UNL     1       2.445   6.642  20.335  0.00  0.00    +0.000 N 
ATOM      4  H   UNL     1       3.452   6.593  20.238  0.00  0.00    +0.000 HD
ENDROOT
BRANCH   3   5
ATOM      5  C   UNL     1       1.855   7.906  20.108  0.00  0.00    +0.000 A 
ATOM      6  C   UNL     1       1.842   8.523  18.860  0.00  0.00    +0.000 A 
ATOM      7  C   UNL     1       1.202   9.754  18.672  0.00  0.00    +0.000 A 
ATOM      8  C   UNL     1       0.561  10.420  19.721  0.00  0.00    +0.000 A 
ATOM      9  C   UNL     1       0.593   9.792  20.976  0.00  0.00    +0.000 A 
ATOM     10  C   UNL     1       1.213   8.546  21.169  0.00  0.00    +0.000 A 
BRANCH   8  11
ATOM     11  N   UNL     1      -0.130  11.606  19.542  0.00  0.00    +0.000 N 
ATOM     12  C   UNL     1      -0.414  12.518  20.664  0.00  0.00    +0.000 C 
ATOM     13  C   UNL     1      -1.896  12.477  21.056  0.00  0.00    +0.000 C 
ATOM     14  O   UNL     1      -2.743  12.732  19.924  0.00  0.00    +0.000 OA
ATOM     15  C   UNL     1      -2.524  11.735  18.912  0.00  0.00    +0.000 C 
ATOM     16  C   UNL     1      -1.068  11.735  18.411  0.00  0.00    +0.000 C 
ENDBRANCH   8  11
ENDBRANCH   3   5
BRANCH   2  17
ATOM     17  C   UNL     1       2.645   4.305  21.018  0.00  0.00    +0.000 C 
BRANCH  17  18
ATOM     18  C   UNL     1       3.233   3.619  19.826  0.00  0.00    +0.000 A 
ATOM     19  C   UNL     1       3.006   2.315  19.428  0.00  0.00    +0.000 A 
ATOM     20  S   UNL     1       3.869   1.973  17.994  0.00  0.00    +0.000 S 
ATOM     21  C   UNL     1       4.467   3.590  17.969  0.00  0.00    +0.000 A 
ATOM     22  N   UNL     1       4.082   4.335  18.990  0.00  0.00    +0.000 NA
BRANCH  21  23
ATOM     23  C   UNL     1       5.362   4.050  16.900  0.00  0.00    +0.000 A 
ATOM     24  C   UNL     1       4.915   4.096  15.575  0.00  0.00    +0.000 A 
ATOM     25  C   UNL     1       5.767   4.529  14.558  0.00  0.00    +0.000 A 
ATOM     26  C   UNL     1       7.056   4.901  14.895  0.00  0.00    +0.000 A 
ATOM     27  N   UNL     1       7.536   4.864  16.156  0.00  0.00    +0.000 NA
ATOM     28  C   UNL     1       6.682   4.438  17.122  0.00  0.00    +0.000 A 
ENDBRANCH  21  23
ENDBRANCH  17  18
ENDBRANCH   2  17
TORSDOF 5
ENDMDL
MODEL 6
REMARK VINA RESULT:      -7.9      6.256      7.468
REMARK  Name = 
REMARK  5 active torsions:
REMARK  status: ('A' for Active; 'I' for Inactive)
REMARK    1  A    between atoms: C_2  and  C_3
REMARK    2  A    between atoms: C_3  and  C_4
REMARK    3  A    between atoms: C_7  and  C_8
REMARK    4  A    between atoms: N_15  and  C_16
REMARK    5  A    between atoms: C_19  and  N_20
REMARK                            x       y       z     vdW  Elec       q    Type
REMARK                         _______ _______ _______ _____ _____    ______ ____
ROOT
ATOM      1  O   UNL     1       7.392   8.457  17.383  0.00  0.00    +0.000 OA
ATOM      2  C   UNL     1       8.086   7.986  18.286  0.00  0.00    +0.000 C 
ATOM      3  N   UNL     1       8.998   8.699  19.050  0.00  0.00    +0.000 N 
ATOM      4  H   UNL     1       9.665   8.174  19.604  0.00  0.00    +0.000 HD
ENDROOT
BRANCH   3   5
ATOM      5  C   UNL     1       9.134  10.105  19.073  0.00  0.00    +0.000 A 
ATOM      6  C   UNL     1       9.039  10.893  17.929  0.00  0.00    +0.000 A 
ATOM      7  C   UNL     1       9.132  12.289  18.006  0.00  0.00    +0.000 A 
ATOM      8  C   UNL     1       9.332  12.948  19.222  0.00  0.00    +0.000 A 
ATOM      9  C   UNL     1       9.439  12.139  20.365  0.00  0.00    +0.000 A 
ATOM     10  C   UNL     1       9.324  10.741  20.300  0.00  0.00    +0.000 A 
BRANCH   8  11
ATOM     11  N   UNL     1       9.364  14.327  19.328  0.00  0.00    +0.000 N 
ATOM     12  C   UNL     1       8.133  15.137  19.324  0.00  0.00    +0.000 C 
ATOM     13  C   UNL     1       7.969  15.898  18.002  0.00  0.00    +0.000 C 
ATOM     14  O   UNL     1       9.134  16.683  17.704  0.00  0.00    +0.000 OA
ATOM     15  C   UNL     1      10.284  15.831  17.586  0.00  0.00    +0.000 C 
ATOM     16  C   UNL     1      10.566  15.060  18.889  0.00  0.00    +0.000 C 
ENDBRANCH   8  11
ENDBRANCH   3   5
BRANCH   2  17
ATOM     17  C   UNL     1       8.011   6.506  18.616  0.00  0.00    +0.000 C 
BRANCH  17  18
ATOM     18  C   UNL     1       7.007   5.809  17.753  0.00  0.00    +0.000 A 
ATOM     19  C   UNL     1       7.102   5.584  16.393  0.00  0.00    +0.000 A 
ATOM     20  S   UNL     1       5.733   4.727  15.836  0.00  0.00    +0.000 S 
ATOM     21  C   UNL     1       5.110   4.677  17.444  0.00  0.00    +0.000 A 
ATOM     22  N   UNL     1       5.856   5.297  18.341  0.00  0.00    +0.000 NA
BRANCH  21  23
ATOM     23  C   UNL     1       3.832   4.022  17.741  0.00  0.00    +0.000 A 
ATOM     24  C   UNL     1       2.657   4.776  17.837  0.00  0.00    +0.000 A 
ATOM     25  C   UNL     1       1.441   4.154  18.124  0.00  0.00    +0.000 A 
ATOM     26  C   UNL     1       1.434   2.783  18.317  0.00  0.00    +0.000 A 
ATOM     27  N   UNL     1       2.541   2.016  18.245  0.00  0.00    +0.000 NA
ATOM     28  C   UNL     1       3.708   2.652  17.964  0.00  0.00    +0.000 A 
ENDBRANCH  21  23
ENDBRANCH  17  18
ENDBRANCH   2  17
TORSDOF 5
ENDMDL
MODEL 7
REMARK VINA RESULT:      -7.8      6.836      7.414
REMARK  Name = 
REMARK  5 active torsions:
REMARK  status: ('A' for Active; 'I' for Inactive)
REMARK    1  A    between atoms: C_2  and  C_3
REMARK    2  A    between atoms: C_3  and  C_4
REMARK    3  A    between atoms: C_7  and  C_8
REMARK    4  A    between atoms: N_15  and  C_16
REMARK    5  A    between atoms: C_19  and  N_20
REMARK                            x       y       z     vdW  Elec       q    Type
REMARK                         _______ _______ _______ _____ _____    ______ ____
ROOT
ATOM      1  O   UNL     1       7.518   8.683  17.378  0.00  0.00    +0.000 OA
ATOM      2  C   UNL     1       8.154   8.189  18.312  0.00  0.00    +0.000 C 
ATOM      3  N   UNL     1       9.034   8.877  19.134  0.00  0.00    +0.000 N 
ATOM      4  H   UNL     1       9.661   8.334  19.717  0.00  0.00    +0.000 HD
ENDROOT
BRANCH   3   5
ATOM      5  C   UNL     1       9.193  10.280  19.182  0.00  0.00    +0.000 A 
ATOM      6  C   UNL     1       9.422  10.976  20.366  0.00  0.00    +0.000 A 
ATOM      7  C   UNL     1       9.622  12.363  20.359  0.00  0.00    +0.000 A 
ATOM      8  C   UNL     1       9.591  13.105  19.175  0.00  0.00    +0.000 A 
ATOM      9  C   UNL     1       9.346  12.392  17.991  0.00  0.00    +0.000 A 
ATOM     10  C   UNL     1       9.167  10.999  17.986  0.00  0.00    +0.000 A 
BRANCH   8  11
ATOM     11  N   UNL     1       9.848  14.465  19.139  0.00  0.00    +0.000 N 
ATOM     12  C   UNL     1       9.818  15.230  17.880  0.00  0.00    +0.000 C 
ATOM     13  C   UNL     1      11.231  15.617  17.428  0.00  0.00    +0.000 C 
ATOM     14  O   UNL     1      11.940  16.312  18.466  0.00  0.00    +0.000 OA
ATOM     15  C   UNL     1      12.060  15.472  19.626  0.00  0.00    +0.000 C 
ATOM     16  C   UNL     1      10.684  15.073  20.192  0.00  0.00    +0.000 C 
ENDBRANCH   8  11
ENDBRANCH   3   5
BRANCH   2  17
ATOM     17  C   UNL     1       8.035   6.707  18.618  0.00  0.00    +0.000 C 
BRANCH  17  18
ATOM     18  C   UNL     1       7.060   6.041  17.701  0.00  0.00    +0.000 A 
ATOM     19  C   UNL     1       5.742   5.733  17.980  0.00  0.00    +0.000 A 
ATOM     20  S   UNL     1       5.004   5.001  16.625  0.00  0.00    +0.000 S 
ATOM     21  C   UNL     1       6.472   5.167  15.735  0.00  0.00    +0.000 A 
ATOM     22  N   UNL     1       7.470   5.700  16.418  0.00  0.00    +0.000 NA
BRANCH  21  23
ATOM     23  C   UNL     1       6.573   4.705  14.346  0.00  0.00    +0.000 A 
ATOM     24  C   UNL     1       5.670   3.757  13.850  0.00  0.00    +0.000 A 
ATOM     25  C   UNL     1       5.768   3.314  12.530  0.00  0.00    +0.000 A 
ATOM     26  C   UNL     1       6.780   3.828  11.738  0.00  0.00    +0.000 A 
ATOM     27  N   UNL     1       7.680   4.734  12.174  0.00  0.00    +0.000 NA
ATOM     28  C   UNL     1       7.557   5.145  13.463  0.00  0.00    +0.000 A 
ENDBRANCH  21  23
ENDBRANCH  17  18
ENDBRANCH   2  17
TORSDOF 5
ENDMDL
MODEL 8
REMARK VINA RESULT:      -7.8      0.946      1.354
REMARK  Name = 
REMARK  5 active torsions:
REMARK  status: ('A' for Active; 'I' for Inactive)
REMARK    1  A    between atoms: C_2  and  C_3
REMARK    2  A    between atoms: C_3  and  C_4
REMARK    3  A    between atoms: C_7  and  C_8
REMARK    4  A    between atoms: N_15  and  C_16
REMARK    5  A    between atoms: C_19  and  N_20
REMARK                            x       y       z     vdW  Elec       q    Type
REMARK                         _______ _______ _______ _____ _____    ______ ____
ROOT
ATOM      1  O   UNL     1       1.293   4.809  20.244  0.00  0.00    +0.000 OA
ATOM      2  C   UNL     1       2.405   5.048  19.770  0.00  0.00    +0.000 C 
ATOM      3  N   UNL     1       2.825   6.281  19.290  0.00  0.00    +0.000 N 
ATOM      4  H   UNL     1       3.666   6.308  18.727  0.00  0.00    +0.000 HD
ENDROOT
BRANCH   3   5
ATOM      5  C   UNL     1       2.140   7.505  19.454  0.00  0.00    +0.000 A 
ATOM      6  C   UNL     1       1.625   7.928  20.676  0.00  0.00    +0.000 A 
ATOM      7  C   UNL     1       0.996   9.173  20.801  0.00  0.00    +0.000 A 
ATOM      8  C   UNL     1       0.848  10.037  19.712  0.00  0.00    +0.000 A 
ATOM      9  C   UNL     1       1.360   9.592  18.483  0.00  0.00    +0.000 A 
ATOM     10  C   UNL     1       2.013   8.355  18.354  0.00  0.00    +0.000 A 
BRANCH   8  11
ATOM     11  N   UNL     1       0.286  11.296  19.829  0.00  0.00    +0.000 N 
ATOM     12  C   UNL     1      -1.115  11.561  19.454  0.00  0.00    +0.000 C 
ATOM     13  C   UNL     1      -1.202  12.361  18.148  0.00  0.00    +0.000 C 
ATOM     14  O   UNL     1      -0.424  13.566  18.222  0.00  0.00    +0.000 OA
ATOM     15  C   UNL     1       0.957  13.247  18.455  0.00  0.00    +0.000 C 
ATOM     16  C   UNL     1       1.156  12.486  19.779  0.00  0.00    +0.000 C 
ENDBRANCH   8  11
ENDBRANCH   3   5
BRANCH   2  17
ATOM     17  C   UNL     1       3.435   3.940  19.640  0.00  0.00    +0.000 C 
BRANCH  17  18
ATOM     18  C   UNL     1       4.652   4.416  18.912  0.00  0.00    +0.000 A 
ATOM     19  C   UNL     1       5.771   5.005  19.470  0.00  0.00    +0.000 A 
ATOM     20  S   UNL     1       6.922   5.360  18.260  0.00  0.00    +0.000 S 
ATOM     21  C   UNL     1       5.878   4.679  17.067  0.00  0.00    +0.000 A 
ATOM     22  N   UNL     1       4.720   4.247  17.534  0.00  0.00    +0.000 NA
BRANCH  21  23
ATOM     23  C   UNL     1       6.268   4.638  15.654  0.00  0.00    +0.000 A 
ATOM     24  C   UNL     1       5.561   3.837  14.749  0.00  0.00    +0.000 A 
ATOM     25  C   UNL     1       5.935   3.795  13.405  0.00  0.00    +0.000 A 
ATOM     26  C   UNL     1       7.018   4.554  12.999  0.00  0.00    +0.000 A 
ATOM     27  N   UNL     1       7.737   5.332  13.836  0.00  0.00    +0.000 NA
ATOM     28  C   UNL     1       7.348   5.351  15.137  0.00  0.00    +0.000 A 
ENDBRANCH  21  23
ENDBRANCH  17  18
ENDBRANCH   2  17
TORSDOF 5
ENDMDL
MODEL 9
REMARK VINA RESULT:      -7.8      6.676      7.302
REMARK  Name = 
REMARK  5 active torsions:
REMARK  status: ('A' for Active; 'I' for Inactive)
REMARK    1  A    between atoms: C_2  and  C_3
REMARK    2  A    between atoms: C_3  and  C_4
REMARK    3  A    between atoms: C_7  and  C_8
REMARK    4  A    between atoms: N_15  and  C_16
REMARK    5  A    between atoms: C_19  and  N_20
REMARK                            x       y       z     vdW  Elec       q    Type
REMARK                         _______ _______ _______ _____ _____    ______ ____
ROOT
ATOM      1  O   UNL     1       7.531   8.879  17.410  0.00  0.00    +0.000 OA
ATOM      2  C   UNL     1       8.192   8.373  18.319  0.00  0.00    +0.000 C 
ATOM      3  N   UNL     1       9.127   9.039  19.098  0.00  0.00    +0.000 N 
ATOM      4  H   UNL     1       9.763   8.482  19.656  0.00  0.00    +0.000 HD
ENDROOT
BRANCH   3   5
ATOM      5  C   UNL     1       9.327  10.437  19.129  0.00  0.00    +0.000 A 
ATOM      6  C   UNL     1       9.233  11.190  20.296  0.00  0.00    +0.000 A 
ATOM      7  C   UNL     1       9.489  12.568  20.287  0.00  0.00    +0.000 A 
ATOM      8  C   UNL     1       9.837  13.245  19.116  0.00  0.00    +0.000 A 
ATOM      9  C   UNL     1       9.916  12.475  17.944  0.00  0.00    +0.000 A 
ATOM     10  C   UNL     1       9.684  11.090  17.948  0.00  0.00    +0.000 A 
BRANCH   8  11
ATOM     11  N   UNL     1      10.154  14.592  19.098  0.00  0.00    +0.000 N 
ATOM     12  C   UNL     1       9.126  15.636  19.254  0.00  0.00    +0.000 C 
ATOM     13  C   UNL     1       8.853  16.354  17.926  0.00  0.00    +0.000 C 
ATOM     14  O   UNL     1      10.066  16.870  17.353  0.00  0.00    +0.000 OA
ATOM     15  C   UNL     1      10.984  15.796  17.096  0.00  0.00    +0.000 C 
ATOM     16  C   UNL     1      11.364  15.043  18.385  0.00  0.00    +0.000 C 
ENDBRANCH   8  11
ENDBRANCH   3   5
BRANCH   2  17
ATOM     17  C   UNL     1       8.044   6.897  18.641  0.00  0.00    +0.000 C 
BRANCH  17  18
ATOM     18  C   UNL     1       7.065   6.237  17.722  0.00  0.00    +0.000 A 
ATOM     19  C   UNL     1       5.728   5.995  17.976  0.00  0.00    +0.000 A 
ATOM     20  S   UNL     1       4.994   5.244  16.629  0.00  0.00    +0.000 S 
ATOM     21  C   UNL     1       6.491   5.315  15.774  0.00  0.00    +0.000 A 
ATOM     22  N   UNL     1       7.493   5.831  16.464  0.00  0.00    +0.000 NA
BRANCH  21  23
ATOM     23  C   UNL     1       6.608   4.797  14.406  0.00  0.00    +0.000 A 
ATOM     24  C   UNL     1       7.578   5.309  13.537  0.00  0.00    +0.000 A 
ATOM     25  C   UNL     1       7.686   4.819  12.235  0.00  0.00    +0.000 A 
ATOM     26  C   UNL     1       6.809   3.828  11.830  0.00  0.00    +0.000 A 
ATOM     27  N   UNL     1       5.851   3.311  12.628  0.00  0.00    +0.000 NA
ATOM     28  C   UNL     1       5.772   3.809  13.889  0.00  0.00    +0.000 A 
ENDBRANCH  21  23
ENDBRANCH  17  18
ENDBRANCH   2  17
TORSDOF 5
ENDMDL
