MODEL 1
REMARK VINA RESULT:      -6.9      0.000      0.000
REMARK  Name = 
REMARK  6 active torsions:
REMARK  status: ('A' for Active; 'I' for Inactive)
REMARK    1  A    between atoms: C_1  and  C_2
REMARK    2  A    between atoms: C_2  and  N_3
REMARK    3  A    between atoms: C_9  and  C_10
REMARK    4  A    between atoms: N_19  and  C_20
REMARK    5  A    between atoms: C_23  and  O_24
REMARK    6  A    between atoms: O_24  and  C_25
REMARK                            x       y       z     vdW  Elec       q    Type
REMARK                         _______ _______ _______ _____ _____    ______ ____
ROOT
ATOM      1  N   UNL     1       4.072  13.534  18.009  0.00  0.00    +0.000 N 
ATOM      2  C   UNL     1       2.747  13.577  18.409  0.00  0.00    +0.000 A 
ATOM      3  N   UNL     1       2.098  14.741  18.503  0.00  0.00    +0.000 NA
ATOM      4  C   UNL     1       0.792  14.685  18.840  0.00  0.00    +0.000 A 
ATOM      5  C   UNL     1       0.101  13.520  19.092  0.00  0.00    +0.000 A 
ATOM      6  N   UNL     1      -1.262  13.549  19.418  0.00  0.00    +0.000 NA
ATOM      7  C   UNL     1      -1.882  12.412  19.569  0.00  0.00    +0.000 A 
ATOM      8  C   UNL     1      -1.177  11.067  19.353  0.00  0.00    +0.000 A 
ATOM      9  O   UNL     1      -1.851  10.042  19.373  0.00  0.00    +0.000 OA
ATOM     10  N   UNL     1       0.203  11.124  19.182  0.00  0.00    +0.000 N 
ATOM     11  C   UNL     1       0.867  12.370  18.998  0.00  0.00    +0.000 A 
ATOM     12  N   UNL     1       2.182  12.395  18.666  0.00  0.00    +0.000 NA
ATOM     13  H   UNL     1       4.440  12.631  18.288  0.00  0.00    +0.000 HD
ENDROOT
BRANCH   7  14
ATOM     14  C   UNL     1      -3.323  12.429  19.962  0.00  0.00    +0.000 A 
ATOM     15  C   UNL     1      -3.663  12.756  21.282  0.00  0.00    +0.000 A 
ATOM     16  C   UNL     1      -5.005  12.786  21.678  0.00  0.00    +0.000 A 
ATOM     17  C   UNL     1      -6.006  12.479  20.759  0.00  0.00    +0.000 A 
ATOM     18 CL   UNL     1      -7.657  12.526  21.240  0.00  0.00    +0.000 Cl
ATOM     19  C   UNL     1      -5.679  12.129  19.451  0.00  0.00    +0.000 A 
ATOM     20  C   UNL     1      -4.338  12.095  19.056  0.00  0.00    +0.000 A 
ENDBRANCH   7  14
BRANCH  10  21
ATOM     21  C   UNL     1       0.968   9.936  19.016  0.00  0.00    +0.000 A 
ATOM     22  C   UNL     1       1.495   9.594  17.767  0.00  0.00    +0.000 A 
ATOM     23  C   UNL     1       2.277   8.445  17.621  0.00  0.00    +0.000 A 
ATOM     24  C   UNL     1       2.524   7.615  18.715  0.00  0.00    +0.000 A 
ATOM     25  C   UNL     1       1.950   7.916  19.949  0.00  0.00    +0.000 A 
ATOM     26  C   UNL     1       1.185   9.074  20.101  0.00  0.00    +0.000 A 
BRANCH  24  27
ATOM     27  O   UNL     1       3.301   6.519  18.460  0.00  0.00    +0.000 OA
ATOM     28  C   UNL     1       3.540   5.671  19.580  0.00  0.00    +0.000 C 
ENDBRANCH  24  27
ENDBRANCH  10  21
BRANCH   1  30
ATOM     29  C   UNL     1       6.252  14.560  17.725  0.00  0.00    +0.000 C 
ATOM     30  C   UNL     1       4.871  14.694  18.348  0.00  0.00    +0.000 C 
ENDBRANCH   1  30
TORSDOF 4
ENDMDL
MODEL 2
REMARK VINA RESULT:      -6.9      0.452      1.016
REMARK  Name = 
REMARK  6 active torsions:
REMARK  status: ('A' for Active; 'I' for Inactive)
REMARK    1  A    between atoms: C_1  and  C_2
REMARK    2  A    between atoms: C_2  and  N_3
REMARK    3  A    between atoms: C_9  and  C_10
REMARK    4  A    between atoms: N_19  and  C_20
REMARK    5  A    between atoms: C_23  and  O_24
REMARK    6  A    between atoms: O_24  and  C_25
REMARK                            x       y       z     vdW  Elec       q    Type
REMARK                         _______ _______ _______ _____ _____    ______ ____
ROOT
ATOM      1  N   UNL     1       4.036  13.569  17.937  0.00  0.00    +0.000 N 
ATOM      2  C   UNL     1       2.724  13.614  18.375  0.00  0.00    +0.000 A 
ATOM      3  N   UNL     1       2.077  14.779  18.478  0.00  0.00    +0.000 NA
ATOM      4  C   UNL     1       0.781  14.726  18.853  0.00  0.00    +0.000 A 
ATOM      5  C   UNL     1       0.099  13.562  19.134  0.00  0.00    +0.000 A 
ATOM      6  N   UNL     1      -1.255  13.594  19.498  0.00  0.00    +0.000 NA
ATOM      7  C   UNL     1      -1.869  12.458  19.677  0.00  0.00    +0.000 A 
ATOM      8  C   UNL     1      -1.171  11.111  19.451  0.00  0.00    +0.000 A 
ATOM      9  O   UNL     1      -1.843  10.086  19.499  0.00  0.00    +0.000 OA
ATOM     10  N   UNL     1       0.204  11.167  19.240  0.00  0.00    +0.000 N 
ATOM     11  C   UNL     1       0.862  12.412  19.028  0.00  0.00    +0.000 A 
ATOM     12  N   UNL     1       2.166  12.434  18.657  0.00  0.00    +0.000 NA
ATOM     13  H   UNL     1       4.413  12.668  18.213  0.00  0.00    +0.000 HD
ENDROOT
BRANCH   7  14
ATOM     14  C   UNL     1      -3.299  12.478  20.110  0.00  0.00    +0.000 A 
ATOM     15  C   UNL     1      -4.297  12.190  19.168  0.00  0.00    +0.000 A 
ATOM     16  C   UNL     1      -5.645  12.194  19.547  0.00  0.00    +0.000 A 
ATOM     17  C   UNL     1      -5.996  12.496  20.861  0.00  0.00    +0.000 A 
ATOM     18 CL   UNL     1      -7.650  12.492  21.330  0.00  0.00    +0.000 Cl
ATOM     19  C   UNL     1      -5.014  12.808  21.798  0.00  0.00    +0.000 A 
ATOM     20  C   UNL     1      -3.668  12.807  21.421  0.00  0.00    +0.000 A 
ENDBRANCH   7  14
BRANCH  10  21
ATOM     21  C   UNL     1       0.964   9.979  19.063  0.00  0.00    +0.000 A 
ATOM     22  C   UNL     1       1.487   9.645  17.808  0.00  0.00    +0.000 A 
ATOM     23  C   UNL     1       2.264   8.495  17.651  0.00  0.00    +0.000 A 
ATOM     24  C   UNL     1       2.512   7.654  18.737  0.00  0.00    +0.000 A 
ATOM     25  C   UNL     1       1.943   7.947  19.976  0.00  0.00    +0.000 A 
ATOM     26  C   UNL     1       1.182   9.107  20.139  0.00  0.00    +0.000 A 
BRANCH  24  27
ATOM     27  O   UNL     1       3.284   6.558  18.471  0.00  0.00    +0.000 OA
ATOM     28  C   UNL     1       4.201   6.710  17.391  0.00  0.00    +0.000 C 
ENDBRANCH  24  27
ENDBRANCH  10  21
BRANCH   1  30
ATOM     29  C   UNL     1       6.266  14.508  17.752  0.00  0.00    +0.000 C 
ATOM     30  C   UNL     1       4.845  14.731  18.244  0.00  0.00    +0.000 C 
ENDBRANCH   1  30
TORSDOF 4
ENDMDL
MODEL 3
REMARK VINA RESULT:      -6.8      3.337      5.048
REMARK  Name = 
REMARK  6 active torsions:
REMARK  status: ('A' for Active; 'I' for Inactive)
REMARK    1  A    between atoms: C_1  and  C_2
REMARK    2  A    between atoms: C_2  and  N_3
REMARK    3  A    between atoms: C_9  and  C_10
REMARK    4  A    between atoms: N_19  and  C_20
REMARK    5  A    between atoms: C_23  and  O_24
REMARK    6  A    between atoms: O_24  and  C_25
REMARK                            x       y       z     vdW  Elec       q    Type
REMARK                         _______ _______ _______ _____ _____    ______ ____
ROOT
ATOM      1  N   UNL     1      -2.811   9.567  15.794  0.00  0.00    +0.000 N 
ATOM      2  C   UNL     1      -2.786  10.403  16.897  0.00  0.00    +0.000 A 
ATOM      3  N   UNL     1      -3.796  11.244  17.141  0.00  0.00    +0.000 NA
ATOM      4  C   UNL     1      -3.719  11.977  18.272  0.00  0.00    +0.000 A 
ATOM      5  C   UNL     1      -2.677  11.915  19.171  0.00  0.00    +0.000 A 
ATOM      6  N   UNL     1      -2.684  12.699  20.334  0.00  0.00    +0.000 NA
ATOM      7  C   UNL     1      -1.711  12.541  21.187  0.00  0.00    +0.000 A 
ATOM      8  C   UNL     1      -0.605  11.499  20.975  0.00  0.00    +0.000 A 
ATOM      9  O   UNL     1       0.200  11.306  21.881  0.00  0.00    +0.000 OA
ATOM     10  N   UNL     1      -0.588  10.874  19.732  0.00  0.00    +0.000 N 
ATOM     11  C   UNL     1      -1.666  11.038  18.816  0.00  0.00    +0.000 A 
ATOM     12  N   UNL     1      -1.714  10.291  17.685  0.00  0.00    +0.000 NA
ATOM     13  H   UNL     1      -1.859   9.252  15.636  0.00  0.00    +0.000 HD
ENDROOT
BRANCH   7  14
ATOM     14  C   UNL     1      -1.681  13.403  22.407  0.00  0.00    +0.000 A 
ATOM     15  C   UNL     1      -0.710  14.410  22.503  0.00  0.00    +0.000 A 
ATOM     16  C   UNL     1      -0.662  15.237  23.631  0.00  0.00    +0.000 A 
ATOM     17  C   UNL     1      -1.575  15.051  24.667  0.00  0.00    +0.000 A 
ATOM     18 CL   UNL     1      -1.524  16.073  26.049  0.00  0.00    +0.000 Cl
ATOM     19  C   UNL     1      -2.527  14.038  24.593  0.00  0.00    +0.000 A 
ATOM     20  C   UNL     1      -2.574  13.209  23.469  0.00  0.00    +0.000 A 
ENDBRANCH   7  14
BRANCH  10  21
ATOM     21  C   UNL     1       0.417   9.922  19.407  0.00  0.00    +0.000 A 
ATOM     22  C   UNL     1       0.716   8.870  20.280  0.00  0.00    +0.000 A 
ATOM     23  C   UNL     1       1.678   7.919  19.934  0.00  0.00    +0.000 A 
ATOM     24  C   UNL     1       2.368   8.017  18.726  0.00  0.00    +0.000 A 
ATOM     25  C   UNL     1       2.121   9.096  17.879  0.00  0.00    +0.000 A 
ATOM     26  C   UNL     1       1.145  10.038  18.214  0.00  0.00    +0.000 A 
BRANCH  24  27
ATOM     27  O   UNL     1       3.287   7.033  18.490  0.00  0.00    +0.000 OA
ATOM     28  C   UNL     1       2.741   5.759  18.161  0.00  0.00    +0.000 C 
ENDBRANCH  24  27
ENDBRANCH  10  21
BRANCH   1  30
ATOM     29  C   UNL     1      -2.851   9.579  13.368  0.00  0.00    +0.000 C 
ATOM     30  C   UNL     1      -3.528  10.067  14.638  0.00  0.00    +0.000 C 
ENDBRANCH   1  30
TORSDOF 4
ENDMDL
MODEL 4
REMARK VINA RESULT:      -6.8      3.082      7.004
REMARK  Name = 
REMARK  6 active torsions:
REMARK  status: ('A' for Active; 'I' for Inactive)
REMARK    1  A    between atoms: C_1  and  C_2
REMARK    2  A    between atoms: C_2  and  N_3
REMARK    3  A    between atoms: C_9  and  C_10
REMARK    4  A    between atoms: N_19  and  C_20
REMARK    5  A    between atoms: C_23  and  O_24
REMARK    6  A    between atoms: O_24  and  C_25
REMARK                            x       y       z     vdW  Elec       q    Type
REMARK                         _______ _______ _______ _____ _____    ______ ____
ROOT
ATOM      1  N   UNL     1      -0.378  16.510  18.934  0.00  0.00    +0.000 N 
ATOM      2  C   UNL     1       0.201  15.255  18.850  0.00  0.00    +0.000 A 
ATOM      3  N   UNL     1       1.524  15.121  18.716  0.00  0.00    +0.000 NA
ATOM      4  C   UNL     1       2.010  13.861  18.703  0.00  0.00    +0.000 A 
ATOM      5  C   UNL     1       1.237  12.726  18.815  0.00  0.00    +0.000 A 
ATOM      6  N   UNL     1       1.825  11.454  18.814  0.00  0.00    +0.000 NA
ATOM      7  C   UNL     1       1.053  10.420  19.001  0.00  0.00    +0.000 A 
ATOM      8  C   UNL     1      -0.450  10.566  19.270  0.00  0.00    +0.000 A 
ATOM      9  O   UNL     1      -1.091   9.566  19.576  0.00  0.00    +0.000 OA
ATOM     10  N   UNL     1      -0.976  11.844  19.105  0.00  0.00    +0.000 N 
ATOM     11  C   UNL     1      -0.122  12.968  18.920  0.00  0.00    +0.000 A 
ATOM     12  N   UNL     1      -0.640  14.222  18.931  0.00  0.00    +0.000 NA
ATOM     13  H   UNL     1      -1.366  16.398  18.732  0.00  0.00    +0.000 HD
ENDROOT
BRANCH   7  14
ATOM     14  C   UNL     1       1.659   9.055  18.955  0.00  0.00    +0.000 A 
ATOM     15  C   UNL     1       1.651   8.270  20.116  0.00  0.00    +0.000 A 
ATOM     16  C   UNL     1       2.205   6.985  20.102  0.00  0.00    +0.000 A 
ATOM     17  C   UNL     1       2.778   6.489  18.932  0.00  0.00    +0.000 A 
ATOM     18 CL   UNL     1       3.450   4.906  18.909  0.00  0.00    +0.000 Cl
ATOM     19  C   UNL     1       2.814   7.271  17.780  0.00  0.00    +0.000 A 
ATOM     20  C   UNL     1       2.264   8.556  17.794  0.00  0.00    +0.000 A 
ENDBRANCH   7  14
BRANCH  10  21
ATOM     21  C   UNL     1      -2.365  12.091  19.285  0.00  0.00    +0.000 A 
ATOM     22  C   UNL     1      -2.842  12.667  20.467  0.00  0.00    +0.000 A 
ATOM     23  C   UNL     1      -4.203  12.940  20.620  0.00  0.00    +0.000 A 
ATOM     24  C   UNL     1      -5.106  12.624  19.605  0.00  0.00    +0.000 A 
ATOM     25  C   UNL     1      -4.648  11.993  18.449  0.00  0.00    +0.000 A 
ATOM     26  C   UNL     1      -3.284  11.737  18.287  0.00  0.00    +0.000 A 
BRANCH  24  27
ATOM     27  O   UNL     1      -6.413  12.935  19.860  0.00  0.00    +0.000 OA
ATOM     28  C   UNL     1      -6.615  14.096  20.659  0.00  0.00    +0.000 C 
ENDBRANCH  24  27
ENDBRANCH  10  21
BRANCH   1  30
ATOM     29  C   UNL     1      -0.586  18.121  17.133  0.00  0.00    +0.000 C 
ATOM     30  C   UNL     1       0.311  17.572  18.231  0.00  0.00    +0.000 C 
ENDBRANCH   1  30
TORSDOF 4
ENDMDL
MODEL 5
REMARK VINA RESULT:      -6.8      3.061      6.885
REMARK  Name = 
REMARK  6 active torsions:
REMARK  status: ('A' for Active; 'I' for Inactive)
REMARK    1  A    between atoms: C_1  and  C_2
REMARK    2  A    between atoms: C_2  and  N_3
REMARK    3  A    between atoms: C_9  and  C_10
REMARK    4  A    between atoms: N_19  and  C_20
REMARK    5  A    between atoms: C_23  and  O_24
REMARK    6  A    between atoms: O_24  and  C_25
REMARK                            x       y       z     vdW  Elec       q    Type
REMARK                         _______ _______ _______ _____ _____    ______ ____
ROOT
ATOM      1  N   UNL     1       0.062  16.489  19.080  0.00  0.00    +0.000 N 
ATOM      2  C   UNL     1       0.535  15.197  18.927  0.00  0.00    +0.000 A 
ATOM      3  N   UNL     1       1.769  14.971  18.465  0.00  0.00    +0.000 NA
ATOM      4  C   UNL     1       2.172  13.684  18.406  0.00  0.00    +0.000 A 
ATOM      5  C   UNL     1       1.399  12.608  18.784  0.00  0.00    +0.000 A 
ATOM      6  N   UNL     1       1.902  11.301  18.710  0.00  0.00    +0.000 NA
ATOM      7  C   UNL     1       1.155  10.330  19.154  0.00  0.00    +0.000 A 
ATOM      8  C   UNL     1      -0.217  10.585  19.792  0.00  0.00    +0.000 A 
ATOM      9  O   UNL     1      -0.805   9.644  20.315  0.00  0.00    +0.000 OA
ATOM     10  N   UNL     1      -0.703  11.884  19.689  0.00  0.00    +0.000 N 
ATOM     11  C   UNL     1       0.128  12.942  19.220  0.00  0.00    +0.000 A 
ATOM     12  N   UNL     1      -0.306  14.225  19.287  0.00  0.00    +0.000 NA
ATOM     13  H   UNL     1      -0.949  16.431  19.147  0.00  0.00    +0.000 HD
ENDROOT
BRANCH   7  14
ATOM     14  C   UNL     1       1.659   8.928  19.038  0.00  0.00    +0.000 A 
ATOM     15  C   UNL     1       1.710   8.129  20.189  0.00  0.00    +0.000 A 
ATOM     16  C   UNL     1       2.172   6.810  20.110  0.00  0.00    +0.000 A 
ATOM     17  C   UNL     1       2.592   6.293  18.886  0.00  0.00    +0.000 A 
ATOM     18 CL   UNL     1       3.149   4.669  18.786  0.00  0.00    +0.000 Cl
ATOM     19  C   UNL     1       2.569   7.087  17.742  0.00  0.00    +0.000 A 
ATOM     20  C   UNL     1       2.111   8.405  17.820  0.00  0.00    +0.000 A 
ENDBRANCH   7  14
BRANCH  10  21
ATOM     21  C   UNL     1      -1.983  12.229  20.205  0.00  0.00    +0.000 A 
ATOM     22  C   UNL     1      -3.111  12.230  19.378  0.00  0.00    +0.000 A 
ATOM     23  C   UNL     1      -4.370  12.533  19.902  0.00  0.00    +0.000 A 
ATOM     24  C   UNL     1      -4.515  12.858  21.251  0.00  0.00    +0.000 A 
ATOM     25  C   UNL     1      -3.387  12.920  22.067  0.00  0.00    +0.000 A 
ATOM     26  C   UNL     1      -2.131  12.598  21.550  0.00  0.00    +0.000 A 
BRANCH  24  27
ATOM     27  O   UNL     1      -5.791  13.137  21.656  0.00  0.00    +0.000 OA
ATOM     28  C   UNL     1      -6.037  12.960  23.048  0.00  0.00    +0.000 C 
ENDBRANCH  24  27
ENDBRANCH  10  21
BRANCH   1  30
ATOM     29  C   UNL     1      -0.534  18.049  17.320  0.00  0.00    +0.000 C 
ATOM     30  C   UNL     1       0.595  17.471  18.158  0.00  0.00    +0.000 C 
ENDBRANCH   1  30
TORSDOF 4
ENDMDL
MODEL 6
REMARK VINA RESULT:      -6.8      3.088      6.956
REMARK  Name = 
REMARK  6 active torsions:
REMARK  status: ('A' for Active; 'I' for Inactive)
REMARK    1  A    between atoms: C_1  and  C_2
REMARK    2  A    between atoms: C_2  and  N_3
REMARK    3  A    between atoms: C_9  and  C_10
REMARK    4  A    between atoms: N_19  and  C_20
REMARK    5  A    between atoms: C_23  and  O_24
REMARK    6  A    between atoms: O_24  and  C_25
REMARK                            x       y       z     vdW  Elec       q    Type
REMARK                         _______ _______ _______ _____ _____    ______ ____
ROOT
ATOM      1  N   UNL     1      -0.135  16.645  19.338  0.00  0.00    +0.000 N 
ATOM      2  C   UNL     1       0.362  15.369  19.135  0.00  0.00    +0.000 A 
ATOM      3  N   UNL     1       1.586  15.184  18.629  0.00  0.00    +0.000 NA
ATOM      4  C   UNL     1       2.014  13.908  18.522  0.00  0.00    +0.000 A 
ATOM      5  C   UNL     1       1.278  12.805  18.893  0.00  0.00    +0.000 A 
ATOM      6  N   UNL     1       1.807  11.513  18.767  0.00  0.00    +0.000 NA
ATOM      7  C   UNL     1       1.096  10.513  19.207  0.00  0.00    +0.000 A 
ATOM      8  C   UNL     1      -0.261  10.719  19.894  0.00  0.00    +0.000 A 
ATOM      9  O   UNL     1      -0.811   9.750  20.408  0.00  0.00    +0.000 OA
ATOM     10  N   UNL     1      -0.778  12.009  19.842  0.00  0.00    +0.000 N 
ATOM     11  C   UNL     1       0.014  13.098  19.378  0.00  0.00    +0.000 A 
ATOM     12  N   UNL     1      -0.446  14.368  19.493  0.00  0.00    +0.000 NA
ATOM     13  H   UNL     1      -1.141  16.562  19.435  0.00  0.00    +0.000 HD
ENDROOT
BRANCH   7  14
ATOM     14  C   UNL     1       1.627   9.126  19.036  0.00  0.00    +0.000 A 
ATOM     15  C   UNL     1       2.016   8.702  17.758  0.00  0.00    +0.000 A 
ATOM     16  C   UNL     1       2.524   7.411  17.569  0.00  0.00    +0.000 A 
ATOM     17  C   UNL     1       2.631   6.542  18.652  0.00  0.00    +0.000 A 
ATOM     18 CL   UNL     1       3.265   4.959  18.423  0.00  0.00    +0.000 Cl
ATOM     19  C   UNL     1       2.224   6.945  19.921  0.00  0.00    +0.000 A 
ATOM     20  C   UNL     1       1.714   8.232  20.111  0.00  0.00    +0.000 A 
ENDBRANCH   7  14
BRANCH  10  21
ATOM     21  C   UNL     1      -2.048  12.310  20.407  0.00  0.00    +0.000 A 
ATOM     22  C   UNL     1      -3.188  12.397  19.600  0.00  0.00    +0.000 A 
ATOM     23  C   UNL     1      -4.437  12.656  20.169  0.00  0.00    +0.000 A 
ATOM     24  C   UNL     1      -4.561  12.851  21.544  0.00  0.00    +0.000 A 
ATOM     25  C   UNL     1      -3.422  12.827  22.347  0.00  0.00    +0.000 A 
ATOM     26  C   UNL     1      -2.175  12.549  21.783  0.00  0.00    +0.000 A 
BRANCH  24  27
ATOM     27  O   UNL     1      -5.829  13.097  21.993  0.00  0.00    +0.000 OA
ATOM     28  C   UNL     1      -6.847  12.289  21.409  0.00  0.00    +0.000 C 
ENDBRANCH  24  27
ENDBRANCH  10  21
BRANCH   1  30
ATOM     29  C   UNL     1      -0.752  18.027  17.442  0.00  0.00    +0.000 C 
ATOM     30  C   UNL     1       0.348  17.663  18.428  0.00  0.00    +0.000 C 
ENDBRANCH   1  30
TORSDOF 4
ENDMDL
MODEL 7
REMARK VINA RESULT:      -6.8      3.090      6.995
REMARK  Name = 
REMARK  6 active torsions:
REMARK  status: ('A' for Active; 'I' for Inactive)
REMARK    1  A    between atoms: C_1  and  C_2
REMARK    2  A    between atoms: C_2  and  N_3
REMARK    3  A    between atoms: C_9  and  C_10
REMARK    4  A    between atoms: N_19  and  C_20
REMARK    5  A    between atoms: C_23  and  O_24
REMARK    6  A    between atoms: O_24  and  C_25
REMARK                            x       y       z     vdW  Elec       q    Type
REMARK                         _______ _______ _______ _____ _____    ______ ____
ROOT
ATOM      1  N   UNL     1      -0.007  16.534  19.293  0.00  0.00    +0.000 N 
ATOM      2  C   UNL     1       0.469  15.247  19.111  0.00  0.00    +0.000 A 
ATOM      3  N   UNL     1       1.691  15.033  18.612  0.00  0.00    +0.000 NA
ATOM      4  C   UNL     1       2.097  13.748  18.526  0.00  0.00    +0.000 A 
ATOM      5  C   UNL     1       1.341  12.664  18.911  0.00  0.00    +0.000 A 
ATOM      6  N   UNL     1       1.848  11.361  18.807  0.00  0.00    +0.000 NA
ATOM      7  C   UNL     1       1.118  10.380  19.259  0.00  0.00    +0.000 A 
ATOM      8  C   UNL     1      -0.237  10.620  19.938  0.00  0.00    +0.000 A 
ATOM      9  O   UNL     1      -0.805   9.669  20.465  0.00  0.00    +0.000 OA
ATOM     10  N   UNL     1      -0.732  11.918  19.865  0.00  0.00    +0.000 N 
ATOM     11  C   UNL     1       0.081  12.986  19.387  0.00  0.00    +0.000 A 
ATOM     12  N   UNL     1      -0.358  14.266  19.481  0.00  0.00    +0.000 NA
ATOM     13  H   UNL     1      -1.015  16.470  19.387  0.00  0.00    +0.000 HD
ENDROOT
BRANCH   7  14
ATOM     14  C   UNL     1       1.626   8.982  19.112  0.00  0.00    +0.000 A 
ATOM     15  C   UNL     1       1.989   8.524  17.837  0.00  0.00    +0.000 A 
ATOM     16  C   UNL     1       2.474   7.222  17.669  0.00  0.00    +0.000 A 
ATOM     17  C   UNL     1       2.586   6.375  18.771  0.00  0.00    +0.000 A 
ATOM     18 CL   UNL     1       3.192   4.778  18.568  0.00  0.00    +0.000 Cl
ATOM     19  C   UNL     1       2.204   6.812  20.036  0.00  0.00    +0.000 A 
ATOM     20  C   UNL     1       1.716   8.111  20.205  0.00  0.00    +0.000 A 
ENDBRANCH   7  14
BRANCH  10  21
ATOM     21  C   UNL     1      -1.998  12.249  20.421  0.00  0.00    +0.000 A 
ATOM     22  C   UNL     1      -2.137  12.490  21.792  0.00  0.00    +0.000 A 
ATOM     23  C   UNL     1      -3.377  12.851  22.323  0.00  0.00    +0.000 A 
ATOM     24  C   UNL     1      -4.497  12.956  21.497  0.00  0.00    +0.000 A 
ATOM     25  C   UNL     1      -4.380  12.657  20.141  0.00  0.00    +0.000 A 
ATOM     26  C   UNL     1      -3.137  12.315  19.605  0.00  0.00    +0.000 A 
BRANCH  24  27
ATOM     27  O   UNL     1      -5.659  13.316  22.122  0.00  0.00    +0.000 OA
ATOM     28  C   UNL     1      -5.728  12.993  23.507  0.00  0.00    +0.000 C 
ENDBRANCH  24  27
ENDBRANCH  10  21
BRANCH   1  30
ATOM     29  C   UNL     1      -0.622  17.970  17.437  0.00  0.00    +0.000 C 
ATOM     30  C   UNL     1       0.496  17.530  18.369  0.00  0.00    +0.000 C 
ENDBRANCH   1  30
TORSDOF 4
ENDMDL
MODEL 8
REMARK VINA RESULT:      -6.8      3.253      7.011
REMARK  Name = 
REMARK  6 active torsions:
REMARK  status: ('A' for Active; 'I' for Inactive)
REMARK    1  A    between atoms: C_1  and  C_2
REMARK    2  A    between atoms: C_2  and  N_3
REMARK    3  A    between atoms: C_9  and  C_10
REMARK    4  A    between atoms: N_19  and  C_20
REMARK    5  A    between atoms: C_23  and  O_24
REMARK    6  A    between atoms: O_24  and  C_25
REMARK                            x       y       z     vdW  Elec       q    Type
REMARK                         _______ _______ _______ _____ _____    ______ ____
ROOT
ATOM      1  N   UNL     1      -1.187  16.330  19.316  0.00  0.00    +0.000 N 
ATOM      2  C   UNL     1      -0.478  15.143  19.241  0.00  0.00    +0.000 A 
ATOM      3  N   UNL     1       0.834  15.114  19.491  0.00  0.00    +0.000 NA
ATOM      4  C   UNL     1       1.434  13.905  19.456  0.00  0.00    +0.000 A 
ATOM      5  C   UNL     1       0.786  12.721  19.179  0.00  0.00    +0.000 A 
ATOM      6  N   UNL     1       1.481  11.504  19.183  0.00  0.00    +0.000 NA
ATOM      7  C   UNL     1       0.802  10.408  18.991  0.00  0.00    +0.000 A 
ATOM      8  C   UNL     1      -0.722  10.416  18.817  0.00  0.00    +0.000 A 
ATOM      9  O   UNL     1      -1.315   9.342  18.782  0.00  0.00    +0.000 OA
ATOM     10  N   UNL     1      -1.311  11.668  18.675  0.00  0.00    +0.000 N 
ATOM     11  C   UNL     1      -0.564  12.859  18.905  0.00  0.00    +0.000 A 
ATOM     12  N   UNL     1      -1.194  14.060  18.929  0.00  0.00    +0.000 NA
ATOM     13  H   UNL     1      -2.059  16.190  18.816  0.00  0.00    +0.000 HD
ENDROOT
BRANCH   7  14
ATOM     14  C   UNL     1       1.537   9.107  18.946  0.00  0.00    +0.000 A 
ATOM     15  C   UNL     1       1.553   8.297  20.090  0.00  0.00    +0.000 A 
ATOM     16  C   UNL     1       2.227   7.071  20.075  0.00  0.00    +0.000 A 
ATOM     17  C   UNL     1       2.895   6.660  18.924  0.00  0.00    +0.000 A 
ATOM     18 CL   UNL     1       3.716   5.149  18.900  0.00  0.00    +0.000 Cl
ATOM     19  C   UNL     1       2.907   7.469  17.790  0.00  0.00    +0.000 A 
ATOM     20  C   UNL     1       2.236   8.695  17.804  0.00  0.00    +0.000 A 
ENDBRANCH   7  14
BRANCH  10  21
ATOM     21  C   UNL     1      -2.712  11.797  18.464  0.00  0.00    +0.000 A 
ATOM     22  C   UNL     1      -3.272  11.550  17.206  0.00  0.00    +0.000 A 
ATOM     23  C   UNL     1      -4.653  11.642  17.018  0.00  0.00    +0.000 A 
ATOM     24  C   UNL     1      -5.488  12.003  18.075  0.00  0.00    +0.000 A 
ATOM     25  C   UNL     1      -4.932  12.312  19.315  0.00  0.00    +0.000 A 
ATOM     26  C   UNL     1      -3.554  12.200  19.511  0.00  0.00    +0.000 A 
BRANCH  24  27
ATOM     27  O   UNL     1      -6.822  12.063  17.779  0.00  0.00    +0.000 OA
ATOM     28  C   UNL     1      -7.323  13.366  17.497  0.00  0.00    +0.000 C 
ENDBRANCH  24  27
ENDBRANCH  10  21
BRANCH   1  30
ATOM     29  C   UNL     1      -0.418  17.732  17.492  0.00  0.00    +0.000 C 
ATOM     30  C   UNL     1      -0.443  17.532  18.998  0.00  0.00    +0.000 C 
ENDBRANCH   1  30
TORSDOF 4
ENDMDL
MODEL 9
REMARK VINA RESULT:      -6.8      3.155      7.007
REMARK  Name = 
REMARK  6 active torsions:
REMARK  status: ('A' for Active; 'I' for Inactive)
REMARK    1  A    between atoms: C_1  and  C_2
REMARK    2  A    between atoms: C_2  and  N_3
REMARK    3  A    between atoms: C_9  and  C_10
REMARK    4  A    between atoms: N_19  and  C_20
REMARK    5  A    between atoms: C_23  and  O_24
REMARK    6  A    between atoms: O_24  and  C_25
REMARK                            x       y       z     vdW  Elec       q    Type
REMARK                         _______ _______ _______ _____ _____    ______ ____
ROOT
ATOM      1  N   UNL     1      -0.678  16.386  18.671  0.00  0.00    +0.000 N 
ATOM      2  C   UNL     1      -0.046  15.154  18.669  0.00  0.00    +0.000 A 
ATOM      3  N   UNL     1       1.288  15.070  18.715  0.00  0.00    +0.000 NA
ATOM      4  C   UNL     1       1.818  13.829  18.772  0.00  0.00    +0.000 A 
ATOM      5  C   UNL     1       1.080  12.666  18.783  0.00  0.00    +0.000 A 
ATOM      6  N   UNL     1       1.711  11.417  18.864  0.00  0.00    +0.000 NA
ATOM      7  C   UNL     1       0.960  10.354  18.949  0.00  0.00    +0.000 A 
ATOM      8  C   UNL     1      -0.570  10.443  19.013  0.00  0.00    +0.000 A 
ATOM      9  O   UNL     1      -1.209   9.419  19.234  0.00  0.00    +0.000 OA
ATOM     10  N   UNL     1      -1.117  11.700  18.775  0.00  0.00    +0.000 N 
ATOM     11  C   UNL     1      -0.289  12.856  18.703  0.00  0.00    +0.000 A 
ATOM     12  N   UNL     1      -0.851  14.089  18.640  0.00  0.00    +0.000 NA
ATOM     13  H   UNL     1      -1.625  16.236  18.338  0.00  0.00    +0.000 HD
ENDROOT
BRANCH   7  14
ATOM     14  C   UNL     1       1.618   9.013  18.990  0.00  0.00    +0.000 A 
ATOM     15  C   UNL     1       2.252   8.534  17.834  0.00  0.00    +0.000 A 
ATOM     16  C   UNL     1       2.883   7.285  17.844  0.00  0.00    +0.000 A 
ATOM     17  C   UNL     1       2.870   6.510  19.002  0.00  0.00    +0.000 A 
ATOM     18 CL   UNL     1       3.654   4.979  19.019  0.00  0.00    +0.000 Cl
ATOM     19  C   UNL     1       2.222   6.965  20.147  0.00  0.00    +0.000 A 
ATOM     20  C   UNL     1       1.588   8.212  20.138  0.00  0.00    +0.000 A 
ENDBRANCH   7  14
BRANCH  10  21
ATOM     21  C   UNL     1      -2.526  11.894  18.765  0.00  0.00    +0.000 A 
ATOM     22  C   UNL     1      -3.187  12.390  19.894  0.00  0.00    +0.000 A 
ATOM     23  C   UNL     1      -4.566  12.613  19.863  0.00  0.00    +0.000 A 
ATOM     24  C   UNL     1      -5.303  12.324  18.715  0.00  0.00    +0.000 A 
ATOM     25  C   UNL     1      -4.662  11.771  17.607  0.00  0.00    +0.000 A 
ATOM     26  C   UNL     1      -3.280  11.566  17.630  0.00  0.00    +0.000 A 
BRANCH  24  27
ATOM     27  O   UNL     1      -6.644  12.580  18.794  0.00  0.00    +0.000 OA
ATOM     28  C   UNL     1      -7.337  11.874  19.819  0.00  0.00    +0.000 C 
ENDBRANCH  24  27
ENDBRANCH  10  21
BRANCH   1  30
ATOM     29  C   UNL     1       0.277  18.576  19.088  0.00  0.00    +0.000 C 
ATOM     30  C   UNL     1       0.059  17.475  18.063  0.00  0.00    +0.000 C 
ENDBRANCH   1  30
TORSDOF 4
ENDMDL
