MODEL 1
REMARK VINA RESULT:      -7.9      0.000      0.000
REMARK  Name = 
REMARK  10 active torsions:
REMARK  status: ('A' for Active; 'I' for Inactive)
REMARK    1  A    between atoms: C_1  and  C_2
REMARK    2  A    between atoms: C_2  and  C_3
REMARK    3  A    between atoms: C_3  and  N_4
REMARK    4  A    between atoms: C_3  and  C_6
REMARK    5  A    between atoms: N_4  and  C_5
REMARK    6  A    between atoms: N_8  and  C_9
REMARK    7  A    between atoms: C_9  and  C_10
REMARK    8  A    between atoms: C_10  and  C_11
REMARK    9  A    between atoms: C_14  and  C_15
REMARK   10  A    between atoms: C_18  and  C_19
REMARK                            x       y       z     vdW  Elec       q    Type
REMARK                         _______ _______ _______ _____ _____    ______ ____
ROOT
ATOM      1  C   UNL     1       1.054   9.270  20.150  0.00  0.00    +0.000 A 
ATOM      2  C   UNL     1       1.475   9.625  18.868  0.00  0.00    +0.000 A 
ATOM      3  C   UNL     1       2.235   8.748  18.091  0.00  0.00    +0.000 A 
ATOM      4  C   UNL     1       2.649   7.499  18.579  0.00  0.00    +0.000 A 
ATOM      5  C   UNL     1       2.247   7.162  19.882  0.00  0.00    +0.000 A 
ATOM      6  C   UNL     1       1.462   8.030  20.655  0.00  0.00    +0.000 A 
ENDROOT
BRANCH   4   7
ATOM      7  C   UNL     1       3.487   6.605  17.747  0.00  0.00    +0.000 A 
ATOM      8  C   UNL     1       4.508   7.127  16.928  0.00  0.00    +0.000 A 
ATOM      9  C   UNL     1       5.284   6.306  16.106  0.00  0.00    +0.000 A 
ATOM     10  C   UNL     1       5.081   4.922  16.091  0.00  0.00    +0.000 A 
ATOM     11  C   UNL     1       4.080   4.383  16.911  0.00  0.00    +0.000 A 
ATOM     12  C   UNL     1       3.294   5.214  17.720  0.00  0.00    +0.000 A 
BRANCH  10  13
ATOM     13  C   UNL     1       5.919   4.027  15.215  0.00  0.00    +0.000 C 
ATOM     14  F   UNL     1       5.933   2.725  15.621  0.00  0.00    +0.000 F 
ATOM     15  F   UNL     1       5.488   4.009  13.923  0.00  0.00    +0.000 F 
ATOM     16  F   UNL     1       7.225   4.414  15.170  0.00  0.00    +0.000 F 
ENDBRANCH  10  13
ENDBRANCH   4   7
BRANCH   1  17
ATOM     17  C   UNL     1       0.245  10.214  21.013  0.00  0.00    +0.000 C 
BRANCH  17  18
ATOM     18  C   UNL     1      -0.528  11.283  20.229  0.00  0.00    +0.000 C 
BRANCH  18  21
ATOM     19  C   UNL     1      -1.670  11.351  18.061  0.00  0.00    +0.000 C 
ATOM     20  O   UNL     1      -1.221  12.473  17.818  0.00  0.00    +0.000 OA
ATOM     21  N   UNL     1      -1.440  10.709  19.260  0.00  0.00    +0.000 N 
ATOM     22  H   UNL     1      -1.719   9.738  19.327  0.00  0.00    +0.000 HD
BRANCH  19  23
ATOM     23  C   UNL     1      -2.562  10.569  17.074  0.00  0.00    +0.000 C 
BRANCH  23  24
ATOM     24  N   UNL     1      -2.549  11.187  15.722  0.00  0.00    +0.000 NA
ATOM     25  C   UNL     1      -3.216  10.382  14.703  0.00  0.00    +0.000 C 
ATOM     26  H   UNL     1      -1.577  11.318  15.443  0.00  0.00    +0.000 HD
ENDBRANCH  23  24
BRANCH  23  28
ATOM     27  C   UNL     1      -4.755  11.619  17.941  0.00  0.00    +0.000 C 
ATOM     28  C   UNL     1      -3.953  10.352  17.701  0.00  0.00    +0.000 C 
ENDBRANCH  23  28
ENDBRANCH  19  23
ENDBRANCH  18  21
ENDBRANCH  17  18
ENDBRANCH   1  17
TORSDOF 8
ENDMDL
MODEL 2
REMARK VINA RESULT:      -7.8      6.088      9.786
REMARK  Name = 
REMARK  10 active torsions:
REMARK  status: ('A' for Active; 'I' for Inactive)
REMARK    1  A    between atoms: C_1  and  C_2
REMARK    2  A    between atoms: C_2  and  C_3
REMARK    3  A    between atoms: C_3  and  N_4
REMARK    4  A    between atoms: C_3  and  C_6
REMARK    5  A    between atoms: N_4  and  C_5
REMARK    6  A    between atoms: N_8  and  C_9
REMARK    7  A    between atoms: C_9  and  C_10
REMARK    8  A    between atoms: C_10  and  C_11
REMARK    9  A    between atoms: C_14  and  C_15
REMARK   10  A    between atoms: C_18  and  C_19
REMARK                            x       y       z     vdW  Elec       q    Type
REMARK                         _______ _______ _______ _____ _____    ______ ____
ROOT
ATOM      1  C   UNL     1       4.872   4.728  16.648  0.00  0.00    +0.000 A 
ATOM      2  C   UNL     1       3.787   4.372  17.451  0.00  0.00    +0.000 A 
ATOM      3  C   UNL     1       2.969   5.345  18.028  0.00  0.00    +0.000 A 
ATOM      4  C   UNL     1       3.226   6.715  17.870  0.00  0.00    +0.000 A 
ATOM      5  C   UNL     1       4.339   7.065  17.087  0.00  0.00    +0.000 A 
ATOM      6  C   UNL     1       5.148   6.090  16.484  0.00  0.00    +0.000 A 
ENDROOT
BRANCH   4   7
ATOM      7  C   UNL     1       2.363   7.725  18.525  0.00  0.00    +0.000 A 
ATOM      8  C   UNL     1       2.046   7.625  19.894  0.00  0.00    +0.000 A 
ATOM      9  C   UNL     1       1.203   8.545  20.522  0.00  0.00    +0.000 A 
ATOM     10  C   UNL     1       0.662   9.617  19.806  0.00  0.00    +0.000 A 
ATOM     11  C   UNL     1       0.980   9.742  18.446  0.00  0.00    +0.000 A 
ATOM     12  C   UNL     1       1.812   8.806  17.817  0.00  0.00    +0.000 A 
BRANCH  10  13
ATOM     13  C   UNL     1      -0.241  10.620  20.476  0.00  0.00    +0.000 C 
ATOM     14  F   UNL     1      -0.699  10.214  21.695  0.00  0.00    +0.000 F 
ATOM     15  F   UNL     1       0.376  11.815  20.691  0.00  0.00    +0.000 F 
ATOM     16  F   UNL     1      -1.352  10.899  19.738  0.00  0.00    +0.000 F 
ENDBRANCH  10  13
ENDBRANCH   4   7
BRANCH   1  17
ATOM     17  C   UNL     1       5.781   3.687  16.029  0.00  0.00    +0.000 C 
BRANCH  17  18
ATOM     18  C   UNL     1       6.459   4.133  14.727  0.00  0.00    +0.000 C 
BRANCH  18  21
ATOM     19  C   UNL     1       6.534   3.620  12.332  0.00  0.00    +0.000 C 
ATOM     20  O   UNL     1       7.396   4.479  12.136  0.00  0.00    +0.000 OA
ATOM     21  N   UNL     1       5.957   3.423  13.568  0.00  0.00    +0.000 N 
ATOM     22  H   UNL     1       5.366   2.607  13.680  0.00  0.00    +0.000 HD
BRANCH  19  23
ATOM     23  C   UNL     1       5.985   2.709  11.213  0.00  0.00    +0.000 C 
BRANCH  23  24
ATOM     24  N   UNL     1       4.527   2.470  11.372  0.00  0.00    +0.000 NA
ATOM     25  C   UNL     1       3.693   3.443  10.673  0.00  0.00    +0.000 C 
ATOM     26  H   UNL     1       4.304   2.512  12.367  0.00  0.00    +0.000 HD
ENDBRANCH  23  24
BRANCH  23  28
ATOM     27  C   UNL     1       6.113   0.131  11.172  0.00  0.00    +0.000 C 
ATOM     28  C   UNL     1       6.864   1.449  11.099  0.00  0.00    +0.000 C 
ENDBRANCH  23  28
ENDBRANCH  19  23
ENDBRANCH  18  21
ENDBRANCH  17  18
ENDBRANCH   1  17
TORSDOF 8
ENDMDL
MODEL 3
REMARK VINA RESULT:      -7.7      6.073      9.732
REMARK  Name = 
REMARK  10 active torsions:
REMARK  status: ('A' for Active; 'I' for Inactive)
REMARK    1  A    between atoms: C_1  and  C_2
REMARK    2  A    between atoms: C_2  and  C_3
REMARK    3  A    between atoms: C_3  and  N_4
REMARK    4  A    between atoms: C_3  and  C_6
REMARK    5  A    between atoms: N_4  and  C_5
REMARK    6  A    between atoms: N_8  and  C_9
REMARK    7  A    between atoms: C_9  and  C_10
REMARK    8  A    between atoms: C_10  and  C_11
REMARK    9  A    between atoms: C_14  and  C_15
REMARK   10  A    between atoms: C_18  and  C_19
REMARK                            x       y       z     vdW  Elec       q    Type
REMARK                         _______ _______ _______ _____ _____    ______ ____
ROOT
ATOM      1  C   UNL     1       4.983   4.778  16.794  0.00  0.00    +0.000 A 
ATOM      2  C   UNL     1       5.258   6.144  16.710  0.00  0.00    +0.000 A 
ATOM      3  C   UNL     1       4.418   7.085  17.306  0.00  0.00    +0.000 A 
ATOM      4  C   UNL     1       3.239   6.708  17.969  0.00  0.00    +0.000 A 
ATOM      5  C   UNL     1       2.953   5.334  18.021  0.00  0.00    +0.000 A 
ATOM      6  C   UNL     1       3.809   4.384  17.447  0.00  0.00    +0.000 A 
ENDROOT
BRANCH   4   7
ATOM      7  C   UNL     1       2.346   7.732  18.559  0.00  0.00    +0.000 A 
ATOM      8  C   UNL     1       2.008   7.694  19.927  0.00  0.00    +0.000 A 
ATOM      9  C   UNL     1       1.138   8.627  20.495  0.00  0.00    +0.000 A 
ATOM     10  C   UNL     1       0.589   9.651  19.718  0.00  0.00    +0.000 A 
ATOM     11  C   UNL     1       0.926   9.715  18.360  0.00  0.00    +0.000 A 
ATOM     12  C   UNL     1       1.787   8.766  17.791  0.00  0.00    +0.000 A 
BRANCH  10  13
ATOM     13  C   UNL     1      -0.344  10.668  20.324  0.00  0.00    +0.000 C 
ATOM     14  F   UNL     1      -1.479  10.869  19.597  0.00  0.00    +0.000 F 
ATOM     15  F   UNL     1      -0.760  10.316  21.572  0.00  0.00    +0.000 F 
ATOM     16  F   UNL     1       0.234  11.895  20.454  0.00  0.00    +0.000 F 
ENDBRANCH  10  13
ENDBRANCH   4   7
BRANCH   1  17
ATOM     17  C   UNL     1       5.874   3.744  16.139  0.00  0.00    +0.000 C 
BRANCH  17  18
ATOM     18  C   UNL     1       6.509   4.201  14.819  0.00  0.00    +0.000 C 
BRANCH  18  21
ATOM     19  C   UNL     1       6.576   3.641  12.434  0.00  0.00    +0.000 C 
ATOM     20  O   UNL     1       7.441   4.493  12.220  0.00  0.00    +0.000 OA
ATOM     21  N   UNL     1       6.002   3.470  13.676  0.00  0.00    +0.000 N 
ATOM     22  H   UNL     1       5.408   2.659  13.805  0.00  0.00    +0.000 HD
BRANCH  19  23
ATOM     23  C   UNL     1       6.022   2.710  11.335  0.00  0.00    +0.000 C 
BRANCH  23  24
ATOM     24  N   UNL     1       4.552   2.532  11.463  0.00  0.00    +0.000 NA
ATOM     25  C   UNL     1       3.775   3.544  10.753  0.00  0.00    +0.000 C 
ATOM     26  H   UNL     1       4.311   2.578  12.453  0.00  0.00    +0.000 HD
ENDBRANCH  23  24
BRANCH  23  28
ATOM     27  C   UNL     1       6.049   0.138  11.124  0.00  0.00    +0.000 C 
ATOM     28  C   UNL     1       6.854   1.414  11.291  0.00  0.00    +0.000 C 
ENDBRANCH  23  28
ENDBRANCH  19  23
ENDBRANCH  18  21
ENDBRANCH  17  18
ENDBRANCH   1  17
TORSDOF 8
ENDMDL
MODEL 4
REMARK VINA RESULT:      -7.6      0.619      1.134
REMARK  Name = 
REMARK  10 active torsions:
REMARK  status: ('A' for Active; 'I' for Inactive)
REMARK    1  A    between atoms: C_1  and  C_2
REMARK    2  A    between atoms: C_2  and  C_3
REMARK    3  A    between atoms: C_3  and  N_4
REMARK    4  A    between atoms: C_3  and  C_6
REMARK    5  A    between atoms: N_4  and  C_5
REMARK    6  A    between atoms: N_8  and  C_9
REMARK    7  A    between atoms: C_9  and  C_10
REMARK    8  A    between atoms: C_10  and  C_11
REMARK    9  A    between atoms: C_14  and  C_15
REMARK   10  A    between atoms: C_18  and  C_19
REMARK                            x       y       z     vdW  Elec       q    Type
REMARK                         _______ _______ _______ _____ _____    ______ ____
ROOT
ATOM      1  C   UNL     1       0.764   9.308  19.998  0.00  0.00    +0.000 A 
ATOM      2  C   UNL     1       1.139   9.613  18.688  0.00  0.00    +0.000 A 
ATOM      3  C   UNL     1       1.994   8.774  17.971  0.00  0.00    +0.000 A 
ATOM      4  C   UNL     1       2.552   7.622  18.546  0.00  0.00    +0.000 A 
ATOM      5  C   UNL     1       2.194   7.340  19.875  0.00  0.00    +0.000 A 
ATOM      6  C   UNL     1       1.314   8.166  20.590  0.00  0.00    +0.000 A 
ENDROOT
BRANCH   4   7
ATOM      7  C   UNL     1       3.486   6.771  17.774  0.00  0.00    +0.000 A 
ATOM      8  C   UNL     1       3.524   5.376  17.971  0.00  0.00    +0.000 A 
ATOM      9  C   UNL     1       4.424   4.560  17.282  0.00  0.00    +0.000 A 
ATOM     10  C   UNL     1       5.308   5.109  16.347  0.00  0.00    +0.000 A 
ATOM     11  C   UNL     1       5.273   6.492  16.126  0.00  0.00    +0.000 A 
ATOM     12  C   UNL     1       4.380   7.308  16.833  0.00  0.00    +0.000 A 
BRANCH  10  13
ATOM     13  C   UNL     1       6.276   4.236  15.591  0.00  0.00    +0.000 C 
ATOM     14  F   UNL     1       5.877   2.936  15.493  0.00  0.00    +0.000 F 
ATOM     15  F   UNL     1       6.473   4.662  14.313  0.00  0.00    +0.000 F 
ATOM     16  F   UNL     1       7.509   4.202  16.169  0.00  0.00    +0.000 F 
ENDBRANCH  10  13
ENDBRANCH   4   7
BRANCH   1  17
ATOM     17  C   UNL     1      -0.148  10.215  20.796  0.00  0.00    +0.000 C 
BRANCH  17  18
ATOM     18  C   UNL     1      -0.861  11.289  19.963  0.00  0.00    +0.000 C 
BRANCH  18  21
ATOM     19  C   UNL     1      -2.137  11.215  17.872  0.00  0.00    +0.000 C 
ATOM     20  O   UNL     1      -1.523  12.184  17.420  0.00  0.00    +0.000 OA
ATOM     21  N   UNL     1      -1.929  10.743  19.150  0.00  0.00    +0.000 N 
ATOM     22  H   UNL     1      -2.364   9.861  19.396  0.00  0.00    +0.000 HD
BRANCH  19  23
ATOM     23  C   UNL     1      -3.223  10.461  17.076  0.00  0.00    +0.000 C 
BRANCH  23  24
ATOM     24  N   UNL     1      -2.647   9.762  15.898  0.00  0.00    +0.000 NA
ATOM     25  C   UNL     1      -3.208  10.201  14.624  0.00  0.00    +0.000 C 
ATOM     26  H   UNL     1      -2.828   8.763  16.001  0.00  0.00    +0.000 HD
ENDBRANCH  23  24
BRANCH  23  28
ATOM     27  C   UNL     1      -5.526  11.370  17.803  0.00  0.00    +0.000 C 
ATOM     28  C   UNL     1      -4.400  11.412  16.785  0.00  0.00    +0.000 C 
ENDBRANCH  23  28
ENDBRANCH  19  23
ENDBRANCH  18  21
ENDBRANCH  17  18
ENDBRANCH   1  17
TORSDOF 8
ENDMDL
MODEL 5
REMARK VINA RESULT:      -7.5      0.483      1.298
REMARK  Name = 
REMARK  10 active torsions:
REMARK  status: ('A' for Active; 'I' for Inactive)
REMARK    1  A    between atoms: C_1  and  C_2
REMARK    2  A    between atoms: C_2  and  C_3
REMARK    3  A    between atoms: C_3  and  N_4
REMARK    4  A    between atoms: C_3  and  C_6
REMARK    5  A    between atoms: N_4  and  C_5
REMARK    6  A    between atoms: N_8  and  C_9
REMARK    7  A    between atoms: C_9  and  C_10
REMARK    8  A    between atoms: C_10  and  C_11
REMARK    9  A    between atoms: C_14  and  C_15
REMARK   10  A    between atoms: C_18  and  C_19
REMARK                            x       y       z     vdW  Elec       q    Type
REMARK                         _______ _______ _______ _____ _____    ______ ____
ROOT
ATOM      1  C   UNL     1       1.035   9.039  20.201  0.00  0.00    +0.000 A 
ATOM      2  C   UNL     1       1.427   9.462  18.930  0.00  0.00    +0.000 A 
ATOM      3  C   UNL     1       2.204   8.644  18.108  0.00  0.00    +0.000 A 
ATOM      4  C   UNL     1       2.666   7.390  18.536  0.00  0.00    +0.000 A 
ATOM      5  C   UNL     1       2.293   6.985  19.829  0.00  0.00    +0.000 A 
ATOM      6  C   UNL     1       1.490   7.793  20.648  0.00  0.00    +0.000 A 
ENDROOT
BRANCH   4   7
ATOM      7  C   UNL     1       3.520   6.560  17.657  0.00  0.00    +0.000 A 
ATOM      8  C   UNL     1       3.395   5.156  17.643  0.00  0.00    +0.000 A 
ATOM      9  C   UNL     1       4.217   4.352  16.849  0.00  0.00    +0.000 A 
ATOM     10  C   UNL     1       5.183   4.927  16.018  0.00  0.00    +0.000 A 
ATOM     11  C   UNL     1       5.311   6.322  16.006  0.00  0.00    +0.000 A 
ATOM     12  C   UNL     1       4.496   7.123  16.817  0.00  0.00    +0.000 A 
BRANCH  10  13
ATOM     13  C   UNL     1       6.069   4.069  15.151  0.00  0.00    +0.000 C 
ATOM     14  F   UNL     1       7.373   4.467  15.140  0.00  0.00    +0.000 F 
ATOM     15  F   UNL     1       6.081   2.766  15.547  0.00  0.00    +0.000 F 
ATOM     16  F   UNL     1       5.673   4.061  13.847  0.00  0.00    +0.000 F 
ENDBRANCH  10  13
ENDBRANCH   4   7
BRANCH   1  17
ATOM     17  C   UNL     1       0.208   9.919  21.113  0.00  0.00    +0.000 C 
BRANCH  17  18
ATOM     18  C   UNL     1      -0.552  11.041  20.392  0.00  0.00    +0.000 C 
BRANCH  18  21
ATOM     19  C   UNL     1      -2.133  11.410  18.557  0.00  0.00    +0.000 C 
ATOM     20  O   UNL     1      -2.091  12.632  18.717  0.00  0.00    +0.000 OA
ATOM     21  N   UNL     1      -1.460  10.535  19.383  0.00  0.00    +0.000 N 
ATOM     22  H   UNL     1      -1.428   9.563  19.101  0.00  0.00    +0.000 HD
BRANCH  19  23
ATOM     23  C   UNL     1      -2.969  10.735  17.449  0.00  0.00    +0.000 C 
BRANCH  23  24
ATOM     24  N   UNL     1      -2.153  10.475  16.234  0.00  0.00    +0.000 NA
ATOM     25  C   UNL     1      -2.945  10.319  15.018  0.00  0.00    +0.000 C 
ATOM     26  H   UNL     1      -1.623   9.617  16.385  0.00  0.00    +0.000 HD
ENDBRANCH  23  24
BRANCH  23  28
ATOM     27  C   UNL     1      -5.462  11.051  18.035  0.00  0.00    +0.000 C 
ATOM     28  C   UNL     1      -4.269  11.532  17.228  0.00  0.00    +0.000 C 
ENDBRANCH  23  28
ENDBRANCH  19  23
ENDBRANCH  18  21
ENDBRANCH  17  18
ENDBRANCH   1  17
TORSDOF 8
ENDMDL
MODEL 6
REMARK VINA RESULT:      -7.4      6.648      9.696
REMARK  Name = 
REMARK  10 active torsions:
REMARK  status: ('A' for Active; 'I' for Inactive)
REMARK    1  A    between atoms: C_1  and  C_2
REMARK    2  A    between atoms: C_2  and  C_3
REMARK    3  A    between atoms: C_3  and  N_4
REMARK    4  A    between atoms: C_3  and  C_6
REMARK    5  A    between atoms: N_4  and  C_5
REMARK    6  A    between atoms: N_8  and  C_9
REMARK    7  A    between atoms: C_9  and  C_10
REMARK    8  A    between atoms: C_10  and  C_11
REMARK    9  A    between atoms: C_14  and  C_15
REMARK   10  A    between atoms: C_18  and  C_19
REMARK                            x       y       z     vdW  Elec       q    Type
REMARK                         _______ _______ _______ _____ _____    ______ ____
ROOT
ATOM      1  C   UNL     1       2.542   7.727  18.455  0.00  0.00    +0.000 A 
ATOM      2  C   UNL     1       1.949   8.881  17.940  0.00  0.00    +0.000 A 
ATOM      3  C   UNL     1       1.138   9.691  18.736  0.00  0.00    +0.000 A 
ATOM      4  C   UNL     1       0.843   9.359  20.067  0.00  0.00    +0.000 A 
ATOM      5  C   UNL     1       1.417   8.179  20.569  0.00  0.00    +0.000 A 
ATOM      6  C   UNL     1       2.255   7.377  19.780  0.00  0.00    +0.000 A 
ENDROOT
BRANCH   4   7
ATOM      7  C   UNL     1      -0.052  10.217  20.878  0.00  0.00    +0.000 A 
ATOM      8  C   UNL     1      -0.251   9.962  22.249  0.00  0.00    +0.000 A 
ATOM      9  C   UNL     1      -1.120  10.736  23.023  0.00  0.00    +0.000 A 
ATOM     10  C   UNL     1      -1.807  11.813  22.456  0.00  0.00    +0.000 A 
ATOM     11  C   UNL     1      -1.609  12.092  21.096  0.00  0.00    +0.000 A 
ATOM     12  C   UNL     1      -0.750  11.302  20.321  0.00  0.00    +0.000 A 
BRANCH  10  13
ATOM     13  C   UNL     1      -2.739  12.660  23.284  0.00  0.00    +0.000 C 
ATOM     14  F   UNL     1      -3.632  13.374  22.541  0.00  0.00    +0.000 F 
ATOM     15  F   UNL     1      -3.484  11.920  24.151  0.00  0.00    +0.000 F 
ATOM     16  F   UNL     1      -2.076  13.574  24.045  0.00  0.00    +0.000 F 
ENDBRANCH  10  13
ENDBRANCH   4   7
BRANCH   1  17
ATOM     17  C   UNL     1       3.410   6.828  17.601  0.00  0.00    +0.000 C 
BRANCH  17  18
ATOM     18  C   UNL     1       4.296   5.860  18.398  0.00  0.00    +0.000 C 
BRANCH  18  21
ATOM     19  C   UNL     1       4.230   3.660  19.475  0.00  0.00    +0.000 C 
ATOM     20  O   UNL     1       5.461   3.585  19.481  0.00  0.00    +0.000 OA
ATOM     21  N   UNL     1       3.559   4.716  18.896  0.00  0.00    +0.000 N 
ATOM     22  H   UNL     1       2.561   4.777  19.058  0.00  0.00    +0.000 HD
BRANCH  19  23
ATOM     23  C   UNL     1       3.318   2.569  20.073  0.00  0.00    +0.000 C 
BRANCH  23  24
ATOM     24  N   UNL     1       2.708   1.726  19.011  0.00  0.00    +0.000 NA
ATOM     25  C   UNL     1       3.510   1.645  17.794  0.00  0.00    +0.000 C 
ATOM     26  H   UNL     1       1.800   2.124  18.772  0.00  0.00    +0.000 HD
ENDBRANCH  23  24
BRANCH  23  28
ATOM     27  C   UNL     1       0.918   3.388  20.552  0.00  0.00    +0.000 C 
ATOM     28  C   UNL     1       2.334   3.211  21.070  0.00  0.00    +0.000 C 
ENDBRANCH  23  28
ENDBRANCH  19  23
ENDBRANCH  18  21
ENDBRANCH  17  18
ENDBRANCH   1  17
TORSDOF 8
ENDMDL
MODEL 7
REMARK VINA RESULT:      -7.3      6.624      9.770
REMARK  Name = 
REMARK  10 active torsions:
REMARK  status: ('A' for Active; 'I' for Inactive)
REMARK    1  A    between atoms: C_1  and  C_2
REMARK    2  A    between atoms: C_2  and  C_3
REMARK    3  A    between atoms: C_3  and  N_4
REMARK    4  A    between atoms: C_3  and  C_6
REMARK    5  A    between atoms: N_4  and  C_5
REMARK    6  A    between atoms: N_8  and  C_9
REMARK    7  A    between atoms: C_9  and  C_10
REMARK    8  A    between atoms: C_10  and  C_11
REMARK    9  A    between atoms: C_14  and  C_15
REMARK   10  A    between atoms: C_18  and  C_19
REMARK                            x       y       z     vdW  Elec       q    Type
REMARK                         _______ _______ _______ _____ _____    ______ ____
ROOT
ATOM      1  C   UNL     1       2.517   7.891  18.368  0.00  0.00    +0.000 A 
ATOM      2  C   UNL     1       2.273   7.590  19.709  0.00  0.00    +0.000 A 
ATOM      3  C   UNL     1       1.399   8.365  20.473  0.00  0.00    +0.000 A 
ATOM      4  C   UNL     1       0.768   9.503  19.947  0.00  0.00    +0.000 A 
ATOM      5  C   UNL     1       1.044   9.818  18.606  0.00  0.00    +0.000 A 
ATOM      6  C   UNL     1       1.901   9.026  17.827  0.00  0.00    +0.000 A 
ENDROOT
BRANCH   4   7
ATOM      7  C   UNL     1      -0.125  10.329  20.792  0.00  0.00    +0.000 A 
ATOM      8  C   UNL     1      -0.241  10.084  22.175  0.00  0.00    +0.000 A 
ATOM      9  C   UNL     1      -1.106  10.825  22.983  0.00  0.00    +0.000 A 
ATOM     10  C   UNL     1      -1.874  11.860  22.439  0.00  0.00    +0.000 A 
ATOM     11  C   UNL     1      -1.759  12.129  21.068  0.00  0.00    +0.000 A 
ATOM     12  C   UNL     1      -0.903  11.371  20.259  0.00  0.00    +0.000 A 
BRANCH  10  13
ATOM     13  C   UNL     1      -2.803  12.672  23.304  0.00  0.00    +0.000 C 
ATOM     14  F   UNL     1      -2.163  13.601  24.070  0.00  0.00    +0.000 F 
ATOM     15  F   UNL     1      -3.724  13.361  22.576  0.00  0.00    +0.000 F 
ATOM     16  F   UNL     1      -3.514  11.901  24.174  0.00  0.00    +0.000 F 
ENDBRANCH  10  13
ENDBRANCH   4   7
BRANCH   1  17
ATOM     17  C   UNL     1       3.475   7.073  17.529  0.00  0.00    +0.000 C 
BRANCH  17  18
ATOM     18  C   UNL     1       4.347   6.099  18.333  0.00  0.00    +0.000 C 
BRANCH  18  21
ATOM     19  C   UNL     1       4.239   3.905  19.420  0.00  0.00    +0.000 C 
ATOM     20  O   UNL     1       5.464   3.776  19.364  0.00  0.00    +0.000 OA
ATOM     21  N   UNL     1       3.587   4.989  18.872  0.00  0.00    +0.000 N 
ATOM     22  H   UNL     1       2.602   5.094  19.084  0.00  0.00    +0.000 HD
BRANCH  19  23
ATOM     23  C   UNL     1       3.311   2.856  20.068  0.00  0.00    +0.000 C 
BRANCH  23  24
ATOM     24  N   UNL     1       2.659   1.999  19.043  0.00  0.00    +0.000 NA
ATOM     25  C   UNL     1       3.546   1.611  17.952  0.00  0.00    +0.000 C 
ATOM     26  H   UNL     1       1.873   2.517  18.649  0.00  0.00    +0.000 HD
ENDBRANCH  23  24
BRANCH  23  28
ATOM     27  C   UNL     1       1.391   2.632  21.778  0.00  0.00    +0.000 C 
ATOM     28  C   UNL     1       2.364   3.553  21.063  0.00  0.00    +0.000 C 
ENDBRANCH  23  28
ENDBRANCH  19  23
ENDBRANCH  18  21
ENDBRANCH  17  18
ENDBRANCH   1  17
TORSDOF 8
ENDMDL
MODEL 8
REMARK VINA RESULT:      -7.3      6.563      9.786
REMARK  Name = 
REMARK  10 active torsions:
REMARK  status: ('A' for Active; 'I' for Inactive)
REMARK    1  A    between atoms: C_1  and  C_2
REMARK    2  A    between atoms: C_2  and  C_3
REMARK    3  A    between atoms: C_3  and  N_4
REMARK    4  A    between atoms: C_3  and  C_6
REMARK    5  A    between atoms: N_4  and  C_5
REMARK    6  A    between atoms: N_8  and  C_9
REMARK    7  A    between atoms: C_9  and  C_10
REMARK    8  A    between atoms: C_10  and  C_11
REMARK    9  A    between atoms: C_14  and  C_15
REMARK   10  A    between atoms: C_18  and  C_19
REMARK                            x       y       z     vdW  Elec       q    Type
REMARK                         _______ _______ _______ _____ _____    ______ ____
ROOT
ATOM      1  C   UNL     1       2.424   8.212  18.317  0.00  0.00    +0.000 A 
ATOM      2  C   UNL     1       2.140   7.828  19.629  0.00  0.00    +0.000 A 
ATOM      3  C   UNL     1       1.253   8.563  20.418  0.00  0.00    +0.000 A 
ATOM      4  C   UNL     1       0.650   9.741  19.950  0.00  0.00    +0.000 A 
ATOM      5  C   UNL     1       0.967  10.138  18.641  0.00  0.00    +0.000 A 
ATOM      6  C   UNL     1       1.836   9.387  17.836  0.00  0.00    +0.000 A 
ENDROOT
BRANCH   4   7
ATOM      7  C   UNL     1      -0.257  10.521  20.823  0.00  0.00    +0.000 A 
ATOM      8  C   UNL     1      -0.339  10.252  22.204  0.00  0.00    +0.000 A 
ATOM      9  C   UNL     1      -1.217  10.950  23.038  0.00  0.00    +0.000 A 
ATOM     10  C   UNL     1      -2.031  11.963  22.523  0.00  0.00    +0.000 A 
ATOM     11  C   UNL     1      -1.951  12.255  21.154  0.00  0.00    +0.000 A 
ATOM     12  C   UNL     1      -1.082  11.541  20.319  0.00  0.00    +0.000 A 
BRANCH  10  13
ATOM     13  C   UNL     1      -2.974  12.728  23.416  0.00  0.00    +0.000 C 
ATOM     14  F   UNL     1      -2.357  13.680  24.172  0.00  0.00    +0.000 F 
ATOM     15  F   UNL     1      -3.942  13.380  22.715  0.00  0.00    +0.000 F 
ATOM     16  F   UNL     1      -3.628  11.922  24.297  0.00  0.00    +0.000 F 
ENDBRANCH  10  13
ENDBRANCH   4   7
BRANCH   1  17
ATOM     17  C   UNL     1       3.396   7.438  17.454  0.00  0.00    +0.000 C 
BRANCH  17  18
ATOM     18  C   UNL     1       4.046   6.236  18.153  0.00  0.00    +0.000 C 
BRANCH  18  21
ATOM     19  C   UNL     1       3.685   3.918  17.441  0.00  0.00    +0.000 C 
ATOM     20  O   UNL     1       4.738   3.913  16.799  0.00  0.00    +0.000 OA
ATOM     21  N   UNL     1       3.222   5.045  18.087  0.00  0.00    +0.000 N 
ATOM     22  H   UNL     1       2.430   4.932  18.708  0.00  0.00    +0.000 HD
BRANCH  19  23
ATOM     23  C   UNL     1       2.762   2.687  17.555  0.00  0.00    +0.000 C 
BRANCH  23  24
ATOM     24  N   UNL     1       1.373   3.079  17.908  0.00  0.00    +0.000 NA
ATOM     25  C   UNL     1       0.743   2.193  18.882  0.00  0.00    +0.000 C 
ATOM     26  H   UNL     1       0.813   3.068  17.055  0.00  0.00    +0.000 HD
ENDBRANCH  23  24
BRANCH  23  28
ATOM     27  C   UNL     1       4.159   2.202  19.670  0.00  0.00    +0.000 C 
ATOM     28  C   UNL     1       3.418   1.636  18.471  0.00  0.00    +0.000 C 
ENDBRANCH  23  28
ENDBRANCH  19  23
ENDBRANCH  18  21
ENDBRANCH  17  18
ENDBRANCH   1  17
TORSDOF 8
ENDMDL
MODEL 9
REMARK VINA RESULT:      -7.3      6.323      9.462
REMARK  Name = 
REMARK  10 active torsions:
REMARK  status: ('A' for Active; 'I' for Inactive)
REMARK    1  A    between atoms: C_1  and  C_2
REMARK    2  A    between atoms: C_2  and  C_3
REMARK    3  A    between atoms: C_3  and  N_4
REMARK    4  A    between atoms: C_3  and  C_6
REMARK    5  A    between atoms: N_4  and  C_5
REMARK    6  A    between atoms: N_8  and  C_9
REMARK    7  A    between atoms: C_9  and  C_10
REMARK    8  A    between atoms: C_10  and  C_11
REMARK    9  A    between atoms: C_14  and  C_15
REMARK   10  A    between atoms: C_18  and  C_19
REMARK                            x       y       z     vdW  Elec       q    Type
REMARK                         _______ _______ _______ _____ _____    ______ ____
ROOT
ATOM      1  C   UNL     1       2.552   4.783  19.381  0.00  0.00    +0.000 A 
ATOM      2  C   UNL     1       1.816   4.916  20.560  0.00  0.00    +0.000 A 
ATOM      3  C   UNL     1       1.313   6.155  20.958  0.00  0.00    +0.000 A 
ATOM      4  C   UNL     1       1.564   7.325  20.225  0.00  0.00    +0.000 A 
ATOM      5  C   UNL     1       2.333   7.188  19.057  0.00  0.00    +0.000 A 
ATOM      6  C   UNL     1       2.817   5.940  18.639  0.00  0.00    +0.000 A 
ENDROOT
BRANCH   4   7
ATOM      7  C   UNL     1       1.049   8.633  20.692  0.00  0.00    +0.000 A 
ATOM      8  C   UNL     1       0.640   8.813  22.029  0.00  0.00    +0.000 A 
ATOM      9  C   UNL     1       0.116  10.026  22.480  0.00  0.00    +0.000 A 
ATOM     10  C   UNL     1       0.002  11.117  21.613  0.00  0.00    +0.000 A 
ATOM     11  C   UNL     1       0.419  10.962  20.284  0.00  0.00    +0.000 A 
ATOM     12  C   UNL     1       0.929   9.737  19.832  0.00  0.00    +0.000 A 
BRANCH  10  13
ATOM     13  C   UNL     1      -0.553  12.434  22.093  0.00  0.00    +0.000 C 
ATOM     14  F   UNL     1      -1.063  12.383  23.356  0.00  0.00    +0.000 F 
ATOM     15  F   UNL     1       0.385  13.421  22.109  0.00  0.00    +0.000 F 
ATOM     16  F   UNL     1      -1.565  12.892  21.304  0.00  0.00    +0.000 F 
ENDBRANCH  10  13
ENDBRANCH   4   7
BRANCH   1  17
ATOM     17  C   UNL     1       3.121   3.451  18.943  0.00  0.00    +0.000 C 
BRANCH  17  18
ATOM     18  C   UNL     1       4.621   3.281  19.219  0.00  0.00    +0.000 C 
BRANCH  18  21
ATOM     19  C   UNL     1       6.382   4.866  18.594  0.00  0.00    +0.000 C 
ATOM     20  O   UNL     1       6.470   5.282  19.751  0.00  0.00    +0.000 OA
ATOM     21  N   UNL     1       5.446   3.926  18.218  0.00  0.00    +0.000 N 
ATOM     22  H   UNL     1       5.530   3.533  17.288  0.00  0.00    +0.000 HD
BRANCH  19  23
ATOM     23  C   UNL     1       7.274   5.380  17.444  0.00  0.00    +0.000 C 
BRANCH  23  24
ATOM     24  N   UNL     1       8.030   6.596  17.844  0.00  0.00    +0.000 NA
ATOM     25  C   UNL     1       7.378   7.844  17.462  0.00  0.00    +0.000 C 
ATOM     26  H   UNL     1       8.947   6.562  17.397  0.00  0.00    +0.000 HD
ENDBRANCH  23  24
BRANCH  23  28
ATOM     27  C   UNL     1       7.018   4.805  14.941  0.00  0.00    +0.000 C 
ATOM     28  C   UNL     1       6.435   5.503  16.158  0.00  0.00    +0.000 C 
ENDBRANCH  23  28
ENDBRANCH  19  23
ENDBRANCH  18  21
ENDBRANCH  17  18
ENDBRANCH   1  17
TORSDOF 8
ENDMDL
