MODEL 1
REMARK VINA RESULT:      -7.9      0.000      0.000
REMARK  Name = 
REMARK  7 active torsions:
REMARK  status: ('A' for Active; 'I' for Inactive)
REMARK    1  A    between atoms: C_1  and  O_2
REMARK    2  A    between atoms: O_2  and  C_3
REMARK    3  A    between atoms: C_8  and  S_9
REMARK    4  A    between atoms: S_9  and  C_11
REMARK    5  A    between atoms: C_11  and  C_12
REMARK    6  A    between atoms: C_15  and  C_16
REMARK    7  A    between atoms: C_17  and  N_18
REMARK                            x       y       z     vdW  Elec       q    Type
REMARK                         _______ _______ _______ _____ _____    ______ ____
ROOT
ATOM      1  C   UNL     1       1.126   8.567  20.417  0.00  0.00    +0.000 C 
ENDROOT
BRANCH   1   2
ATOM      2  C   UNL     1       1.947   7.780  19.419  0.00  0.00    +0.000 A 
ATOM      3  N   UNL     1       2.576   8.539  18.485  0.00  0.00    +0.000 NA
ATOM      4  C   UNL     1       3.375   7.902  17.607  0.00  0.00    +0.000 A 
ATOM      5  C   UNL     1       3.625   6.530  17.606  0.00  0.00    +0.000 A 
ATOM      6  C   UNL     1       4.644   6.012  16.626  0.00  0.00    +0.000 C 
ATOM      7  C   UNL     1       2.968   5.715  18.566  0.00  0.00    +0.000 A 
ATOM      8  C   UNL     1       2.087   6.379  19.472  0.00  0.00    +0.000 A 
ATOM      9 CL   UNL     1       1.076   5.510  20.592  0.00  0.00    +0.000 Cl
BRANCH   7  10
ATOM     10  N   UNL     1       3.293   4.345  18.604  0.00  0.00    +0.000 N 
ATOM     11  C   UNL     1       2.958   3.478  17.463  0.00  0.00    +0.000 C 
ATOM     12  C   UNL     1       2.764   2.045  17.952  0.00  0.00    +0.000 C 
ATOM     13  C   UNL     1       3.982   1.551  18.731  0.00  0.00    +0.000 C 
ATOM     14  C   UNL     1       4.369   2.539  19.834  0.00  0.00    +0.000 C 
ATOM     15  C   UNL     1       4.546   3.953  19.271  0.00  0.00    +0.000 C 
ENDBRANCH   7  10
ENDBRANCH   1   2
BRANCH   1  16
ATOM     16  S   UNL     1       1.244  10.352  20.107  0.00  0.00    +0.000 S 
ATOM     17  O   UNL     1       1.000  11.188  21.419  0.00  0.00    +0.000 OA
BRANCH  16  23
ATOM     18  C   UNL     1      -4.211  11.194  17.211  0.00  0.00    +0.000 A 
ATOM     19  C   UNL     1      -3.614  10.453  16.184  0.00  0.00    +0.000 A 
ATOM     20  C   UNL     1      -2.296   9.989  16.287  0.00  0.00    +0.000 A 
ATOM     21  C   UNL     1      -1.611  10.302  17.463  0.00  0.00    +0.000 A 
ATOM     22  N   UNL     1      -0.341  10.022  17.904  0.00  0.00    +0.000 N 
ATOM     23  C   UNL     1      -0.195  10.553  19.156  0.00  0.00    +0.000 A 
ATOM     24  N   UNL     1      -1.281  11.193  19.538  0.00  0.00    +0.000 NA
ATOM     25  C   UNL     1      -2.169  11.045  18.496  0.00  0.00    +0.000 A 
ATOM     26  C   UNL     1      -3.485  11.513  18.367  0.00  0.00    +0.000 A 
ATOM     27  H   UNL     1       0.374   9.504  17.410  0.00  0.00    +0.000 HD
BRANCH  18  29
ATOM     28  C   UNL     1      -6.379  11.181  18.165  0.00  0.00    +0.000 C 
ATOM     29  O   UNL     1      -5.488  11.692  17.179  0.00  0.00    +0.000 OA
ENDBRANCH  18  29
ENDBRANCH  16  23
ENDBRANCH   1  16
TORSDOF 5
ENDMDL
MODEL 2
REMARK VINA RESULT:      -7.7      0.567      1.097
REMARK  Name = 
REMARK  7 active torsions:
REMARK  status: ('A' for Active; 'I' for Inactive)
REMARK    1  A    between atoms: C_1  and  O_2
REMARK    2  A    between atoms: O_2  and  C_3
REMARK    3  A    between atoms: C_8  and  S_9
REMARK    4  A    between atoms: S_9  and  C_11
REMARK    5  A    between atoms: C_11  and  C_12
REMARK    6  A    between atoms: C_15  and  C_16
REMARK    7  A    between atoms: C_17  and  N_18
REMARK                            x       y       z     vdW  Elec       q    Type
REMARK                         _______ _______ _______ _____ _____    ______ ____
ROOT
ATOM      1  C   UNL     1       1.077   8.910  20.432  0.00  0.00    +0.000 C 
ENDROOT
BRANCH   1   2
ATOM      2  C   UNL     1       1.862   8.066  19.452  0.00  0.00    +0.000 A 
ATOM      3  N   UNL     1       2.503   8.774  18.487  0.00  0.00    +0.000 NA
ATOM      4  C   UNL     1       3.272   8.085  17.622  0.00  0.00    +0.000 A 
ATOM      5  C   UNL     1       3.480   6.706  17.663  0.00  0.00    +0.000 A 
ATOM      6  C   UNL     1       4.472   6.125  16.690  0.00  0.00    +0.000 C 
ATOM      7  C   UNL     1       2.809   5.943  18.657  0.00  0.00    +0.000 A 
ATOM      8  C   UNL     1       1.959   6.663  19.549  0.00  0.00    +0.000 A 
ATOM      9 CL   UNL     1       0.935   5.864  20.708  0.00  0.00    +0.000 Cl
BRANCH   7  10
ATOM     10  N   UNL     1       3.092   4.566  18.736  0.00  0.00    +0.000 N 
ATOM     11  C   UNL     1       3.786   4.024  19.915  0.00  0.00    +0.000 C 
ATOM     12  C   UNL     1       4.557   2.768  19.519  0.00  0.00    +0.000 C 
ATOM     13  C   UNL     1       3.647   1.742  18.847  0.00  0.00    +0.000 C 
ATOM     14  C   UNL     1       2.857   2.374  17.700  0.00  0.00    +0.000 C 
ATOM     15  C   UNL     1       2.109   3.627  18.169  0.00  0.00    +0.000 C 
ENDBRANCH   7  10
ENDBRANCH   1   2
BRANCH   1  16
ATOM     16  S   UNL     1       1.158  10.672  19.999  0.00  0.00    +0.000 S 
ATOM     17  O   UNL     1       0.968  11.591  21.262  0.00  0.00    +0.000 OA
BRANCH  16  23
ATOM     18  C   UNL     1      -4.458  11.162  17.338  0.00  0.00    +0.000 A 
ATOM     19  C   UNL     1      -3.825  10.576  16.235  0.00  0.00    +0.000 A 
ATOM     20  C   UNL     1      -2.463  10.248  16.261  0.00  0.00    +0.000 A 
ATOM     21  C   UNL     1      -1.771  10.535  17.440  0.00  0.00    +0.000 A 
ATOM     22  N   UNL     1      -0.464  10.355  17.820  0.00  0.00    +0.000 N 
ATOM     23  C   UNL     1      -0.328  10.795  19.108  0.00  0.00    +0.000 A 
ATOM     24  N   UNL     1      -1.460  11.283  19.573  0.00  0.00    +0.000 NA
ATOM     25  C   UNL     1      -2.366  11.127  18.548  0.00  0.00    +0.000 A 
ATOM     26  C   UNL     1      -3.727  11.461  18.495  0.00  0.00    +0.000 A 
ATOM     27  H   UNL     1       0.282   9.959  17.264  0.00  0.00    +0.000 HD
BRANCH  18  29
ATOM     28  C   UNL     1      -6.065  12.879  17.061  0.00  0.00    +0.000 C 
ATOM     29  O   UNL     1      -5.780  11.522  17.383  0.00  0.00    +0.000 OA
ENDBRANCH  18  29
ENDBRANCH  16  23
ENDBRANCH   1  16
TORSDOF 5
ENDMDL
MODEL 3
REMARK VINA RESULT:      -7.6      0.772      1.850
REMARK  Name = 
REMARK  7 active torsions:
REMARK  status: ('A' for Active; 'I' for Inactive)
REMARK    1  A    between atoms: C_1  and  O_2
REMARK    2  A    between atoms: O_2  and  C_3
REMARK    3  A    between atoms: C_8  and  S_9
REMARK    4  A    between atoms: S_9  and  C_11
REMARK    5  A    between atoms: C_11  and  C_12
REMARK    6  A    between atoms: C_15  and  C_16
REMARK    7  A    between atoms: C_17  and  N_18
REMARK                            x       y       z     vdW  Elec       q    Type
REMARK                         _______ _______ _______ _____ _____    ______ ____
ROOT
ATOM      1  C   UNL     1       1.205   8.441  20.445  0.00  0.00    +0.000 C 
ENDROOT
BRANCH   1   2
ATOM      2  C   UNL     1       2.000   7.612  19.461  0.00  0.00    +0.000 A 
ATOM      3  N   UNL     1       2.689   8.336  18.542  0.00  0.00    +0.000 NA
ATOM      4  C   UNL     1       3.468   7.658  17.678  0.00  0.00    +0.000 A 
ATOM      5  C   UNL     1       3.642   6.275  17.677  0.00  0.00    +0.000 A 
ATOM      6  C   UNL     1       4.650   5.703  16.716  0.00  0.00    +0.000 C 
ATOM      7  C   UNL     1       2.922   5.495  18.622  0.00  0.00    +0.000 A 
ATOM      8  C   UNL     1       2.061   6.205  19.512  0.00  0.00    +0.000 A 
ATOM      9 CL   UNL     1       0.982   5.391  20.609  0.00  0.00    +0.000 Cl
BRANCH   7  10
ATOM     10  N   UNL     1       3.170   4.109  18.661  0.00  0.00    +0.000 N 
ATOM     11  C   UNL     1       3.821   3.511  19.837  0.00  0.00    +0.000 C 
ATOM     12  C   UNL     1       4.571   2.250  19.417  0.00  0.00    +0.000 C 
ATOM     13  C   UNL     1       3.652   1.270  18.690  0.00  0.00    +0.000 C 
ATOM     14  C   UNL     1       2.906   1.959  17.547  0.00  0.00    +0.000 C 
ATOM     15  C   UNL     1       2.178   3.215  18.040  0.00  0.00    +0.000 C 
ENDBRANCH   7  10
ENDBRANCH   1   2
BRANCH   1  16
ATOM     16  S   UNL     1       1.342  10.214  20.078  0.00  0.00    +0.000 S 
ATOM     17  O   UNL     1       1.150  11.093  21.370  0.00  0.00    +0.000 OA
BRANCH  16  23
ATOM     18  C   UNL     1      -3.573  10.848  16.296  0.00  0.00    +0.000 A 
ATOM     19  C   UNL     1      -4.161  11.469  17.405  0.00  0.00    +0.000 A 
ATOM     20  C   UNL     1      -3.478  11.596  18.622  0.00  0.00    +0.000 A 
ATOM     21  C   UNL     1      -2.184  11.073  18.671  0.00  0.00    +0.000 A 
ATOM     22  N   UNL     1      -1.239  11.019  19.666  0.00  0.00    +0.000 N 
ATOM     23  C   UNL     1      -0.121  10.410  19.163  0.00  0.00    +0.000 A 
ATOM     24  N   UNL     1      -0.298  10.034  17.914  0.00  0.00    +0.000 NA
ATOM     25  C   UNL     1      -1.575  10.440  17.594  0.00  0.00    +0.000 A 
ATOM     26  C   UNL     1      -2.282  10.311  16.390  0.00  0.00    +0.000 A 
ATOM     27  H   UNL     1      -1.329  11.371  20.610  0.00  0.00    +0.000 HD
BRANCH  18  29
ATOM     28  C   UNL     1      -3.451   9.914  14.124  0.00  0.00    +0.000 C 
ATOM     29  O   UNL     1      -4.181  10.675  15.080  0.00  0.00    +0.000 OA
ENDBRANCH  18  29
ENDBRANCH  16  23
ENDBRANCH   1  16
TORSDOF 5
ENDMDL
MODEL 4
REMARK VINA RESULT:      -7.3      3.179      9.471
REMARK  Name = 
REMARK  7 active torsions:
REMARK  status: ('A' for Active; 'I' for Inactive)
REMARK    1  A    between atoms: C_1  and  O_2
REMARK    2  A    between atoms: O_2  and  C_3
REMARK    3  A    between atoms: C_8  and  S_9
REMARK    4  A    between atoms: S_9  and  C_11
REMARK    5  A    between atoms: C_11  and  C_12
REMARK    6  A    between atoms: C_15  and  C_16
REMARK    7  A    between atoms: C_17  and  N_18
REMARK                            x       y       z     vdW  Elec       q    Type
REMARK                         _______ _______ _______ _____ _____    ______ ____
ROOT
ATOM      1  C   UNL     1      -0.264  11.544  21.105  0.00  0.00    +0.000 C 
ENDROOT
BRANCH   1   2
ATOM      2  C   UNL     1      -1.503  11.753  20.264  0.00  0.00    +0.000 A 
ATOM      3  N   UNL     1      -1.450  11.186  19.032  0.00  0.00    +0.000 NA
ATOM      4  C   UNL     1      -2.549  11.280  18.259  0.00  0.00    +0.000 A 
ATOM      5  C   UNL     1      -3.743  11.890  18.642  0.00  0.00    +0.000 A 
ATOM      6  C   UNL     1      -4.908  11.791  17.692  0.00  0.00    +0.000 C 
ATOM      7  C   UNL     1      -3.819  12.501  19.923  0.00  0.00    +0.000 A 
ATOM      8  C   UNL     1      -2.643  12.441  20.729  0.00  0.00    +0.000 A 
ATOM      9 CL   UNL     1      -2.510  13.285  22.246  0.00  0.00    +0.000 Cl
BRANCH   7  10
ATOM     10  N   UNL     1      -5.056  13.041  20.325  0.00  0.00    +0.000 N 
ATOM     11  C   UNL     1      -5.843  12.374  21.374  0.00  0.00    +0.000 C 
ATOM     12  C   UNL     1      -7.324  12.681  21.174  0.00  0.00    +0.000 C 
ATOM     13  C   UNL     1      -7.578  14.187  21.112  0.00  0.00    +0.000 C 
ATOM     14  C   UNL     1      -6.659  14.860  20.092  0.00  0.00    +0.000 C 
ATOM     15  C   UNL     1      -5.190  14.507  20.354  0.00  0.00    +0.000 C 
ENDBRANCH   7  10
ENDBRANCH   1   2
BRANCH   1  16
ATOM     16  S   UNL     1      -0.315   9.950  21.973  0.00  0.00    +0.000 S 
ATOM     17  O   UNL     1       0.490   9.997  23.325  0.00  0.00    +0.000 OA
BRANCH  16  23
ATOM     18  C   UNL     1       3.397   6.304  18.540  0.00  0.00    +0.000 A 
ATOM     19  C   UNL     1       3.304   7.340  17.603  0.00  0.00    +0.000 A 
ATOM     20  C   UNL     1       2.529   8.482  17.848  0.00  0.00    +0.000 A 
ATOM     21  C   UNL     1       1.858   8.534  19.072  0.00  0.00    +0.000 A 
ATOM     22  N   UNL     1       1.032   9.471  19.642  0.00  0.00    +0.000 N 
ATOM     23  C   UNL     1       0.667   9.022  20.882  0.00  0.00    +0.000 A 
ATOM     24  N   UNL     1       1.176   7.834  21.134  0.00  0.00    +0.000 NA
ATOM     25  C   UNL     1       1.919   7.518  20.019  0.00  0.00    +0.000 A 
ATOM     26  C   UNL     1       2.689   6.377  19.746  0.00  0.00    +0.000 A 
ATOM     27  H   UNL     1       0.741  10.351  19.238  0.00  0.00    +0.000 HD
BRANCH  18  29
ATOM     28  C   UNL     1       5.192   5.228  17.432  0.00  0.00    +0.000 C 
ATOM     29  O   UNL     1       4.122   5.153  18.367  0.00  0.00    +0.000 OA
ENDBRANCH  18  29
ENDBRANCH  16  23
ENDBRANCH   1  16
TORSDOF 5
ENDMDL
MODEL 5
REMARK VINA RESULT:      -7.2      2.793      9.351
REMARK  Name = 
REMARK  7 active torsions:
REMARK  status: ('A' for Active; 'I' for Inactive)
REMARK    1  A    between atoms: C_1  and  O_2
REMARK    2  A    between atoms: O_2  and  C_3
REMARK    3  A    between atoms: C_8  and  S_9
REMARK    4  A    between atoms: S_9  and  C_11
REMARK    5  A    between atoms: C_11  and  C_12
REMARK    6  A    between atoms: C_15  and  C_16
REMARK    7  A    between atoms: C_17  and  N_18
REMARK                            x       y       z     vdW  Elec       q    Type
REMARK                         _______ _______ _______ _____ _____    ______ ____
ROOT
ATOM      1  C   UNL     1      -0.220   9.871  18.056  0.00  0.00    +0.000 C 
ENDROOT
BRANCH   1   2
ATOM      2  C   UNL     1      -1.216  10.774  18.747  0.00  0.00    +0.000 A 
ATOM      3  N   UNL     1      -0.685  11.560  19.719  0.00  0.00    +0.000 NA
ATOM      4  C   UNL     1      -1.510  12.433  20.328  0.00  0.00    +0.000 A 
ATOM      5  C   UNL     1      -2.857  12.609  20.015  0.00  0.00    +0.000 A 
ATOM      6  C   UNL     1      -3.593  13.721  20.716  0.00  0.00    +0.000 C 
ATOM      7  C   UNL     1      -3.438  11.790  19.009  0.00  0.00    +0.000 A 
ATOM      8  C   UNL     1      -2.579  10.833  18.391  0.00  0.00    +0.000 A 
ATOM      9 CL   UNL     1      -3.170   9.640  17.269  0.00  0.00    +0.000 Cl
BRANCH   7  10
ATOM     10  N   UNL     1      -4.777  12.036  18.648  0.00  0.00    +0.000 N 
ATOM     11  C   UNL     1      -5.135  12.227  17.234  0.00  0.00    +0.000 C 
ATOM     12  C   UNL     1      -6.379  13.104  17.137  0.00  0.00    +0.000 C 
ATOM     13  C   UNL     1      -7.530  12.535  17.964  0.00  0.00    +0.000 C 
ATOM     14  C   UNL     1      -7.085  12.242  19.398  0.00  0.00    +0.000 C 
ATOM     15  C   UNL     1      -5.833  11.358  19.419  0.00  0.00    +0.000 C 
ENDBRANCH   7  10
ENDBRANCH   1   2
BRANCH   1  16
ATOM     16  S   UNL     1       1.464  10.147  18.678  0.00  0.00    +0.000 S 
ATOM     17  O   UNL     1       2.396  10.777  17.577  0.00  0.00    +0.000 OA
BRANCH  16  23
ATOM     18  C   UNL     1       3.255   4.177  18.585  0.00  0.00    +0.000 A 
ATOM     19  C   UNL     1       2.822   4.178  19.916  0.00  0.00    +0.000 A 
ATOM     20  C   UNL     1       2.311   5.335  20.519  0.00  0.00    +0.000 A 
ATOM     21  C   UNL     1       2.254   6.484  19.726  0.00  0.00    +0.000 A 
ATOM     22  N   UNL     1       1.823   7.764  19.970  0.00  0.00    +0.000 N 
ATOM     23  C   UNL     1       1.970   8.492  18.821  0.00  0.00    +0.000 A 
ATOM     24  N   UNL     1       2.505   7.770  17.858  0.00  0.00    +0.000 NA
ATOM     25  C   UNL     1       2.687   6.520  18.405  0.00  0.00    +0.000 A 
ATOM     26  C   UNL     1       3.209   5.354  17.826  0.00  0.00    +0.000 A 
ATOM     27  H   UNL     1       1.448   8.124  20.837  0.00  0.00    +0.000 HD
BRANCH  18  29
ATOM     28  C   UNL     1       3.264   1.824  18.323  0.00  0.00    +0.000 C 
ATOM     29  O   UNL     1       3.778   3.091  17.931  0.00  0.00    +0.000 OA
ENDBRANCH  18  29
ENDBRANCH  16  23
ENDBRANCH   1  16
TORSDOF 5
ENDMDL
MODEL 6
REMARK VINA RESULT:      -7.2      3.615      9.171
REMARK  Name = 
REMARK  7 active torsions:
REMARK  status: ('A' for Active; 'I' for Inactive)
REMARK    1  A    between atoms: C_1  and  O_2
REMARK    2  A    between atoms: O_2  and  C_3
REMARK    3  A    between atoms: C_8  and  S_9
REMARK    4  A    between atoms: S_9  and  C_11
REMARK    5  A    between atoms: C_11  and  C_12
REMARK    6  A    between atoms: C_15  and  C_16
REMARK    7  A    between atoms: C_17  and  N_18
REMARK                            x       y       z     vdW  Elec       q    Type
REMARK                         _______ _______ _______ _____ _____    ______ ____
ROOT
ATOM      1  C   UNL     1       1.900   7.483  21.002  0.00  0.00    +0.000 C 
ENDROOT
BRANCH   1   2
ATOM      2  C   UNL     1       1.205   8.756  20.573  0.00  0.00    +0.000 A 
ATOM      3  N   UNL     1       1.134   8.934  19.229  0.00  0.00    +0.000 NA
ATOM      4  C   UNL     1       0.469  10.017  18.783  0.00  0.00    +0.000 A 
ATOM      5  C   UNL     1      -0.174  10.949  19.596  0.00  0.00    +0.000 A 
ATOM      6  C   UNL     1      -0.974  12.029  18.915  0.00  0.00    +0.000 C 
ATOM      7  C   UNL     1      -0.103  10.790  21.006  0.00  0.00    +0.000 A 
ATOM      8  C   UNL     1       0.637   9.668  21.486  0.00  0.00    +0.000 A 
ATOM      9 CL   UNL     1       0.966   9.425  23.178  0.00  0.00    +0.000 Cl
BRANCH   7  10
ATOM     10  N   UNL     1      -0.825  11.693  21.810  0.00  0.00    +0.000 N 
ATOM     11  C   UNL     1      -1.591  11.200  22.966  0.00  0.00    +0.000 C 
ATOM     12  C   UNL     1      -2.759  12.142  23.243  0.00  0.00    +0.000 C 
ATOM     13  C   UNL     1      -2.284  13.583  23.422  0.00  0.00    +0.000 C 
ATOM     14  C   UNL     1      -1.396  14.019  22.256  0.00  0.00    +0.000 C 
ATOM     15  C   UNL     1      -0.247  13.029  22.036  0.00  0.00    +0.000 C 
ENDBRANCH   7  10
ENDBRANCH   1   2
BRANCH   1  16
ATOM     16  S   UNL     1       1.518   6.111  19.876  0.00  0.00    +0.000 S 
ATOM     17  O   UNL     1       1.300   4.761  20.656  0.00  0.00    +0.000 OA
BRANCH  16  23
ATOM     18  C   UNL     1       6.783   5.494  16.596  0.00  0.00    +0.000 A 
ATOM     19  C   UNL     1       7.343   5.158  17.834  0.00  0.00    +0.000 A 
ATOM     20  C   UNL     1       6.576   5.154  19.008  0.00  0.00    +0.000 A 
ATOM     21  C   UNL     1       5.229   5.500  18.878  0.00  0.00    +0.000 A 
ATOM     22  N   UNL     1       4.202   5.599  19.784  0.00  0.00    +0.000 N 
ATOM     23  C   UNL     1       3.068   5.956  19.108  0.00  0.00    +0.000 A 
ATOM     24  N   UNL     1       3.306   6.131  17.825  0.00  0.00    +0.000 NA
ATOM     25  C   UNL     1       4.645   5.850  17.667  0.00  0.00    +0.000 A 
ATOM     26  C   UNL     1       5.434   5.862  16.507  0.00  0.00    +0.000 A 
ATOM     27  H   UNL     1       4.252   5.431  20.780  0.00  0.00    +0.000 HD
BRANCH  18  29
ATOM     28  C   UNL     1       6.872   4.834  14.323  0.00  0.00    +0.000 C 
ATOM     29  O   UNL     1       7.469   5.534  15.409  0.00  0.00    +0.000 OA
ENDBRANCH  18  29
ENDBRANCH  16  23
ENDBRANCH   1  16
TORSDOF 5
ENDMDL
MODEL 7
REMARK VINA RESULT:      -7.2      6.368      8.596
REMARK  Name = 
REMARK  7 active torsions:
REMARK  status: ('A' for Active; 'I' for Inactive)
REMARK    1  A    between atoms: C_1  and  O_2
REMARK    2  A    between atoms: O_2  and  C_3
REMARK    3  A    between atoms: C_8  and  S_9
REMARK    4  A    between atoms: S_9  and  C_11
REMARK    5  A    between atoms: C_11  and  C_12
REMARK    6  A    between atoms: C_15  and  C_16
REMARK    7  A    between atoms: C_17  and  N_18
REMARK                            x       y       z     vdW  Elec       q    Type
REMARK                         _______ _______ _______ _____ _____    ______ ____
ROOT
ATOM      1  C   UNL     1       6.114   7.241  17.327  0.00  0.00    +0.000 C 
ENDROOT
BRANCH   1   2
ATOM      2  C   UNL     1       5.354   5.934  17.329  0.00  0.00    +0.000 A 
ATOM      3  N   UNL     1       5.739   5.055  16.368  0.00  0.00    +0.000 NA
ATOM      4  C   UNL     1       5.144   3.848  16.360  0.00  0.00    +0.000 A 
ATOM      5  C   UNL     1       4.186   3.424  17.279  0.00  0.00    +0.000 A 
ATOM      6  C   UNL     1       3.722   1.993  17.189  0.00  0.00    +0.000 C 
ATOM      7  C   UNL     1       3.758   4.330  18.287  0.00  0.00    +0.000 A 
ATOM      8  C   UNL     1       4.354   5.626  18.275  0.00  0.00    +0.000 A 
ATOM      9 CL   UNL     1       3.819   6.907  19.326  0.00  0.00    +0.000 Cl
BRANCH   7  10
ATOM     10  N   UNL     1       2.850   3.860  19.257  0.00  0.00    +0.000 N 
ATOM     11  C   UNL     1       3.223   3.872  20.680  0.00  0.00    +0.000 C 
ATOM     12  C   UNL     1       2.465   2.769  21.414  0.00  0.00    +0.000 C 
ATOM     13  C   UNL     1       0.958   2.888  21.198  0.00  0.00    +0.000 C 
ATOM     14  C   UNL     1       0.621   2.989  19.709  0.00  0.00    +0.000 C 
ATOM     15  C   UNL     1       1.417   4.115  19.038  0.00  0.00    +0.000 C 
ENDBRANCH   7  10
ENDBRANCH   1   2
BRANCH   1  16
ATOM     16  S   UNL     1       7.863   6.988  17.747  0.00  0.00    +0.000 S 
ATOM     17  O   UNL     1       8.029   6.165  19.079  0.00  0.00    +0.000 OA
BRANCH  16  23
ATOM     18  C   UNL     1       9.264  12.996  18.643  0.00  0.00    +0.000 A 
ATOM     19  C   UNL     1       9.892  12.525  19.803  0.00  0.00    +0.000 A 
ATOM     20  C   UNL     1       9.874  11.167  20.146  0.00  0.00    +0.000 A 
ATOM     21  C   UNL     1       9.201  10.308  19.273  0.00  0.00    +0.000 A 
ATOM     22  N   UNL     1       8.985   8.953  19.283  0.00  0.00    +0.000 N 
ATOM     23  C   UNL     1       8.277   8.624  18.160  0.00  0.00    +0.000 A 
ATOM     24  N   UNL     1       7.989   9.689  17.441  0.00  0.00    +0.000 NA
ATOM     25  C   UNL     1       8.558  10.743  18.121  0.00  0.00    +0.000 A 
ATOM     26  C   UNL     1       8.575  12.110  17.804  0.00  0.00    +0.000 A 
ATOM     27  H   UNL     1       9.296   8.292  19.983  0.00  0.00    +0.000 HD
BRANCH  18  29
ATOM     28  C   UNL     1      10.404  14.801  17.619  0.00  0.00    +0.000 C 
ATOM     29  O   UNL     1       9.227  14.308  18.249  0.00  0.00    +0.000 OA
ENDBRANCH  18  29
ENDBRANCH  16  23
ENDBRANCH   1  16
TORSDOF 5
ENDMDL
MODEL 8
REMARK VINA RESULT:      -7.1      6.417      8.452
REMARK  Name = 
REMARK  7 active torsions:
REMARK  status: ('A' for Active; 'I' for Inactive)
REMARK    1  A    between atoms: C_1  and  O_2
REMARK    2  A    between atoms: O_2  and  C_3
REMARK    3  A    between atoms: C_8  and  S_9
REMARK    4  A    between atoms: S_9  and  C_11
REMARK    5  A    between atoms: C_11  and  C_12
REMARK    6  A    between atoms: C_15  and  C_16
REMARK    7  A    between atoms: C_17  and  N_18
REMARK                            x       y       z     vdW  Elec       q    Type
REMARK                         _______ _______ _______ _____ _____    ______ ____
ROOT
ATOM      1  C   UNL     1       6.121   7.121  17.278  0.00  0.00    +0.000 C 
ENDROOT
BRANCH   1   2
ATOM      2  C   UNL     1       5.333   5.831  17.298  0.00  0.00    +0.000 A 
ATOM      3  N   UNL     1       5.651   4.961  16.305  0.00  0.00    +0.000 NA
ATOM      4  C   UNL     1       5.029   3.767  16.306  0.00  0.00    +0.000 A 
ATOM      5  C   UNL     1       4.108   3.348  17.266  0.00  0.00    +0.000 A 
ATOM      6  C   UNL     1       3.608   1.930  17.176  0.00  0.00    +0.000 C 
ATOM      7  C   UNL     1       3.750   4.246  18.308  0.00  0.00    +0.000 A 
ATOM      8  C   UNL     1       4.374   5.529  18.286  0.00  0.00    +0.000 A 
ATOM      9 CL   UNL     1       3.920   6.803  19.383  0.00  0.00    +0.000 Cl
BRANCH   7  10
ATOM     10  N   UNL     1       2.881   3.779  19.313  0.00  0.00    +0.000 N 
ATOM     11  C   UNL     1       1.430   3.741  19.072  0.00  0.00    +0.000 C 
ATOM     12  C   UNL     1       0.690   3.872  20.400  0.00  0.00    +0.000 C 
ATOM     13  C   UNL     1       1.150   2.815  21.403  0.00  0.00    +0.000 C 
ATOM     14  C   UNL     1       2.673   2.810  21.538  0.00  0.00    +0.000 C 
ATOM     15  C   UNL     1       3.349   2.676  20.169  0.00  0.00    +0.000 C 
ENDBRANCH   7  10
ENDBRANCH   1   2
BRANCH   1  16
ATOM     16  S   UNL     1       7.821   6.865  17.864  0.00  0.00    +0.000 S 
ATOM     17  O   UNL     1       7.853   6.132  19.257  0.00  0.00    +0.000 OA
BRANCH  16  23
ATOM     18  C   UNL     1       9.211  12.910  18.486  0.00  0.00    +0.000 A 
ATOM     19  C   UNL     1       9.890  12.486  19.634  0.00  0.00    +0.000 A 
ATOM     20  C   UNL     1       9.897  11.140  20.026  0.00  0.00    +0.000 A 
ATOM     21  C   UNL     1       9.195  10.247  19.213  0.00  0.00    +0.000 A 
ATOM     22  N   UNL     1       8.990   8.891  19.281  0.00  0.00    +0.000 N 
ATOM     23  C   UNL     1       8.239   8.517  18.200  0.00  0.00    +0.000 A 
ATOM     24  N   UNL     1       7.913   9.554  17.457  0.00  0.00    +0.000 NA
ATOM     25  C   UNL     1       8.501  10.636  18.074  0.00  0.00    +0.000 A 
ATOM     26  C   UNL     1       8.495  11.990  17.708  0.00  0.00    +0.000 A 
ATOM     27  H   UNL     1       9.335   8.258  19.990  0.00  0.00    +0.000 HD
BRANCH  18  29
ATOM     28  C   UNL     1       9.101  15.204  19.061  0.00  0.00    +0.000 C 
ATOM     29  O   UNL     1       9.147  14.207  18.047  0.00  0.00    +0.000 OA
ENDBRANCH  18  29
ENDBRANCH  16  23
ENDBRANCH   1  16
TORSDOF 5
ENDMDL
MODEL 9
REMARK VINA RESULT:      -7.1      3.280      9.448
REMARK  Name = 
REMARK  7 active torsions:
REMARK  status: ('A' for Active; 'I' for Inactive)
REMARK    1  A    between atoms: C_1  and  O_2
REMARK    2  A    between atoms: O_2  and  C_3
REMARK    3  A    between atoms: C_8  and  S_9
REMARK    4  A    between atoms: S_9  and  C_11
REMARK    5  A    between atoms: C_11  and  C_12
REMARK    6  A    between atoms: C_15  and  C_16
REMARK    7  A    between atoms: C_17  and  N_18
REMARK                            x       y       z     vdW  Elec       q    Type
REMARK                         _______ _______ _______ _____ _____    ______ ____
ROOT
ATOM      1  C   UNL     1       0.634  10.502  19.750  0.00  0.00    +0.000 C 
ENDROOT
BRANCH   1   2
ATOM      2  C   UNL     1      -0.753  11.053  19.508  0.00  0.00    +0.000 A 
ATOM      3  N   UNL     1      -1.372  10.558  18.405  0.00  0.00    +0.000 NA
ATOM      4  C   UNL     1      -2.635  10.962  18.171  0.00  0.00    +0.000 A 
ATOM      5  C   UNL     1      -3.362  11.824  18.991  0.00  0.00    +0.000 A 
ATOM      6  C   UNL     1      -4.806  12.066  18.638  0.00  0.00    +0.000 C 
ATOM      7  C   UNL     1      -2.731  12.364  20.145  0.00  0.00    +0.000 A 
ATOM      8  C   UNL     1      -1.378  11.974  20.374  0.00  0.00    +0.000 A 
ATOM      9 CL   UNL     1      -0.408  12.675  21.638  0.00  0.00    +0.000 Cl
BRANCH   7  10
ATOM     10  N   UNL     1      -3.504  13.168  21.006  0.00  0.00    +0.000 N 
ATOM     11  C   UNL     1      -3.873  12.673  22.341  0.00  0.00    +0.000 C 
ATOM     12  C   UNL     1      -5.177  13.329  22.785  0.00  0.00    +0.000 C 
ATOM     13  C   UNL     1      -5.084  14.852  22.726  0.00  0.00    +0.000 C 
ATOM     14  C   UNL     1      -4.586  15.321  21.358  0.00  0.00    +0.000 C 
ATOM     15  C   UNL     1      -3.276  14.623  20.978  0.00  0.00    +0.000 C 
ENDBRANCH   7  10
ENDBRANCH   1   2
BRANCH   1  16
ATOM     16  S   UNL     1       0.628   9.254  21.069  0.00  0.00    +0.000 S 
ATOM     17  O   UNL     1       1.485   9.713  22.308  0.00  0.00    +0.000 OA
BRANCH  16  23
ATOM     18  C   UNL     1       3.910   5.146  17.721  0.00  0.00    +0.000 A 
ATOM     19  C   UNL     1       3.702   4.305  18.821  0.00  0.00    +0.000 A 
ATOM     20  C   UNL     1       2.999   4.739  19.953  0.00  0.00    +0.000 A 
ATOM     21  C   UNL     1       2.518   6.050  19.928  0.00  0.00    +0.000 A 
ATOM     22  N   UNL     1       1.803   6.797  20.831  0.00  0.00    +0.000 N 
ATOM     23  C   UNL     1       1.573   8.028  20.282  0.00  0.00    +0.000 A 
ATOM     24  N   UNL     1       2.126   8.137  19.092  0.00  0.00    +0.000 NA
ATOM     25  C   UNL     1       2.717   6.915  18.858  0.00  0.00    +0.000 A 
ATOM     26  C   UNL     1       3.436   6.465  17.741  0.00  0.00    +0.000 A 
ATOM     27  H   UNL     1       1.483   6.503  21.744  0.00  0.00    +0.000 HD
BRANCH  18  29
ATOM     28  C   UNL     1       5.957   5.215  16.534  0.00  0.00    +0.000 C 
ATOM     29  O   UNL     1       4.597   4.799  16.587  0.00  0.00    +0.000 OA
ENDBRANCH  18  29
ENDBRANCH  16  23
ENDBRANCH   1  16
TORSDOF 5
ENDMDL
