MODEL 1
REMARK VINA RESULT:      -7.1      0.000      0.000
REMARK  Name = 
REMARK  2 active torsions:
REMARK  status: ('A' for Active; 'I' for Inactive)
REMARK    1  A    between atoms: N_1  and  C_2
REMARK    2  A    between atoms: C_8  and  C_9
REMARK                            x       y       z     vdW  Elec       q    Type
REMARK                         _______ _______ _______ _____ _____    ______ ____
ROOT
ATOM      1  C   UNL     1       4.460   4.981  18.310  0.00  0.00    +0.000 A 
ATOM      2  C   UNL     1       5.160   4.991  17.086  0.00  0.00    +0.000 A 
ATOM      3  C   UNL     1       4.944   6.054  16.209  0.00  0.00    +0.000 A 
ATOM      4  N   UNL     1       4.147   7.106  16.499  0.00  0.00    +0.000 NA
ATOM      5  C   UNL     1       3.513   7.090  17.685  0.00  0.00    +0.000 A 
ATOM      6  C   UNL     1       3.597   6.058  18.614  0.00  0.00    +0.000 A 
ATOM      7  C   UNL     1       2.811   6.201  19.900  0.00  0.00    +0.000 C 
ATOM      8  N   UNL     1       1.847   7.283  19.878  0.00  0.00    +0.000 N 
ATOM      9  C   UNL     1       1.978   8.358  19.068  0.00  0.00    +0.000 C 
ATOM     10  S   UNL     1       1.146   9.766  19.376  0.00  0.00    +0.000 S 
ATOM     11  N   UNL     1       2.766   8.226  17.977  0.00  0.00    +0.000 N 
ATOM     12  C   UNL     1       5.623   6.075  14.866  0.00  0.00    +0.000 C 
ATOM     13  C   UNL     1       7.026   5.493  14.973  0.00  0.00    +0.000 C 
ATOM     14  C   UNL     1       6.971   4.059  15.476  0.00  0.00    +0.000 C 
ATOM     15  C   UNL     1       6.106   3.869  16.725  0.00  0.00    +0.000 C 
ATOM     16  H   UNL     1       1.268   7.416  20.698  0.00  0.00    +0.000 HD
ATOM     17  H   UNL     1       2.820   8.979  17.305  0.00  0.00    +0.000 HD
ENDROOT
BRANCH   7  18
ATOM     18  C   UNL     1       2.104   4.919  20.334  0.00  0.00    +0.000 A 
ATOM     19  C   UNL     1       2.432   4.319  21.562  0.00  0.00    +0.000 A 
ATOM     20  C   UNL     1       1.998   3.024  21.852  0.00  0.00    +0.000 A 
ATOM     21  C   UNL     1       1.203   2.332  20.941  0.00  0.00    +0.000 A 
ATOM     22  C   UNL     1       0.804   2.947  19.756  0.00  0.00    +0.000 A 
ATOM     23  C   UNL     1       1.239   4.238  19.458  0.00  0.00    +0.000 A 
ENDBRANCH   7  18
BRANCH   1  24
ATOM     24  N   UNL     1       4.836   4.037  19.292  0.00  0.00    +0.000 N 
ATOM     25  H   UNL     1       5.374   3.256  18.931  0.00  0.00    +0.000 HD
ATOM     26  H   UNL     1       4.078   3.674  19.858  0.00  0.00    +0.000 HD
ENDBRANCH   1  24
TORSDOF 2
ENDMDL
MODEL 2
REMARK VINA RESULT:      -7.1      3.281      6.355
REMARK  Name = 
REMARK  2 active torsions:
REMARK  status: ('A' for Active; 'I' for Inactive)
REMARK    1  A    between atoms: N_1  and  C_2
REMARK    2  A    between atoms: C_8  and  C_9
REMARK                            x       y       z     vdW  Elec       q    Type
REMARK                         _______ _______ _______ _____ _____    ______ ____
ROOT
ATOM      1  C   UNL     1       4.681   4.515  18.854  0.00  0.00    +0.000 A 
ATOM      2  C   UNL     1       3.357   4.110  19.118  0.00  0.00    +0.000 A 
ATOM      3  C   UNL     1       2.568   3.685  18.049  0.00  0.00    +0.000 A 
ATOM      4  N   UNL     1       3.029   3.582  16.783  0.00  0.00    +0.000 NA
ATOM      5  C   UNL     1       4.304   3.944  16.559  0.00  0.00    +0.000 A 
ATOM      6  C   UNL     1       5.167   4.443  17.529  0.00  0.00    +0.000 A 
ATOM      7  C   UNL     1       6.573   4.808  17.102  0.00  0.00    +0.000 C 
ATOM      8  N   UNL     1       6.755   4.846  15.664  0.00  0.00    +0.000 N 
ATOM      9  C   UNL     1       5.974   4.143  14.813  0.00  0.00    +0.000 C 
ATOM     10  S   UNL     1       6.470   3.835  13.254  0.00  0.00    +0.000 S 
ATOM     11  N   UNL     1       4.760   3.748  15.260  0.00  0.00    +0.000 N 
ATOM     12  C   UNL     1       1.131   3.303  18.276  0.00  0.00    +0.000 C 
ATOM     13  C   UNL     1       0.975   2.601  19.618  0.00  0.00    +0.000 C 
ATOM     14  C   UNL     1       1.429   3.510  20.751  0.00  0.00    +0.000 C 
ATOM     15  C   UNL     1       2.799   4.153  20.523  0.00  0.00    +0.000 C 
ATOM     16  H   UNL     1       7.667   5.110  15.311  0.00  0.00    +0.000 HD
ATOM     17  H   UNL     1       4.116   3.297  14.626  0.00  0.00    +0.000 HD
ENDROOT
BRANCH   7  18
ATOM     18  C   UNL     1       7.075   6.122  17.697  0.00  0.00    +0.000 A 
ATOM     19  C   UNL     1       6.770   7.340  17.066  0.00  0.00    +0.000 A 
ATOM     20  C   UNL     1       7.432   8.511  17.436  0.00  0.00    +0.000 A 
ATOM     21  C   UNL     1       8.373   8.488  18.463  0.00  0.00    +0.000 A 
ATOM     22  C   UNL     1       8.625   7.303  19.152  0.00  0.00    +0.000 A 
ATOM     23  C   UNL     1       7.971   6.127  18.782  0.00  0.00    +0.000 A 
ENDBRANCH   7  18
BRANCH   1  24
ATOM     24  N   UNL     1       5.550   4.730  19.947  0.00  0.00    +0.000 N 
ATOM     25  H   UNL     1       6.458   5.102  19.687  0.00  0.00    +0.000 HD
ATOM     26  H   UNL     1       5.691   3.931  20.554  0.00  0.00    +0.000 HD
ENDBRANCH   1  24
TORSDOF 2
ENDMDL
MODEL 3
REMARK VINA RESULT:      -6.8      6.956      9.900
REMARK  Name = 
REMARK  2 active torsions:
REMARK  status: ('A' for Active; 'I' for Inactive)
REMARK    1  A    between atoms: N_1  and  C_2
REMARK    2  A    between atoms: C_8  and  C_9
REMARK                            x       y       z     vdW  Elec       q    Type
REMARK                         _______ _______ _______ _____ _____    ______ ____
ROOT
ATOM      1  C   UNL     1      -2.785  11.897  19.108  0.00  0.00    +0.000 A 
ATOM      2  C   UNL     1      -1.574  11.521  19.724  0.00  0.00    +0.000 A 
ATOM      3  C   UNL     1      -0.728  10.645  19.044  0.00  0.00    +0.000 A 
ATOM      4  N   UNL     1      -0.982  10.187  17.798  0.00  0.00    +0.000 NA
ATOM      5  C   UNL     1      -2.129  10.582  17.218  0.00  0.00    +0.000 A 
ATOM      6  C   UNL     1      -3.079  11.400  17.818  0.00  0.00    +0.000 A 
ATOM      7  C   UNL     1      -4.320  11.743  17.021  0.00  0.00    +0.000 C 
ATOM      8  N   UNL     1      -4.483  10.944  15.823  0.00  0.00    +0.000 N 
ATOM      9  C   UNL     1      -3.441  10.357  15.192  0.00  0.00    +0.000 C 
ATOM     10  S   UNL     1      -3.574   9.851  13.612  0.00  0.00    +0.000 S 
ATOM     11  N   UNL     1      -2.313  10.151  15.908  0.00  0.00    +0.000 N 
ATOM     12  C   UNL     1       0.544  10.170  19.690  0.00  0.00    +0.000 C 
ATOM     13  C   UNL     1       1.168  11.286  20.516  0.00  0.00    +0.000 C 
ATOM     14  C   UNL     1       0.206  11.747  21.601  0.00  0.00    +0.000 C 
ATOM     15  C   UNL     1      -1.208  12.042  21.096  0.00  0.00    +0.000 C 
ATOM     16  H   UNL     1      -5.308  11.105  15.258  0.00  0.00    +0.000 HD
ATOM     17  H   UNL     1      -1.545   9.639  15.496  0.00  0.00    +0.000 HD
ENDROOT
BRANCH   7  18
ATOM     18  C   UNL     1      -5.611  11.682  17.835  0.00  0.00    +0.000 A 
ATOM     19  C   UNL     1      -6.416  12.827  17.959  0.00  0.00    +0.000 A 
ATOM     20  C   UNL     1      -7.444  12.867  18.901  0.00  0.00    +0.000 A 
ATOM     21  C   UNL     1      -7.705  11.755  19.700  0.00  0.00    +0.000 A 
ATOM     22  C   UNL     1      -6.967  10.586  19.530  0.00  0.00    +0.000 A 
ATOM     23  C   UNL     1      -5.934  10.542  18.593  0.00  0.00    +0.000 A 
ENDBRANCH   7  18
BRANCH   1  24
ATOM     24  N   UNL     1      -3.535  12.948  19.682  0.00  0.00    +0.000 N 
ATOM     25  H   UNL     1      -3.385  13.067  20.679  0.00  0.00    +0.000 HD
ATOM     26  H   UNL     1      -4.531  12.917  19.506  0.00  0.00    +0.000 HD
ENDBRANCH   1  24
TORSDOF 2
ENDMDL
MODEL 4
REMARK VINA RESULT:      -6.8      5.268      8.718
REMARK  Name = 
REMARK  2 active torsions:
REMARK  status: ('A' for Active; 'I' for Inactive)
REMARK    1  A    between atoms: N_1  and  C_2
REMARK    2  A    between atoms: C_8  and  C_9
REMARK                            x       y       z     vdW  Elec       q    Type
REMARK                         _______ _______ _______ _____ _____    ______ ____
ROOT
ATOM      1  C   UNL     1      -1.707  10.946  18.299  0.00  0.00    +0.000 A 
ATOM      2  C   UNL     1      -3.068  11.263  18.490  0.00  0.00    +0.000 A 
ATOM      3  C   UNL     1      -3.393  12.261  19.408  0.00  0.00    +0.000 A 
ATOM      4  N   UNL     1      -2.468  12.983  20.078  0.00  0.00    +0.000 NA
ATOM      5  C   UNL     1      -1.176  12.684  19.858  0.00  0.00    +0.000 A 
ATOM      6  C   UNL     1      -0.729  11.671  19.017  0.00  0.00    +0.000 A 
ATOM      7  C   UNL     1       0.766  11.468  18.889  0.00  0.00    +0.000 C 
ATOM      8  N   UNL     1       1.539  12.188  19.881  0.00  0.00    +0.000 N 
ATOM      9  C   UNL     1       1.080  13.302  20.494  0.00  0.00    +0.000 C 
ATOM     10  S   UNL     1       2.125  14.350  21.258  0.00  0.00    +0.000 S 
ATOM     11  N   UNL     1      -0.257  13.503  20.507  0.00  0.00    +0.000 N 
ATOM     12  C   UNL     1      -4.835  12.587  19.688  0.00  0.00    +0.000 C 
ATOM     13  C   UNL     1      -5.661  12.475  18.414  0.00  0.00    +0.000 C 
ATOM     14  C   UNL     1      -5.576  11.066  17.847  0.00  0.00    +0.000 C 
ATOM     15  C   UNL     1      -4.148  10.526  17.730  0.00  0.00    +0.000 C 
ATOM     16  H   UNL     1       2.546  12.074  19.869  0.00  0.00    +0.000 HD
ATOM     17  H   UNL     1      -0.642  14.278  21.028  0.00  0.00    +0.000 HD
ENDROOT
BRANCH   7  18
ATOM     18  C   UNL     1       1.191  10.001  18.901  0.00  0.00    +0.000 A 
ATOM     19  C   UNL     1       1.024   9.233  20.066  0.00  0.00    +0.000 A 
ATOM     20  C   UNL     1       1.641   7.986  20.182  0.00  0.00    +0.000 A 
ATOM     21  C   UNL     1       2.395   7.478  19.126  0.00  0.00    +0.000 A 
ATOM     22  C   UNL     1       2.501   8.194  17.936  0.00  0.00    +0.000 A 
ATOM     23  C   UNL     1       1.891   9.443  17.816  0.00  0.00    +0.000 A 
ENDBRANCH   7  18
BRANCH   1  24
ATOM     24  N   UNL     1      -1.356  10.106  17.219  0.00  0.00    +0.000 N 
ATOM     25  H   UNL     1      -2.115   9.929  16.569  0.00  0.00    +0.000 HD
ATOM     26  H   UNL     1      -0.938   9.220  17.477  0.00  0.00    +0.000 HD
ENDBRANCH   1  24
TORSDOF 2
ENDMDL
MODEL 5
REMARK VINA RESULT:      -6.8      9.786     12.002
REMARK  Name = 
REMARK  2 active torsions:
REMARK  status: ('A' for Active; 'I' for Inactive)
REMARK    1  A    between atoms: N_1  and  C_2
REMARK    2  A    between atoms: C_8  and  C_9
REMARK                            x       y       z     vdW  Elec       q    Type
REMARK                         _______ _______ _______ _____ _____    ______ ____
ROOT
ATOM      1  C   UNL     1       7.504  14.712  17.876  0.00  0.00    +0.000 A 
ATOM      2  C   UNL     1       6.228  15.230  18.179  0.00  0.00    +0.000 A 
ATOM      3  C   UNL     1       6.132  16.563  18.578  0.00  0.00    +0.000 A 
ATOM      4  N   UNL     1       7.191  17.400  18.630  0.00  0.00    +0.000 NA
ATOM      5  C   UNL     1       8.395  16.892  18.308  0.00  0.00    +0.000 A 
ATOM      6  C   UNL     1       8.627  15.567  17.958  0.00  0.00    +0.000 A 
ATOM      7  C   UNL     1      10.048  15.162  17.629  0.00  0.00    +0.000 C 
ATOM      8  N   UNL     1      11.037  16.158  17.992  0.00  0.00    +0.000 N 
ATOM      9  C   UNL     1      10.739  17.473  18.102  0.00  0.00    +0.000 C 
ATOM     10  S   UNL     1      11.938  18.627  18.060  0.00  0.00    +0.000 S 
ATOM     11  N   UNL     1       9.443  17.806  18.299  0.00  0.00    +0.000 N 
ATOM     12  C   UNL     1       4.799  17.139  18.969  0.00  0.00    +0.000 C 
ATOM     13  C   UNL     1       3.695  16.561  18.094  0.00  0.00    +0.000 C 
ATOM     14  C   UNL     1       3.639  15.048  18.237  0.00  0.00    +0.000 C 
ATOM     15  C   UNL     1       4.996  14.357  18.089  0.00  0.00    +0.000 C 
ATOM     16  H   UNL     1      12.011  15.939  17.824  0.00  0.00    +0.000 HD
ATOM     17  H   UNL     1       9.195  18.770  18.471  0.00  0.00    +0.000 HD
ENDROOT
BRANCH   7  18
ATOM     18  C   UNL     1      10.459  13.819  18.228  0.00  0.00    +0.000 A 
ATOM     19  C   UNL     1      10.455  13.642  19.622  0.00  0.00    +0.000 A 
ATOM     20  C   UNL     1      11.072  12.529  20.193  0.00  0.00    +0.000 A 
ATOM     21  C   UNL     1      11.664  11.563  19.381  0.00  0.00    +0.000 A 
ATOM     22  C   UNL     1      11.604  11.686  17.995  0.00  0.00    +0.000 A 
ATOM     23  C   UNL     1      10.993  12.800  17.418  0.00  0.00    +0.000 A 
ENDBRANCH   7  18
BRANCH   1  24
ATOM     24  N   UNL     1       7.587  13.443  17.260  0.00  0.00    +0.000 N 
ATOM     25  H   UNL     1       7.740  13.480  16.258  0.00  0.00    +0.000 HD
ATOM     26  H   UNL     1       6.812  12.818  17.447  0.00  0.00    +0.000 HD
ENDBRANCH   1  24
TORSDOF 2
ENDMDL
MODEL 6
REMARK VINA RESULT:      -6.6      3.294      6.280
REMARK  Name = 
REMARK  2 active torsions:
REMARK  status: ('A' for Active; 'I' for Inactive)
REMARK    1  A    between atoms: N_1  and  C_2
REMARK    2  A    between atoms: C_8  and  C_9
REMARK                            x       y       z     vdW  Elec       q    Type
REMARK                         _______ _______ _______ _____ _____    ______ ____
ROOT
ATOM      1  C   UNL     1       4.865   4.556  18.679  0.00  0.00    +0.000 A 
ATOM      2  C   UNL     1       3.511   4.328  19.000  0.00  0.00    +0.000 A 
ATOM      3  C   UNL     1       2.632   3.999  17.968  0.00  0.00    +0.000 A 
ATOM      4  N   UNL     1       3.024   3.826  16.686  0.00  0.00    +0.000 NA
ATOM      5  C   UNL     1       4.326   4.019  16.408  0.00  0.00    +0.000 A 
ATOM      6  C   UNL     1       5.284   4.411  17.337  0.00  0.00    +0.000 A 
ATOM      7  C   UNL     1       6.707   4.587  16.851  0.00  0.00    +0.000 C 
ATOM      8  N   UNL     1       6.834   4.589  15.407  0.00  0.00    +0.000 N 
ATOM      9  C   UNL     1       5.936   3.986  14.597  0.00  0.00    +0.000 C 
ATOM     10  S   UNL     1       6.325   3.603  13.024  0.00  0.00    +0.000 S 
ATOM     11  N   UNL     1       4.701   3.755  15.095  0.00  0.00    +0.000 N 
ATOM     12  C   UNL     1       1.168   3.808  18.255  0.00  0.00    +0.000 C 
ATOM     13  C   UNL     1       0.977   3.144  19.612  0.00  0.00    +0.000 C 
ATOM     14  C   UNL     1       1.589   3.996  20.714  0.00  0.00    +0.000 C 
ATOM     15  C   UNL     1       3.020   4.455  20.425  0.00  0.00    +0.000 C 
ATOM     16  H   UNL     1       7.758   4.731  15.015  0.00  0.00    +0.000 HD
ATOM     17  H   UNL     1       3.979   3.385  14.493  0.00  0.00    +0.000 HD
ENDROOT
BRANCH   7  18
ATOM     18  C   UNL     1       7.398   5.830  17.409  0.00  0.00    +0.000 A 
ATOM     19  C   UNL     1       8.096   5.757  18.626  0.00  0.00    +0.000 A 
ATOM     20  C   UNL     1       8.501   6.923  19.277  0.00  0.00    +0.000 A 
ATOM     21  C   UNL     1       8.251   8.168  18.703  0.00  0.00    +0.000 A 
ATOM     22  C   UNL     1       7.632   8.250  17.457  0.00  0.00    +0.000 A 
ATOM     23  C   UNL     1       7.220   7.088  16.805  0.00  0.00    +0.000 A 
ENDBRANCH   7  18
BRANCH   1  24
ATOM     24  N   UNL     1       5.798   4.666  19.735  0.00  0.00    +0.000 N 
ATOM     25  H   UNL     1       5.925   3.810  20.265  0.00  0.00    +0.000 HD
ATOM     26  H   UNL     1       5.632   5.427  20.383  0.00  0.00    +0.000 HD
ENDBRANCH   1  24
TORSDOF 2
ENDMDL
MODEL 7
REMARK VINA RESULT:      -6.5      0.344      1.086
REMARK  Name = 
REMARK  2 active torsions:
REMARK  status: ('A' for Active; 'I' for Inactive)
REMARK    1  A    between atoms: N_1  and  C_2
REMARK    2  A    between atoms: C_8  and  C_9
REMARK                            x       y       z     vdW  Elec       q    Type
REMARK                         _______ _______ _______ _____ _____    ______ ____
ROOT
ATOM      1  C   UNL     1       4.684   4.815  18.144  0.00  0.00    +0.000 A 
ATOM      2  C   UNL     1       5.305   4.918  16.882  0.00  0.00    +0.000 A 
ATOM      3  C   UNL     1       4.998   6.018  16.080  0.00  0.00    +0.000 A 
ATOM      4  N   UNL     1       4.185   7.021  16.477  0.00  0.00    +0.000 NA
ATOM      5  C   UNL     1       3.627   6.917  17.697  0.00  0.00    +0.000 A 
ATOM      6  C   UNL     1       3.805   5.842  18.559  0.00  0.00    +0.000 A 
ATOM      7  C   UNL     1       3.097   5.885  19.896  0.00  0.00    +0.000 C 
ATOM      8  N   UNL     1       2.096   6.929  19.993  0.00  0.00    +0.000 N 
ATOM      9  C   UNL     1       2.139   8.050  19.239  0.00  0.00    +0.000 C 
ATOM     10  S   UNL     1       1.280   9.407  19.675  0.00  0.00    +0.000 S 
ATOM     11  N   UNL     1       2.861   8.007  18.096  0.00  0.00    +0.000 N 
ATOM     12  C   UNL     1       5.590   6.136  14.703  0.00  0.00    +0.000 C 
ATOM     13  C   UNL     1       7.016   5.604  14.691  0.00  0.00    +0.000 C 
ATOM     14  C   UNL     1       7.043   4.143  15.116  0.00  0.00    +0.000 C 
ATOM     15  C   UNL     1       6.265   3.854  16.402  0.00  0.00    +0.000 C 
ATOM     16  H   UNL     1       1.566   6.996  20.854  0.00  0.00    +0.000 HD
ATOM     17  H   UNL     1       2.847   8.796  17.465  0.00  0.00    +0.000 HD
ENDROOT
BRANCH   7  18
ATOM     18  C   UNL     1       2.463   4.555  20.300  0.00  0.00    +0.000 A 
ATOM     19  C   UNL     1       1.523   3.941  19.455  0.00  0.00    +0.000 A 
ATOM     20  C   UNL     1       0.745   2.880  19.919  0.00  0.00    +0.000 A 
ATOM     21  C   UNL     1       0.923   2.395  21.213  0.00  0.00    +0.000 A 
ATOM     22  C   UNL     1       1.908   2.942  22.033  0.00  0.00    +0.000 A 
ATOM     23  C   UNL     1       2.685   4.007  21.577  0.00  0.00    +0.000 A 
ENDBRANCH   7  18
BRANCH   1  24
ATOM     24  N   UNL     1       5.153   3.836  19.047  0.00  0.00    +0.000 N 
ATOM     25  H   UNL     1       4.417   3.310  19.506  0.00  0.00    +0.000 HD
ATOM     26  H   UNL     1       5.800   4.169  19.752  0.00  0.00    +0.000 HD
ENDBRANCH   1  24
TORSDOF 2
ENDMDL
MODEL 8
REMARK VINA RESULT:      -6.5      9.566     11.814
REMARK  Name = 
REMARK  2 active torsions:
REMARK  status: ('A' for Active; 'I' for Inactive)
REMARK    1  A    between atoms: N_1  and  C_2
REMARK    2  A    between atoms: C_8  and  C_9
REMARK                            x       y       z     vdW  Elec       q    Type
REMARK                         _______ _______ _______ _____ _____    ______ ____
ROOT
ATOM      1  C   UNL     1       7.349  14.753  17.848  0.00  0.00    +0.000 A 
ATOM      2  C   UNL     1       6.051  15.245  18.095  0.00  0.00    +0.000 A 
ATOM      3  C   UNL     1       5.918  16.534  18.611  0.00  0.00    +0.000 A 
ATOM      4  N   UNL     1       6.966  17.359  18.826  0.00  0.00    +0.000 NA
ATOM      5  C   UNL     1       8.193  16.880  18.554  0.00  0.00    +0.000 A 
ATOM      6  C   UNL     1       8.458  15.593  18.099  0.00  0.00    +0.000 A 
ATOM      7  C   UNL     1       9.902  15.216  17.848  0.00  0.00    +0.000 C 
ATOM      8  N   UNL     1      10.855  16.170  18.381  0.00  0.00    +0.000 N 
ATOM      9  C   UNL     1      10.544  17.469  18.591  0.00  0.00    +0.000 C 
ATOM     10  S   UNL     1      11.738  18.618  18.754  0.00  0.00    +0.000 S 
ATOM     11  N   UNL     1       9.236  17.787  18.715  0.00  0.00    +0.000 N 
ATOM     12  C   UNL     1       4.556  17.076  18.947  0.00  0.00    +0.000 C 
ATOM     13  C   UNL     1       3.527  16.587  17.937  0.00  0.00    +0.000 C 
ATOM     14  C   UNL     1       3.466  15.067  17.931  0.00  0.00    +0.000 C 
ATOM     15  C   UNL     1       4.834  14.389  17.826  0.00  0.00    +0.000 C 
ATOM     16  H   UNL     1      11.841  15.964  18.271  0.00  0.00    +0.000 HD
ATOM     17  H   UNL     1       8.971  18.731  18.957  0.00  0.00    +0.000 HD
ENDROOT
BRANCH   7  18
ATOM     18  C   UNL     1      10.270  13.821  18.347  0.00  0.00    +0.000 A 
ATOM     19  C   UNL     1      10.707  12.843  17.437  0.00  0.00    +0.000 A 
ATOM     20  C   UNL     1      10.791  11.506  17.825  0.00  0.00    +0.000 A 
ATOM     21  C   UNL     1      10.480  11.135  19.132  0.00  0.00    +0.000 A 
ATOM     22  C   UNL     1      10.124  12.107  20.066  0.00  0.00    +0.000 A 
ATOM     23  C   UNL     1      10.033  13.445  19.681  0.00  0.00    +0.000 A 
ENDBRANCH   7  18
BRANCH   1  24
ATOM     24  N   UNL     1       7.486  13.549  17.123  0.00  0.00    +0.000 N 
ATOM     25  H   UNL     1       6.979  12.765  17.523  0.00  0.00    +0.000 HD
ATOM     26  H   UNL     1       8.439  13.258  16.940  0.00  0.00    +0.000 HD
ENDBRANCH   1  24
TORSDOF 2
ENDMDL
MODEL 9
REMARK VINA RESULT:      -6.4      5.097      8.349
REMARK  Name = 
REMARK  2 active torsions:
REMARK  status: ('A' for Active; 'I' for Inactive)
REMARK    1  A    between atoms: N_1  and  C_2
REMARK    2  A    between atoms: C_8  and  C_9
REMARK                            x       y       z     vdW  Elec       q    Type
REMARK                         _______ _______ _______ _____ _____    ______ ____
ROOT
ATOM      1  C   UNL     1       0.871  12.395  20.114  0.00  0.00    +0.000 A 
ATOM      2  C   UNL     1       1.108  13.781  20.205  0.00  0.00    +0.000 A 
ATOM      3  C   UNL     1       0.495  14.621  19.274  0.00  0.00    +0.000 A 
ATOM      4  N   UNL     1      -0.364  14.179  18.330  0.00  0.00    +0.000 NA
ATOM      5  C   UNL     1      -0.599  12.856  18.280  0.00  0.00    +0.000 A 
ATOM      6  C   UNL     1      -0.001  11.914  19.109  0.00  0.00    +0.000 A 
ATOM      7  C   UNL     1      -0.377  10.461  18.914  0.00  0.00    +0.000 C 
ATOM      8  N   UNL     1      -1.116  10.209  17.693  0.00  0.00    +0.000 N 
ATOM      9  C   UNL     1      -1.847  11.163  17.075  0.00  0.00    +0.000 C 
ATOM     10  S   UNL     1      -3.028  10.757  15.973  0.00  0.00    +0.000 S 
ATOM     11  N   UNL     1      -1.548  12.454  17.346  0.00  0.00    +0.000 N 
ATOM     12  C   UNL     1       0.769  16.100  19.296  0.00  0.00    +0.000 C 
ATOM     13  C   UNL     1       0.918  16.590  20.730  0.00  0.00    +0.000 C 
ATOM     14  C   UNL     1       2.061  15.865  21.425  0.00  0.00    +0.000 C 
ATOM     15  C   UNL     1       2.019  14.343  21.273  0.00  0.00    +0.000 C 
ATOM     16  H   UNL     1      -1.375   9.251  17.487  0.00  0.00    +0.000 HD
ATOM     17  H   UNL     1      -2.015  13.193  16.839  0.00  0.00    +0.000 HD
ENDROOT
BRANCH   7  18
ATOM     18  C   UNL     1       0.811   9.503  18.977  0.00  0.00    +0.000 A 
ATOM     19  C   UNL     1       1.639   9.338  17.854  0.00  0.00    +0.000 A 
ATOM     20  C   UNL     1       2.555   8.287  17.802  0.00  0.00    +0.000 A 
ATOM     21  C   UNL     1       2.683   7.416  18.882  0.00  0.00    +0.000 A 
ATOM     22  C   UNL     1       1.926   7.618  20.034  0.00  0.00    +0.000 A 
ATOM     23  C   UNL     1       1.005   8.664  20.090  0.00  0.00    +0.000 A 
ENDBRANCH   7  18
BRANCH   1  24
ATOM     24  N   UNL     1       1.300  11.567  21.175  0.00  0.00    +0.000 N 
ATOM     25  H   UNL     1       1.285  12.019  22.084  0.00  0.00    +0.000 HD
ATOM     26  H   UNL     1       2.204  11.130  21.046  0.00  0.00    +0.000 HD
ENDBRANCH   1  24
TORSDOF 2
ENDMDL
