MODEL 1
REMARK VINA RESULT:      -6.9      0.000      0.000
REMARK  Name = 
REMARK  11 active torsions:
REMARK  status: ('A' for Active; 'I' for Inactive)
REMARK    1  A    between atoms: C_1  and  C_2
REMARK    2  A    between atoms: C_7  and  C_8
REMARK    3  A    between atoms: C_9  and  C_10
REMARK    4  A    between atoms: C_15  and  O_16
REMARK    5  A    between atoms: O_16  and  C_17
REMARK    6  A    between atoms: C_17  and  C_18
REMARK    7  A    between atoms: C_18  and  C_19
REMARK    8  A    between atoms: C_19  and  C_20
REMARK    9  A    between atoms: C_20  and  N_21
REMARK   10  A    between atoms: N_21  and  C_22
REMARK   11  A    between atoms: N_21  and  C_23
REMARK                            x       y       z     vdW  Elec       q    Type
REMARK                         _______ _______ _______ _____ _____    ______ ____
ROOT
ATOM      1  C   UNL     1       2.500   4.484  19.405  0.00  0.00    +0.000 A 
ATOM      2  C   UNL     1       1.438   3.649  18.999  0.00  0.00    +0.000 A 
ATOM      3  C   UNL     1       1.667   2.417  18.385  0.00  0.00    +0.000 A 
ATOM      4  C   UNL     1       2.969   1.991  18.159  0.00  0.00    +0.000 A 
ATOM      5  C   UNL     1       4.035   2.807  18.543  0.00  0.00    +0.000 A 
ATOM      6  C   UNL     1       3.817   4.044  19.178  0.00  0.00    +0.000 A 
ENDROOT
BRANCH   1   8
ATOM      7  C   UNL     1       2.172   6.958  19.515  0.00  0.00    +0.000 C 
ATOM      8  C   UNL     1       2.079   5.734  20.067  0.00  0.00    +0.000 C 
BRANCH   7  15
ATOM      9  C   UNL     1       1.683   9.409  17.837  0.00  0.00    +0.000 C 
ATOM     10  C   UNL     1       1.344   9.347  19.303  0.00  0.00    +0.000 A 
ATOM     11  C   UNL     1       0.743  10.484  19.882  0.00  0.00    +0.000 A 
ATOM     12  C   UNL     1       0.411  10.513  21.233  0.00  0.00    +0.000 A 
ATOM     13  C   UNL     1       0.688   9.410  22.026  0.00  0.00    +0.000 A 
ATOM     14  C   UNL     1       1.276   8.269  21.467  0.00  0.00    +0.000 A 
ATOM     15  C   UNL     1       1.591   8.200  20.096  0.00  0.00    +0.000 A 
ENDBRANCH   7  15
ENDBRANCH   1   8
BRANCH   6  16
ATOM     16  O   UNL     1       4.981   4.721  19.442  0.00  0.00    +0.000 OA
BRANCH  16  17
ATOM     17  C   UNL     1       5.807   5.025  18.319  0.00  0.00    +0.000 C 
BRANCH  17  18
ATOM     18  C   UNL     1       5.159   6.137  17.488  0.00  0.00    +0.000 C 
BRANCH  18  19
ATOM     19  C   UNL     1       5.257   5.942  15.969  0.00  0.00    +0.000 C 
BRANCH  19  20
ATOM     20  C   UNL     1       5.110   4.495  15.476  0.00  0.00    +0.000 C 
BRANCH  20  21
ATOM     21  N   UNL     1       6.243   3.977  14.689  0.00  0.00    +0.000 NA
ATOM     22  C   UNL     1       5.877   3.718  13.294  0.00  0.00    +0.000 C 
ATOM     23  C   UNL     1       7.341   4.952  14.724  0.00  0.00    +0.000 C 
ENDBRANCH  20  21
ENDBRANCH  19  20
ENDBRANCH  18  19
ENDBRANCH  17  18
ENDBRANCH  16  17
ENDBRANCH   6  16
TORSDOF 8
ENDMDL
MODEL 2
REMARK VINA RESULT:      -6.8      1.708      6.398
REMARK  Name = 
REMARK  11 active torsions:
REMARK  status: ('A' for Active; 'I' for Inactive)
REMARK    1  A    between atoms: C_1  and  C_2
REMARK    2  A    between atoms: C_7  and  C_8
REMARK    3  A    between atoms: C_9  and  C_10
REMARK    4  A    between atoms: C_15  and  O_16
REMARK    5  A    between atoms: O_16  and  C_17
REMARK    6  A    between atoms: C_17  and  C_18
REMARK    7  A    between atoms: C_18  and  C_19
REMARK    8  A    between atoms: C_19  and  C_20
REMARK    9  A    between atoms: C_20  and  N_21
REMARK   10  A    between atoms: N_21  and  C_22
REMARK   11  A    between atoms: N_21  and  C_23
REMARK                            x       y       z     vdW  Elec       q    Type
REMARK                         _______ _______ _______ _____ _____    ______ ____
ROOT
ATOM      1  C   UNL     1       2.620   7.655  18.473  0.00  0.00    +0.000 A 
ATOM      2  C   UNL     1       2.052   8.921  18.220  0.00  0.00    +0.000 A 
ATOM      3  C   UNL     1       1.198   9.538  19.137  0.00  0.00    +0.000 A 
ATOM      4  C   UNL     1       0.889   8.898  20.330  0.00  0.00    +0.000 A 
ATOM      5  C   UNL     1       1.432   7.640  20.595  0.00  0.00    +0.000 A 
ATOM      6  C   UNL     1       2.306   7.014  19.686  0.00  0.00    +0.000 A 
ENDROOT
BRANCH   1   8
ATOM      7  C   UNL     1       4.562   6.334  17.622  0.00  0.00    +0.000 C 
ATOM      8  C   UNL     1       3.524   7.165  17.414  0.00  0.00    +0.000 C 
BRANCH   7  15
ATOM      9  C   UNL     1       7.548   6.688  17.461  0.00  0.00    +0.000 C 
ATOM     10  C   UNL     1       6.775   5.846  16.481  0.00  0.00    +0.000 A 
ATOM     11  C   UNL     1       7.507   5.179  15.475  0.00  0.00    +0.000 A 
ATOM     12  C   UNL     1       6.867   4.393  14.521  0.00  0.00    +0.000 A 
ATOM     13  C   UNL     1       5.486   4.273  14.553  0.00  0.00    +0.000 A 
ATOM     14  C   UNL     1       4.745   4.920  15.548  0.00  0.00    +0.000 A 
ATOM     15  C   UNL     1       5.368   5.695  16.546  0.00  0.00    +0.000 A 
ENDBRANCH   7  15
ENDBRANCH   1   8
BRANCH   6  16
ATOM     16  O   UNL     1       2.703   5.767  20.099  0.00  0.00    +0.000 OA
BRANCH  16  17
ATOM     17  C   UNL     1       1.836   5.094  21.011  0.00  0.00    +0.000 C 
BRANCH  17  18
ATOM     18  C   UNL     1       0.887   4.173  20.236  0.00  0.00    +0.000 C 
BRANCH  18  19
ATOM     19  C   UNL     1       1.522   3.465  19.032  0.00  0.00    +0.000 C 
BRANCH  19  20
ATOM     20  C   UNL     1       1.990   2.024  19.283  0.00  0.00    +0.000 C 
BRANCH  20  21
ATOM     21  N   UNL     1       3.406   1.756  18.977  0.00  0.00    +0.000 NA
ATOM     22  C   UNL     1       3.817   2.344  17.699  0.00  0.00    +0.000 C 
ATOM     23  C   UNL     1       4.244   2.307  20.051  0.00  0.00    +0.000 C 
ENDBRANCH  20  21
ENDBRANCH  19  20
ENDBRANCH  18  19
ENDBRANCH  17  18
ENDBRANCH  16  17
ENDBRANCH   6  16
TORSDOF 8
ENDMDL
MODEL 3
REMARK VINA RESULT:      -6.7      2.600      7.127
REMARK  Name = 
REMARK  11 active torsions:
REMARK  status: ('A' for Active; 'I' for Inactive)
REMARK    1  A    between atoms: C_1  and  C_2
REMARK    2  A    between atoms: C_7  and  C_8
REMARK    3  A    between atoms: C_9  and  C_10
REMARK    4  A    between atoms: C_15  and  O_16
REMARK    5  A    between atoms: O_16  and  C_17
REMARK    6  A    between atoms: C_17  and  C_18
REMARK    7  A    between atoms: C_18  and  C_19
REMARK    8  A    between atoms: C_19  and  C_20
REMARK    9  A    between atoms: C_20  and  N_21
REMARK   10  A    between atoms: N_21  and  C_22
REMARK   11  A    between atoms: N_21  and  C_23
REMARK                            x       y       z     vdW  Elec       q    Type
REMARK                         _______ _______ _______ _____ _____    ______ ____
ROOT
ATOM      1  C   UNL     1       2.693   4.282  18.251  0.00  0.00    +0.000 A 
ATOM      2  C   UNL     1       2.016   3.068  18.014  0.00  0.00    +0.000 A 
ATOM      3  C   UNL     1       1.051   2.581  18.899  0.00  0.00    +0.000 A 
ATOM      4  C   UNL     1       0.744   3.300  20.046  0.00  0.00    +0.000 A 
ATOM      5  C   UNL     1       1.410   4.498  20.306  0.00  0.00    +0.000 A 
ATOM      6  C   UNL     1       2.373   5.008  19.414  0.00  0.00    +0.000 A 
ENDROOT
BRANCH   1   8
ATOM      7  C   UNL     1       4.694   3.904  16.805  0.00  0.00    +0.000 C 
ATOM      8  C   UNL     1       3.655   4.664  17.199  0.00  0.00    +0.000 C 
BRANCH   7  15
ATOM      9  C   UNL     1       7.078   5.732  17.014  0.00  0.00    +0.000 C 
ATOM     10  C   UNL     1       6.694   5.039  15.733  0.00  0.00    +0.000 A 
ATOM     11  C   UNL     1       7.521   5.246  14.608  0.00  0.00    +0.000 A 
ATOM     12  C   UNL     1       7.228   4.654  13.383  0.00  0.00    +0.000 A 
ATOM     13  C   UNL     1       6.098   3.859  13.263  0.00  0.00    +0.000 A 
ATOM     14  C   UNL     1       5.272   3.636  14.371  0.00  0.00    +0.000 A 
ATOM     15  C   UNL     1       5.562   4.195  15.630  0.00  0.00    +0.000 A 
ENDBRANCH   7  15
ENDBRANCH   1   8
BRANCH   6  16
ATOM     16  O   UNL     1       2.949   6.171  19.858  0.00  0.00    +0.000 OA
BRANCH  16  17
ATOM     17  C   UNL     1       2.183   7.363  19.691  0.00  0.00    +0.000 C 
BRANCH  17  18
ATOM     18  C   UNL     1       2.517   8.007  18.342  0.00  0.00    +0.000 C 
BRANCH  18  19
ATOM     19  C   UNL     1       1.511   9.064  17.868  0.00  0.00    +0.000 C 
BRANCH  19  20
ATOM     20  C   UNL     1       0.784   9.833  18.982  0.00  0.00    +0.000 C 
BRANCH  20  21
ATOM     21  N   UNL     1      -0.160  10.868  18.525  0.00  0.00    +0.000 NA
ATOM     22  C   UNL     1      -1.489  10.319  18.243  0.00  0.00    +0.000 C 
ATOM     23  C   UNL     1      -0.277  11.904  19.559  0.00  0.00    +0.000 C 
ENDBRANCH  20  21
ENDBRANCH  19  20
ENDBRANCH  18  19
ENDBRANCH  17  18
ENDBRANCH  16  17
ENDBRANCH   6  16
TORSDOF 8
ENDMDL
MODEL 4
REMARK VINA RESULT:      -6.7      0.920      1.314
REMARK  Name = 
REMARK  11 active torsions:
REMARK  status: ('A' for Active; 'I' for Inactive)
REMARK    1  A    between atoms: C_1  and  C_2
REMARK    2  A    between atoms: C_7  and  C_8
REMARK    3  A    between atoms: C_9  and  C_10
REMARK    4  A    between atoms: C_15  and  O_16
REMARK    5  A    between atoms: O_16  and  C_17
REMARK    6  A    between atoms: C_17  and  C_18
REMARK    7  A    between atoms: C_18  and  C_19
REMARK    8  A    between atoms: C_19  and  C_20
REMARK    9  A    between atoms: C_20  and  N_21
REMARK   10  A    between atoms: N_21  and  C_22
REMARK   11  A    between atoms: N_21  and  C_23
REMARK                            x       y       z     vdW  Elec       q    Type
REMARK                         _______ _______ _______ _____ _____    ______ ____
ROOT
ATOM      1  C   UNL     1       2.095   4.277  19.874  0.00  0.00    +0.000 A 
ATOM      2  C   UNL     1       0.969   3.509  19.510  0.00  0.00    +0.000 A 
ATOM      3  C   UNL     1       1.097   2.222  18.986  0.00  0.00    +0.000 A 
ATOM      4  C   UNL     1       2.360   1.673  18.808  0.00  0.00    +0.000 A 
ATOM      5  C   UNL     1       3.488   2.421  19.150  0.00  0.00    +0.000 A 
ATOM      6  C   UNL     1       3.372   3.713  19.695  0.00  0.00    +0.000 A 
ENDROOT
BRANCH   1   8
ATOM      7  C   UNL     1       1.989   6.772  19.813  0.00  0.00    +0.000 C 
ATOM      8  C   UNL     1       1.777   5.601  20.442  0.00  0.00    +0.000 C 
BRANCH   7  15
ATOM      9  C   UNL     1       1.672   9.116  17.950  0.00  0.00    +0.000 C 
ATOM     10  C   UNL     1       1.345   9.194  19.418  0.00  0.00    +0.000 A 
ATOM     11  C   UNL     1       0.840  10.417  19.909  0.00  0.00    +0.000 A 
ATOM     12  C   UNL     1       0.527  10.577  21.256  0.00  0.00    +0.000 A 
ATOM     13  C   UNL     1       0.727   9.520  22.132  0.00  0.00    +0.000 A 
ATOM     14  C   UNL     1       1.219   8.297  21.660  0.00  0.00    +0.000 A 
ATOM     15  C   UNL     1       1.512   8.097  20.298  0.00  0.00    +0.000 A 
ENDBRANCH   7  15
ENDBRANCH   1   8
BRANCH   6  16
ATOM     16  O   UNL     1       4.587   4.306  19.928  0.00  0.00    +0.000 OA
BRANCH  16  17
ATOM     17  C   UNL     1       5.174   5.003  18.831  0.00  0.00    +0.000 C 
BRANCH  17  18
ATOM     18  C   UNL     1       6.614   5.394  19.180  0.00  0.00    +0.000 C 
BRANCH  18  19
ATOM     19  C   UNL     1       7.480   5.792  17.977  0.00  0.00    +0.000 C 
BRANCH  19  20
ATOM     20  C   UNL     1       7.339   4.899  16.735  0.00  0.00    +0.000 C 
BRANCH  20  21
ATOM     21  N   UNL     1       6.967   5.598  15.493  0.00  0.00    +0.000 NA
ATOM     22  C   UNL     1       7.168   4.763  14.305  0.00  0.00    +0.000 C 
ATOM     23  C   UNL     1       5.554   5.994  15.568  0.00  0.00    +0.000 C 
ENDBRANCH  20  21
ENDBRANCH  19  20
ENDBRANCH  18  19
ENDBRANCH  17  18
ENDBRANCH  16  17
ENDBRANCH   6  16
TORSDOF 8
ENDMDL
MODEL 5
REMARK VINA RESULT:      -6.7      2.582      6.965
REMARK  Name = 
REMARK  11 active torsions:
REMARK  status: ('A' for Active; 'I' for Inactive)
REMARK    1  A    between atoms: C_1  and  C_2
REMARK    2  A    between atoms: C_7  and  C_8
REMARK    3  A    between atoms: C_9  and  C_10
REMARK    4  A    between atoms: C_15  and  O_16
REMARK    5  A    between atoms: O_16  and  C_17
REMARK    6  A    between atoms: C_17  and  C_18
REMARK    7  A    between atoms: C_18  and  C_19
REMARK    8  A    between atoms: C_19  and  C_20
REMARK    9  A    between atoms: C_20  and  N_21
REMARK   10  A    between atoms: N_21  and  C_22
REMARK   11  A    between atoms: N_21  and  C_23
REMARK                            x       y       z     vdW  Elec       q    Type
REMARK                         _______ _______ _______ _____ _____    ______ ____
ROOT
ATOM      1  C   UNL     1       2.648   4.204  18.509  0.00  0.00    +0.000 A 
ATOM      2  C   UNL     1       2.029   2.940  18.610  0.00  0.00    +0.000 A 
ATOM      3  C   UNL     1       1.236   2.598  19.707  0.00  0.00    +0.000 A 
ATOM      4  C   UNL     1       1.047   3.514  20.733  0.00  0.00    +0.000 A 
ATOM      5  C   UNL     1       1.660   4.765  20.659  0.00  0.00    +0.000 A 
ATOM      6  C   UNL     1       2.449   5.129  19.551  0.00  0.00    +0.000 A 
ENDROOT
BRANCH   1   8
ATOM      7  C   UNL     1       4.753   4.606  17.226  0.00  0.00    +0.000 C 
ATOM      8  C   UNL     1       3.423   4.410  17.270  0.00  0.00    +0.000 C 
BRANCH   7  15
ATOM      9  C   UNL     1       7.259   6.261  17.017  0.00  0.00    +0.000 C 
ATOM     10  C   UNL     1       6.757   5.401  15.887  0.00  0.00    +0.000 A 
ATOM     11  C   UNL     1       7.527   5.361  14.706  0.00  0.00    +0.000 A 
ATOM     12  C   UNL     1       7.126   4.603  13.611  0.00  0.00    +0.000 A 
ATOM     13  C   UNL     1       5.941   3.884  13.678  0.00  0.00    +0.000 A 
ATOM     14  C   UNL     1       5.169   3.905  14.845  0.00  0.00    +0.000 A 
ATOM     15  C   UNL     1       5.568   4.637  15.980  0.00  0.00    +0.000 A 
ENDBRANCH   7  15
ENDBRANCH   1   8
BRANCH   6  16
ATOM     16  O   UNL     1       3.001   6.379  19.675  0.00  0.00    +0.000 OA
BRANCH  16  17
ATOM     17  C   UNL     1       2.129   7.484  19.445  0.00  0.00    +0.000 C 
BRANCH  17  18
ATOM     18  C   UNL     1       2.344   8.023  18.026  0.00  0.00    +0.000 C 
BRANCH  18  19
ATOM     19  C   UNL     1       1.840   9.455  17.801  0.00  0.00    +0.000 C 
BRANCH  19  20
ATOM     20  C   UNL     1       0.848   9.981  18.849  0.00  0.00    +0.000 C 
BRANCH  20  21
ATOM     21  N   UNL     1       1.037  11.386  19.250  0.00  0.00    +0.000 NA
ATOM     22  C   UNL     1       2.122  12.033  18.506  0.00  0.00    +0.000 C 
ATOM     23  C   UNL     1      -0.211  12.125  19.018  0.00  0.00    +0.000 C 
ENDBRANCH  20  21
ENDBRANCH  19  20
ENDBRANCH  18  19
ENDBRANCH  17  18
ENDBRANCH  16  17
ENDBRANCH   6  16
TORSDOF 8
ENDMDL
MODEL 6
REMARK VINA RESULT:      -6.7      1.871      6.495
REMARK  Name = 
REMARK  11 active torsions:
REMARK  status: ('A' for Active; 'I' for Inactive)
REMARK    1  A    between atoms: C_1  and  C_2
REMARK    2  A    between atoms: C_7  and  C_8
REMARK    3  A    between atoms: C_9  and  C_10
REMARK    4  A    between atoms: C_15  and  O_16
REMARK    5  A    between atoms: O_16  and  C_17
REMARK    6  A    between atoms: C_17  and  C_18
REMARK    7  A    between atoms: C_18  and  C_19
REMARK    8  A    between atoms: C_19  and  C_20
REMARK    9  A    between atoms: C_20  and  N_21
REMARK   10  A    between atoms: N_21  and  C_22
REMARK   11  A    between atoms: N_21  and  C_23
REMARK                            x       y       z     vdW  Elec       q    Type
REMARK                         _______ _______ _______ _____ _____    ______ ____
ROOT
ATOM      1  C   UNL     1       2.382   7.845  18.485  0.00  0.00    +0.000 A 
ATOM      2  C   UNL     1       2.010   8.998  17.763  0.00  0.00    +0.000 A 
ATOM      3  C   UNL     1       1.266  10.023  18.351  0.00  0.00    +0.000 A 
ATOM      4  C   UNL     1       0.871   9.914  19.678  0.00  0.00    +0.000 A 
ATOM      5  C   UNL     1       1.218   8.775  20.406  0.00  0.00    +0.000 A 
ATOM      6  C   UNL     1       1.983   7.743  19.831  0.00  0.00    +0.000 A 
ENDROOT
BRANCH   1   8
ATOM      7  C   UNL     1       4.423   7.133  17.233  0.00  0.00    +0.000 C 
ATOM      8  C   UNL     1       3.195   6.878  17.721  0.00  0.00    +0.000 C 
BRANCH   7  15
ATOM      9  C   UNL     1       7.392   7.141  17.731  0.00  0.00    +0.000 C 
ATOM     10  C   UNL     1       6.716   6.109  16.868  0.00  0.00    +0.000 A 
ATOM     11  C   UNL     1       7.524   5.096  16.309  0.00  0.00    +0.000 A 
ATOM     12  C   UNL     1       6.979   4.112  15.489  0.00  0.00    +0.000 A 
ATOM     13  C   UNL     1       5.621   4.136  15.206  0.00  0.00    +0.000 A 
ATOM     14  C   UNL     1       4.804   5.129  15.760  0.00  0.00    +0.000 A 
ATOM     15  C   UNL     1       5.322   6.116  16.619  0.00  0.00    +0.000 A 
ENDBRANCH   7  15
ENDBRANCH   1   8
BRANCH   6  16
ATOM     16  O   UNL     1       2.188   6.690  20.686  0.00  0.00    +0.000 OA
BRANCH  16  17
ATOM     17  C   UNL     1       1.165   5.696  20.727  0.00  0.00    +0.000 C 
BRANCH  17  18
ATOM     18  C   UNL     1       1.801   4.303  20.777  0.00  0.00    +0.000 C 
BRANCH  18  19
ATOM     19  C   UNL     1       0.931   3.179  20.201  0.00  0.00    +0.000 C 
BRANCH  19  20
ATOM     20  C   UNL     1       1.692   2.054  19.483  0.00  0.00    +0.000 C 
BRANCH  20  21
ATOM     21  N   UNL     1       2.854   2.485  18.685  0.00  0.00    +0.000 NA
ATOM     22  C   UNL     1       3.764   1.376  18.388  0.00  0.00    +0.000 C 
ATOM     23  C   UNL     1       2.381   3.070  17.424  0.00  0.00    +0.000 C 
ENDBRANCH  20  21
ENDBRANCH  19  20
ENDBRANCH  18  19
ENDBRANCH  17  18
ENDBRANCH  16  17
ENDBRANCH   6  16
TORSDOF 8
ENDMDL
MODEL 7
REMARK VINA RESULT:      -6.6      1.501      2.236
REMARK  Name = 
REMARK  11 active torsions:
REMARK  status: ('A' for Active; 'I' for Inactive)
REMARK    1  A    between atoms: C_1  and  C_2
REMARK    2  A    between atoms: C_7  and  C_8
REMARK    3  A    between atoms: C_9  and  C_10
REMARK    4  A    between atoms: C_15  and  O_16
REMARK    5  A    between atoms: O_16  and  C_17
REMARK    6  A    between atoms: C_17  and  C_18
REMARK    7  A    between atoms: C_18  and  C_19
REMARK    8  A    between atoms: C_19  and  C_20
REMARK    9  A    between atoms: C_20  and  N_21
REMARK   10  A    between atoms: N_21  and  C_22
REMARK   11  A    between atoms: N_21  and  C_23
REMARK                            x       y       z     vdW  Elec       q    Type
REMARK                         _______ _______ _______ _____ _____    ______ ____
ROOT
ATOM      1  C   UNL     1       2.212   4.210  19.177  0.00  0.00    +0.000 A 
ATOM      2  C   UNL     1       1.763   3.058  19.856  0.00  0.00    +0.000 A 
ATOM      3  C   UNL     1       2.223   1.783  19.521  0.00  0.00    +0.000 A 
ATOM      4  C   UNL     1       3.143   1.631  18.493  0.00  0.00    +0.000 A 
ATOM      5  C   UNL     1       3.592   2.756  17.800  0.00  0.00    +0.000 A 
ATOM      6  C   UNL     1       3.148   4.049  18.139  0.00  0.00    +0.000 A 
ENDROOT
BRANCH   1   8
ATOM      7  C   UNL     1       2.324   6.641  19.740  0.00  0.00    +0.000 C 
ATOM      8  C   UNL     1       1.650   5.478  19.681  0.00  0.00    +0.000 C 
BRANCH   7  15
ATOM      9  C   UNL     1       2.049   8.825  17.686  0.00  0.00    +0.000 C 
ATOM     10  C   UNL     1       1.572   8.980  19.106  0.00  0.00    +0.000 A 
ATOM     11  C   UNL     1       0.944  10.195  19.453  0.00  0.00    +0.000 A 
ATOM     12  C   UNL     1       0.488  10.424  20.748  0.00  0.00    +0.000 A 
ATOM     13  C   UNL     1       0.665   9.446  21.715  0.00  0.00    +0.000 A 
ATOM     14  C   UNL     1       1.277   8.231  21.386  0.00  0.00    +0.000 A 
ATOM     15  C   UNL     1       1.719   7.959  20.076  0.00  0.00    +0.000 A 
ENDBRANCH   7  15
ENDBRANCH   1   8
BRANCH   6  16
ATOM     16  O   UNL     1       3.666   5.022  17.321  0.00  0.00    +0.000 OA
BRANCH  16  17
ATOM     17  C   UNL     1       4.570   4.586  16.308  0.00  0.00    +0.000 C 
BRANCH  17  18
ATOM     18  C   UNL     1       5.432   5.765  15.844  0.00  0.00    +0.000 C 
BRANCH  18  19
ATOM     19  C   UNL     1       6.938   5.590  16.078  0.00  0.00    +0.000 C 
BRANCH  19  20
ATOM     20  C   UNL     1       7.324   4.724  17.287  0.00  0.00    +0.000 C 
BRANCH  20  21
ATOM     21  N   UNL     1       7.595   5.462  18.533  0.00  0.00    +0.000 NA
ATOM     22  C   UNL     1       7.896   6.874  18.286  0.00  0.00    +0.000 C 
ATOM     23  C   UNL     1       6.424   5.367  19.414  0.00  0.00    +0.000 C 
ENDBRANCH  20  21
ENDBRANCH  19  20
ENDBRANCH  18  19
ENDBRANCH  17  18
ENDBRANCH  16  17
ENDBRANCH   6  16
TORSDOF 8
ENDMDL
MODEL 8
REMARK VINA RESULT:      -6.5      1.724      2.320
REMARK  Name = 
REMARK  11 active torsions:
REMARK  status: ('A' for Active; 'I' for Inactive)
REMARK    1  A    between atoms: C_1  and  C_2
REMARK    2  A    between atoms: C_7  and  C_8
REMARK    3  A    between atoms: C_9  and  C_10
REMARK    4  A    between atoms: C_15  and  O_16
REMARK    5  A    between atoms: O_16  and  C_17
REMARK    6  A    between atoms: C_17  and  C_18
REMARK    7  A    between atoms: C_18  and  C_19
REMARK    8  A    between atoms: C_19  and  C_20
REMARK    9  A    between atoms: C_20  and  N_21
REMARK   10  A    between atoms: N_21  and  C_22
REMARK   11  A    between atoms: N_21  and  C_23
REMARK                            x       y       z     vdW  Elec       q    Type
REMARK                         _______ _______ _______ _____ _____    ______ ____
ROOT
ATOM      1  C   UNL     1       2.453   4.936  20.465  0.00  0.00    +0.000 A 
ATOM      2  C   UNL     1       2.117   3.907  21.369  0.00  0.00    +0.000 A 
ATOM      3  C   UNL     1       2.760   2.668  21.342  0.00  0.00    +0.000 A 
ATOM      4  C   UNL     1       3.755   2.429  20.403  0.00  0.00    +0.000 A 
ATOM      5  C   UNL     1       4.095   3.430  19.492  0.00  0.00    +0.000 A 
ATOM      6  C   UNL     1       3.465   4.688  19.519  0.00  0.00    +0.000 A 
ENDROOT
BRANCH   1   8
ATOM      7  C   UNL     1       2.041   7.375  20.116  0.00  0.00    +0.000 C 
ATOM      8  C   UNL     1       1.698   6.190  20.655  0.00  0.00    +0.000 C 
BRANCH   7  15
ATOM      9  C   UNL     1       1.936   9.291  17.796  0.00  0.00    +0.000 C 
ATOM     10  C   UNL     1       1.133   9.493  19.054  0.00  0.00    +0.000 A 
ATOM     11  C   UNL     1       0.280  10.616  19.109  0.00  0.00    +0.000 A 
ATOM     12  C   UNL     1      -0.485  10.883  20.241  0.00  0.00    +0.000 A 
ATOM     13  C   UNL     1      -0.396  10.038  21.337  0.00  0.00    +0.000 A 
ATOM     14  C   UNL     1       0.438   8.915  21.296  0.00  0.00    +0.000 A 
ATOM     15  C   UNL     1       1.198   8.602  20.153  0.00  0.00    +0.000 A 
ENDBRANCH   7  15
ENDBRANCH   1   8
BRANCH   6  16
ATOM     16  O   UNL     1       3.901   5.525  18.522  0.00  0.00    +0.000 OA
BRANCH  16  17
ATOM     17  C   UNL     1       4.152   4.924  17.253  0.00  0.00    +0.000 C 
BRANCH  17  18
ATOM     18  C   UNL     1       4.847   5.934  16.333  0.00  0.00    +0.000 C 
BRANCH  18  19
ATOM     19  C   UNL     1       6.314   5.614  16.021  0.00  0.00    +0.000 C 
BRANCH  19  20
ATOM     20  C   UNL     1       7.095   4.920  17.148  0.00  0.00    +0.000 C 
BRANCH  20  21
ATOM     21  N   UNL     1       7.837   5.819  18.050  0.00  0.00    +0.000 NA
ATOM     22  C   UNL     1       7.672   7.229  17.685  0.00  0.00    +0.000 C 
ATOM     23  C   UNL     1       7.363   5.619  19.426  0.00  0.00    +0.000 C 
ENDBRANCH  20  21
ENDBRANCH  19  20
ENDBRANCH  18  19
ENDBRANCH  17  18
ENDBRANCH  16  17
ENDBRANCH   6  16
TORSDOF 8
ENDMDL
MODEL 9
REMARK VINA RESULT:      -6.5      1.790      4.312
REMARK  Name = 
REMARK  11 active torsions:
REMARK  status: ('A' for Active; 'I' for Inactive)
REMARK    1  A    between atoms: C_1  and  C_2
REMARK    2  A    between atoms: C_7  and  C_8
REMARK    3  A    between atoms: C_9  and  C_10
REMARK    4  A    between atoms: C_15  and  O_16
REMARK    5  A    between atoms: O_16  and  C_17
REMARK    6  A    between atoms: C_17  and  C_18
REMARK    7  A    between atoms: C_18  and  C_19
REMARK    8  A    between atoms: C_19  and  C_20
REMARK    9  A    between atoms: C_20  and  N_21
REMARK   10  A    between atoms: N_21  and  C_22
REMARK   11  A    between atoms: N_21  and  C_23
REMARK                            x       y       z     vdW  Elec       q    Type
REMARK                         _______ _______ _______ _____ _____    ______ ____
ROOT
ATOM      1  C   UNL     1       5.308   6.374  16.505  0.00  0.00    +0.000 A 
ATOM      2  C   UNL     1       5.106   5.957  15.173  0.00  0.00    +0.000 A 
ATOM      3  C   UNL     1       5.949   5.029  14.559  0.00  0.00    +0.000 A 
ATOM      4  C   UNL     1       7.020   4.498  15.265  0.00  0.00    +0.000 A 
ATOM      5  C   UNL     1       7.245   4.905  16.581  0.00  0.00    +0.000 A 
ATOM      6  C   UNL     1       6.393   5.828  17.217  0.00  0.00    +0.000 A 
ENDROOT
BRANCH   1   8
ATOM      7  C   UNL     1       3.298   7.017  17.841  0.00  0.00    +0.000 C 
ATOM      8  C   UNL     1       4.305   7.333  17.007  0.00  0.00    +0.000 C 
BRANCH   7  15
ATOM      9  C   UNL     1       2.058   6.486  20.533  0.00  0.00    +0.000 C 
ATOM     10  C   UNL     1       1.823   7.761  19.767  0.00  0.00    +0.000 A 
ATOM     11  C   UNL     1       1.012   8.745  20.372  0.00  0.00    +0.000 A 
ATOM     12  C   UNL     1       0.734   9.946  19.726  0.00  0.00    +0.000 A 
ATOM     13  C   UNL     1       1.253  10.173  18.459  0.00  0.00    +0.000 A 
ATOM     14  C   UNL     1       2.067   9.212  17.848  0.00  0.00    +0.000 A 
ATOM     15  C   UNL     1       2.392   8.003  18.493  0.00  0.00    +0.000 A 
ENDBRANCH   7  15
ENDBRANCH   1   8
BRANCH   6  16
ATOM     16  O   UNL     1       6.797   6.137  18.491  0.00  0.00    +0.000 OA
BRANCH  16  17
ATOM     17  C   UNL     1       6.667   5.105  19.467  0.00  0.00    +0.000 C 
BRANCH  17  18
ATOM     18  C   UNL     1       5.188   4.755  19.654  0.00  0.00    +0.000 C 
BRANCH  18  19
ATOM     19  C   UNL     1       4.742   3.461  18.960  0.00  0.00    +0.000 C 
BRANCH  19  20
ATOM     20  C   UNL     1       3.940   2.484  19.833  0.00  0.00    +0.000 C 
BRANCH  20  21
ATOM     21  N   UNL     1       2.641   2.060  19.280  0.00  0.00    +0.000 NA
ATOM     22  C   UNL     1       1.524   2.822  19.845  0.00  0.00    +0.000 C 
ATOM     23  C   UNL     1       2.657   2.240  17.822  0.00  0.00    +0.000 C 
ENDBRANCH  20  21
ENDBRANCH  19  20
ENDBRANCH  18  19
ENDBRANCH  17  18
ENDBRANCH  16  17
ENDBRANCH   6  16
TORSDOF 8
ENDMDL
