MODEL 1
REMARK VINA RESULT:      -9.4      0.000      0.000
REMARK  Name = 
REMARK  5 active torsions:
REMARK  status: ('A' for Active; 'I' for Inactive)
REMARK    1  A    between atoms: C_3  and  N_4
REMARK    2  A    between atoms: N_4  and  S_5
REMARK    3  A    between atoms: S_5  and  C_8
REMARK    4  A    between atoms: N_21  and  C_22
REMARK    5  A    between atoms: C_25  and  C_26
REMARK                            x       y       z     vdW  Elec       q    Type
REMARK                         _______ _______ _______ _____ _____    ______ ____
ROOT
ATOM      1  O   UNL     1       5.009   5.712  18.948  0.00  0.00    +0.000 OA
ATOM      2  C   UNL     1       5.479   5.250  17.921  0.00  0.00    +0.000 C 
ATOM      3  C   UNL     1       5.034   3.948  17.293  0.00  0.00    +0.000 C 
ATOM      4  C   UNL     1       5.739   3.984  15.936  0.00  0.00    +0.000 C 
ATOM      5  C   UNL     1       6.990   4.807  16.205  0.00  0.00    +0.000 C 
ATOM      6  N   UNL     1       6.565   5.752  17.200  0.00  0.00    +0.000 N 
ENDROOT
BRANCH   6   7
ATOM      7  C   UNL     1       7.348   6.844  17.658  0.00  0.00    +0.000 A 
ATOM      8  C   UNL     1       7.270   8.082  17.010  0.00  0.00    +0.000 A 
ATOM      9  C   UNL     1       7.910   9.211  17.518  0.00  0.00    +0.000 A 
ATOM     10  C   UNL     1       8.699   9.144  18.674  0.00  0.00    +0.000 A 
ATOM     11  C   UNL     1       8.830   7.886  19.286  0.00  0.00    +0.000 A 
ATOM     12  C   UNL     1       8.172   6.760  18.781  0.00  0.00    +0.000 A 
ATOM     13  F   UNL     1       8.312   5.606  19.452  0.00  0.00    +0.000 F 
BRANCH  10  14
ATOM     14  C   UNL     1       9.353  10.351  19.207  0.00  0.00    +0.000 A 
ATOM     15  C   UNL     1      10.084  11.221  18.384  0.00  0.00    +0.000 A 
ATOM     16  C   UNL     1      10.679  12.366  18.906  0.00  0.00    +0.000 A 
ATOM     17  C   UNL     1      10.541  12.614  20.258  0.00  0.00    +0.000 A 
ATOM     18  N   UNL     1       9.853  11.814  21.098  0.00  0.00    +0.000 NA
ATOM     19  C   UNL     1       9.275  10.716  20.553  0.00  0.00    +0.000 A 
ENDBRANCH  10  14
ENDBRANCH   6   7
BRANCH   3  20
ATOM     20  N   UNL     1       3.582   3.779  17.117  0.00  0.00    +0.000 NA
ATOM     21  H   UNL     1       3.285   3.132  16.387  0.00  0.00    +0.000 HD
BRANCH  20  22
ATOM     22  S   UNL     1       2.634   3.500  18.500  0.00  0.00    +0.000 S 
ATOM     23  O   UNL     1       1.414   2.905  17.989  0.00  0.00    +0.000 OA
ATOM     24  O   UNL     1       3.443   2.796  19.466  0.00  0.00    +0.000 OA
BRANCH  22  25
ATOM     25  C   UNL     1       2.192   5.117  19.094  0.00  0.00    +0.000 A 
ATOM     26  C   UNL     1       1.840   5.282  20.434  0.00  0.00    +0.000 A 
ATOM     27  C   UNL     1       1.499   6.552  20.905  0.00  0.00    +0.000 A 
ATOM     28  C   UNL     1       1.494   7.666  20.045  0.00  0.00    +0.000 A 
ATOM     29  C   UNL     1       1.145   8.947  20.504  0.00  0.00    +0.000 A 
ATOM     30  C   UNL     1       1.138  10.034  19.629  0.00  0.00    +0.000 A 
ATOM     31 CL   UNL     1       0.715  11.598  20.211  0.00  0.00    +0.000 Cl
ATOM     32  C   UNL     1       1.467   9.863  18.287  0.00  0.00    +0.000 A 
ATOM     33  C   UNL     1       1.820   8.597  17.818  0.00  0.00    +0.000 A 
ATOM     34  C   UNL     1       1.850   7.492  18.687  0.00  0.00    +0.000 A 
ATOM     35  C   UNL     1       2.219   6.217  18.229  0.00  0.00    +0.000 A 
ENDBRANCH  22  25
ENDBRANCH  20  22
ENDBRANCH   3  20
TORSDOF 5
ENDMDL
MODEL 2
REMARK VINA RESULT:      -9.0      6.315      9.715
REMARK  Name = 
REMARK  5 active torsions:
REMARK  status: ('A' for Active; 'I' for Inactive)
REMARK    1  A    between atoms: C_3  and  N_4
REMARK    2  A    between atoms: N_4  and  S_5
REMARK    3  A    between atoms: S_5  and  C_8
REMARK    4  A    between atoms: N_21  and  C_22
REMARK    5  A    between atoms: C_25  and  C_26
REMARK                            x       y       z     vdW  Elec       q    Type
REMARK                         _______ _______ _______ _____ _____    ______ ____
ROOT
ATOM      1  O   UNL     1       1.549  11.741  21.233  0.00  0.00    +0.000 OA
ATOM      2  C   UNL     1       0.791  11.731  20.275  0.00  0.00    +0.000 C 
ATOM      3  C   UNL     1      -0.176  12.845  19.945  0.00  0.00    +0.000 C 
ATOM      4  C   UNL     1      -0.666  12.447  18.552  0.00  0.00    +0.000 C 
ATOM      5  C   UNL     1      -0.558  10.930  18.554  0.00  0.00    +0.000 C 
ATOM      6  N   UNL     1       0.586  10.675  19.385  0.00  0.00    +0.000 N 
ENDROOT
BRANCH   6   7
ATOM      7  C   UNL     1       1.183   9.399  19.560  0.00  0.00    +0.000 A 
ATOM      8  C   UNL     1       0.999   8.698  20.757  0.00  0.00    +0.000 A 
ATOM      9  C   UNL     1       1.447   7.387  20.909  0.00  0.00    +0.000 A 
ATOM     10  C   UNL     1       2.143   6.731  19.886  0.00  0.00    +0.000 A 
ATOM     11  C   UNL     1       2.386   7.459  18.709  0.00  0.00    +0.000 A 
ATOM     12  C   UNL     1       1.920   8.769  18.557  0.00  0.00    +0.000 A 
ATOM     13  F   UNL     1       2.153   9.378  17.383  0.00  0.00    +0.000 F 
BRANCH  10  14
ATOM     14  C   UNL     1       2.593   5.338  20.057  0.00  0.00    +0.000 A 
ATOM     15  C   UNL     1       1.976   4.468  20.969  0.00  0.00    +0.000 A 
ATOM     16  C   UNL     1       2.407   3.151  21.101  0.00  0.00    +0.000 A 
ATOM     17  C   UNL     1       3.466   2.730  20.320  0.00  0.00    +0.000 A 
ATOM     18  N   UNL     1       4.099   3.521  19.429  0.00  0.00    +0.000 NA
ATOM     19  C   UNL     1       3.644   4.793  19.316  0.00  0.00    +0.000 A 
ENDBRANCH  10  14
ENDBRANCH   6   7
BRANCH   3  20
ATOM     20  N   UNL     1       0.389  14.205  19.927  0.00  0.00    +0.000 NA
ATOM     21  H   UNL     1       0.281  14.730  19.058  0.00  0.00    +0.000 HD
BRANCH  20  22
ATOM     22  S   UNL     1       0.031  15.239  21.227  0.00  0.00    +0.000 S 
ATOM     23  O   UNL     1       0.832  14.732  22.325  0.00  0.00    +0.000 OA
ATOM     24  O   UNL     1       0.187  16.602  20.774  0.00  0.00    +0.000 OA
BRANCH  22  25
ATOM     25  C   UNL     1      -1.663  14.894  21.642  0.00  0.00    +0.000 A 
ATOM     26  C   UNL     1      -2.685  15.505  20.915  0.00  0.00    +0.000 A 
ATOM     27  C   UNL     1      -4.017  15.231  21.235  0.00  0.00    +0.000 A 
ATOM     28  C   UNL     1      -4.343  14.355  22.287  0.00  0.00    +0.000 A 
ATOM     29  C   UNL     1      -5.678  14.077  22.624  0.00  0.00    +0.000 A 
ATOM     30  C   UNL     1      -5.975  13.212  23.679  0.00  0.00    +0.000 A 
ATOM     31 CL   UNL     1      -7.618  12.877  24.073  0.00  0.00    +0.000 Cl
ATOM     32  C   UNL     1      -4.955  12.622  24.418  0.00  0.00    +0.000 A 
ATOM     33  C   UNL     1      -3.624  12.885  24.091  0.00  0.00    +0.000 A 
ATOM     34  C   UNL     1      -3.303  13.739  23.022  0.00  0.00    +0.000 A 
ATOM     35  C   UNL     1      -1.967  14.000  22.675  0.00  0.00    +0.000 A 
ENDBRANCH  22  25
ENDBRANCH  20  22
ENDBRANCH   3  20
TORSDOF 5
ENDMDL
MODEL 3
REMARK VINA RESULT:      -9.0      4.860      7.936
REMARK  Name = 
REMARK  5 active torsions:
REMARK  status: ('A' for Active; 'I' for Inactive)
REMARK    1  A    between atoms: C_3  and  N_4
REMARK    2  A    between atoms: N_4  and  S_5
REMARK    3  A    between atoms: S_5  and  C_8
REMARK    4  A    between atoms: N_21  and  C_22
REMARK    5  A    between atoms: C_25  and  C_26
REMARK                            x       y       z     vdW  Elec       q    Type
REMARK                         _______ _______ _______ _____ _____    ______ ____
ROOT
ATOM      1  O   UNL     1       1.949   9.238  19.042  0.00  0.00    +0.000 OA
ATOM      2  C   UNL     1       1.264   9.115  20.046  0.00  0.00    +0.000 C 
ATOM      3  C   UNL     1       0.911   7.788  20.677  0.00  0.00    +0.000 C 
ATOM      4  C   UNL     1       0.285   8.217  22.006  0.00  0.00    +0.000 C 
ATOM      5  C   UNL     1      -0.312   9.581  21.696  0.00  0.00    +0.000 C 
ATOM      6  N   UNL     1       0.594  10.134  20.728  0.00  0.00    +0.000 N 
ENDROOT
BRANCH   6   7
ATOM      7  C   UNL     1       0.543  11.470  20.250  0.00  0.00    +0.000 A 
ATOM      8  C   UNL     1       1.274  12.473  20.896  0.00  0.00    +0.000 A 
ATOM      9  C   UNL     1       1.364  13.761  20.371  0.00  0.00    +0.000 A 
ATOM     10  C   UNL     1       0.685  14.119  19.198  0.00  0.00    +0.000 A 
ATOM     11  C   UNL     1      -0.103  13.129  18.588  0.00  0.00    +0.000 A 
ATOM     12  C   UNL     1      -0.175  11.834  19.111  0.00  0.00    +0.000 A 
ATOM     13  F   UNL     1      -0.913  10.935  18.441  0.00  0.00    +0.000 F 
BRANCH  10  14
ATOM     14  C   UNL     1       0.806  15.481  18.648  0.00  0.00    +0.000 A 
ATOM     15  C   UNL     1      -0.321  16.270  18.372  0.00  0.00    +0.000 A 
ATOM     16  C   UNL     1      -0.182  17.560  17.869  0.00  0.00    +0.000 A 
ATOM     17  C   UNL     1       1.094  18.036  17.637  0.00  0.00    +0.000 A 
ATOM     18  N   UNL     1       2.213  17.324  17.881  0.00  0.00    +0.000 NA
ATOM     19  C   UNL     1       2.041  16.077  18.384  0.00  0.00    +0.000 A 
ENDBRANCH  10  14
ENDBRANCH   6   7
BRANCH   3  20
ATOM     20  N   UNL     1       2.034   6.865  20.909  0.00  0.00    +0.000 NA
ATOM     21  H   UNL     1       2.493   6.925  21.818  0.00  0.00    +0.000 HD
BRANCH  20  22
ATOM     22  S   UNL     1       1.814   5.223  20.528  0.00  0.00    +0.000 S 
ATOM     23  O   UNL     1       2.458   4.509  21.614  0.00  0.00    +0.000 OA
ATOM     24  O   UNL     1       0.415   5.011  20.240  0.00  0.00    +0.000 OA
BRANCH  22  25
ATOM     25  C   UNL     1       2.813   4.943  19.084  0.00  0.00    +0.000 A 
ATOM     26  C   UNL     1       2.488   3.899  18.218  0.00  0.00    +0.000 A 
ATOM     27  C   UNL     1       3.267   3.680  17.078  0.00  0.00    +0.000 A 
ATOM     28  C   UNL     1       4.381   4.493  16.797  0.00  0.00    +0.000 A 
ATOM     29  C   UNL     1       5.177   4.280  15.660  0.00  0.00    +0.000 A 
ATOM     30  C   UNL     1       6.284   5.093  15.409  0.00  0.00    +0.000 A 
ATOM     31 CL   UNL     1       7.244   4.821  14.006  0.00  0.00    +0.000 Cl
ATOM     32  C   UNL     1       6.620   6.120  16.286  0.00  0.00    +0.000 A 
ATOM     33  C   UNL     1       5.835   6.346  17.418  0.00  0.00    +0.000 A 
ATOM     34  C   UNL     1       4.707   5.550  17.680  0.00  0.00    +0.000 A 
ATOM     35  C   UNL     1       3.901   5.778  18.808  0.00  0.00    +0.000 A 
ENDBRANCH  22  25
ENDBRANCH  20  22
ENDBRANCH   3  20
TORSDOF 5
ENDMDL
MODEL 4
REMARK VINA RESULT:      -8.7      5.792      9.618
REMARK  Name = 
REMARK  5 active torsions:
REMARK  status: ('A' for Active; 'I' for Inactive)
REMARK    1  A    between atoms: C_3  and  N_4
REMARK    2  A    between atoms: N_4  and  S_5
REMARK    3  A    between atoms: S_5  and  C_8
REMARK    4  A    between atoms: N_21  and  C_22
REMARK    5  A    between atoms: C_25  and  C_26
REMARK                            x       y       z     vdW  Elec       q    Type
REMARK                         _______ _______ _______ _____ _____    ______ ____
ROOT
ATOM      1  O   UNL     1       2.036  12.371  20.188  0.00  0.00    +0.000 OA
ATOM      2  C   UNL     1       0.857  12.206  19.916  0.00  0.00    +0.000 C 
ATOM      3  C   UNL     1      -0.186  13.299  19.960  0.00  0.00    +0.000 C 
ATOM      4  C   UNL     1      -1.389  12.627  19.294  0.00  0.00    +0.000 C 
ATOM      5  C   UNL     1      -1.199  11.153  19.618  0.00  0.00    +0.000 C 
ATOM      6  N   UNL     1       0.229  10.992  19.630  0.00  0.00    +0.000 N 
ENDROOT
BRANCH   6   7
ATOM      7  C   UNL     1       0.896   9.743  19.731  0.00  0.00    +0.000 A 
ATOM      8  C   UNL     1       0.794   8.986  20.903  0.00  0.00    +0.000 A 
ATOM      9  C   UNL     1       1.313   7.695  20.984  0.00  0.00    +0.000 A 
ATOM     10  C   UNL     1       2.003   7.118  19.909  0.00  0.00    +0.000 A 
ATOM     11  C   UNL     1       2.164   7.905  18.757  0.00  0.00    +0.000 A 
ATOM     12  C   UNL     1       1.626   9.194  18.676  0.00  0.00    +0.000 A 
ATOM     13  F   UNL     1       1.784   9.861  17.522  0.00  0.00    +0.000 F 
BRANCH  10  14
ATOM     14  C   UNL     1       2.529   5.745  20.006  0.00  0.00    +0.000 A 
ATOM     15  C   UNL     1       1.930   4.779  20.829  0.00  0.00    +0.000 A 
ATOM     16  C   UNL     1       2.434   3.484  20.890  0.00  0.00    +0.000 A 
ATOM     17  C   UNL     1       3.548   3.180  20.131  0.00  0.00    +0.000 A 
ATOM     18  N   UNL     1       4.166   4.066  19.324  0.00  0.00    +0.000 NA
ATOM     19  C   UNL     1       3.640   5.315  19.277  0.00  0.00    +0.000 A 
ENDBRANCH  10  14
ENDBRANCH   6   7
BRANCH   3  20
ATOM     20  N   UNL     1       0.159  14.549  19.263  0.00  0.00    +0.000 NA
ATOM     21  H   UNL     1      -0.611  15.047  18.815  0.00  0.00    +0.000 HD
BRANCH  20  22
ATOM     22  S   UNL     1       1.127  15.682  20.080  0.00  0.00    +0.000 S 
ATOM     23  O   UNL     1       0.668  16.970  19.594  0.00  0.00    +0.000 OA
ATOM     24  O   UNL     1       1.087  15.375  21.490  0.00  0.00    +0.000 OA
BRANCH  22  25
ATOM     25  C   UNL     1       2.763  15.454  19.423  0.00  0.00    +0.000 A 
ATOM     26  C   UNL     1       2.946  15.410  18.040  0.00  0.00    +0.000 A 
ATOM     27  C   UNL     1       4.232  15.237  17.520  0.00  0.00    +0.000 A 
ATOM     28  C   UNL     1       5.344  15.097  18.371  0.00  0.00    +0.000 A 
ATOM     29  C   UNL     1       6.640  14.915  17.861  0.00  0.00    +0.000 A 
ATOM     30  C   UNL     1       7.725  14.767  18.727  0.00  0.00    +0.000 A 
ATOM     31 CL   UNL     1       9.308  14.553  18.084  0.00  0.00    +0.000 Cl
ATOM     32  C   UNL     1       7.538  14.788  20.105  0.00  0.00    +0.000 A 
ATOM     33  C   UNL     1       6.256  14.973  20.626  0.00  0.00    +0.000 A 
ATOM     34  C   UNL     1       5.152  15.140  19.772  0.00  0.00    +0.000 A 
ATOM     35  C   UNL     1       3.860  15.342  20.285  0.00  0.00    +0.000 A 
ENDBRANCH  22  25
ENDBRANCH  20  22
ENDBRANCH   3  20
TORSDOF 5
ENDMDL
MODEL 5
REMARK VINA RESULT:      -8.7      6.160      9.621
REMARK  Name = 
REMARK  5 active torsions:
REMARK  status: ('A' for Active; 'I' for Inactive)
REMARK    1  A    between atoms: C_3  and  N_4
REMARK    2  A    between atoms: N_4  and  S_5
REMARK    3  A    between atoms: S_5  and  C_8
REMARK    4  A    between atoms: N_21  and  C_22
REMARK    5  A    between atoms: C_25  and  C_26
REMARK                            x       y       z     vdW  Elec       q    Type
REMARK                         _______ _______ _______ _____ _____    ______ ____
ROOT
ATOM      1  O   UNL     1       2.076  12.211  19.206  0.00  0.00    +0.000 OA
ATOM      2  C   UNL     1       0.881  11.996  19.328  0.00  0.00    +0.000 C 
ATOM      3  C   UNL     1      -0.163  13.075  19.510  0.00  0.00    +0.000 C 
ATOM      4  C   UNL     1      -1.468  12.294  19.348  0.00  0.00    +0.000 C 
ATOM      5  C   UNL     1      -1.110  10.895  19.827  0.00  0.00    +0.000 C 
ATOM      6  N   UNL     1       0.265  10.747  19.437  0.00  0.00    +0.000 N 
ENDROOT
BRANCH   6   7
ATOM      7  C   UNL     1       1.000   9.536  19.529  0.00  0.00    +0.000 A 
ATOM      8  C   UNL     1       0.988   8.797  20.717  0.00  0.00    +0.000 A 
ATOM      9  C   UNL     1       1.577   7.536  20.796  0.00  0.00    +0.000 A 
ATOM     10  C   UNL     1       2.250   6.976  19.702  0.00  0.00    +0.000 A 
ATOM     11  C   UNL     1       2.319   7.748  18.530  0.00  0.00    +0.000 A 
ATOM     12  C   UNL     1       1.711   9.005  18.452  0.00  0.00    +0.000 A 
ATOM     13  F   UNL     1       1.784   9.658  17.281  0.00  0.00    +0.000 F 
BRANCH  10  14
ATOM     14  C   UNL     1       2.851   5.634  19.797  0.00  0.00    +0.000 A 
ATOM     15  C   UNL     1       2.192   4.572  20.435  0.00  0.00    +0.000 A 
ATOM     16  C   UNL     1       2.772   3.308  20.498  0.00  0.00    +0.000 A 
ATOM     17  C   UNL     1       4.018   3.133  19.928  0.00  0.00    +0.000 A 
ATOM     18  N   UNL     1       4.699   4.116  19.304  0.00  0.00    +0.000 NA
ATOM     19  C   UNL     1       4.098   5.330  19.248  0.00  0.00    +0.000 A 
ENDBRANCH  10  14
ENDBRANCH   6   7
BRANCH   3  20
ATOM     20  N   UNL     1      -0.107  14.193  18.554  0.00  0.00    +0.000 NA
ATOM     21  H   UNL     1      -0.805  14.190  17.810  0.00  0.00    +0.000 HD
BRANCH  20  22
ATOM     22  S   UNL     1       0.011  15.771  19.173  0.00  0.00    +0.000 S 
ATOM     23  O   UNL     1      -0.528  16.615  18.122  0.00  0.00    +0.000 OA
ATOM     24  O   UNL     1      -0.574  15.783  20.493  0.00  0.00    +0.000 OA
BRANCH  22  25
ATOM     25  C   UNL     1       1.754  16.113  19.244  0.00  0.00    +0.000 A 
ATOM     26  C   UNL     1       2.215  17.165  20.037  0.00  0.00    +0.000 A 
ATOM     27  C   UNL     1       3.585  17.432  20.100  0.00  0.00    +0.000 A 
ATOM     28  C   UNL     1       4.507  16.660  19.367  0.00  0.00    +0.000 A 
ATOM     29  C   UNL     1       5.886  16.923  19.415  0.00  0.00    +0.000 A 
ATOM     30  C   UNL     1       6.779  16.151  18.670  0.00  0.00    +0.000 A 
ATOM     31 CL   UNL     1       8.467  16.482  18.748  0.00  0.00    +0.000 Cl
ATOM     32  C   UNL     1       6.316  15.117  17.862  0.00  0.00    +0.000 A 
ATOM     33  C   UNL     1       4.949  14.841  17.809  0.00  0.00    +0.000 A 
ATOM     34  C   UNL     1       4.034  15.596  18.563  0.00  0.00    +0.000 A 
ATOM     35  C   UNL     1       2.658  15.318  18.529  0.00  0.00    +0.000 A 
ENDBRANCH  22  25
ENDBRANCH  20  22
ENDBRANCH   3  20
TORSDOF 5
ENDMDL
MODEL 6
REMARK VINA RESULT:      -8.6      5.832      9.346
REMARK  Name = 
REMARK  5 active torsions:
REMARK  status: ('A' for Active; 'I' for Inactive)
REMARK    1  A    between atoms: C_3  and  N_4
REMARK    2  A    between atoms: N_4  and  S_5
REMARK    3  A    between atoms: S_5  and  C_8
REMARK    4  A    between atoms: N_21  and  C_22
REMARK    5  A    between atoms: C_25  and  C_26
REMARK                            x       y       z     vdW  Elec       q    Type
REMARK                         _______ _______ _______ _____ _____    ______ ____
ROOT
ATOM      1  O   UNL     1       2.173  12.305  19.184  0.00  0.00    +0.000 OA
ATOM      2  C   UNL     1       0.960  12.166  19.172  0.00  0.00    +0.000 C 
ATOM      3  C   UNL     1      -0.027  13.285  19.415  0.00  0.00    +0.000 C 
ATOM      4  C   UNL     1      -1.358  12.634  19.033  0.00  0.00    +0.000 C 
ATOM      5  C   UNL     1      -1.134  11.160  19.337  0.00  0.00    +0.000 C 
ATOM      6  N   UNL     1       0.259  10.964  19.049  0.00  0.00    +0.000 N 
ENDROOT
BRANCH   6   7
ATOM      7  C   UNL     1       0.906   9.700  19.030  0.00  0.00    +0.000 A 
ATOM      8  C   UNL     1       1.440   9.204  17.836  0.00  0.00    +0.000 A 
ATOM      9  C   UNL     1       2.206   8.040  17.809  0.00  0.00    +0.000 A 
ATOM     10  C   UNL     1       2.434   7.289  18.970  0.00  0.00    +0.000 A 
ATOM     11  C   UNL     1       1.840   7.752  20.156  0.00  0.00    +0.000 A 
ATOM     12  C   UNL     1       1.087   8.930  20.180  0.00  0.00    +0.000 A 
ATOM     13  F   UNL     1       0.594   9.328  21.363  0.00  0.00    +0.000 F 
BRANCH  10  14
ATOM     14  C   UNL     1       3.261   6.071  18.926  0.00  0.00    +0.000 A 
ATOM     15  C   UNL     1       4.463   6.018  18.204  0.00  0.00    +0.000 A 
ATOM     16  C   UNL     1       5.237   4.862  18.191  0.00  0.00    +0.000 A 
ATOM     17  C   UNL     1       4.782   3.765  18.897  0.00  0.00    +0.000 A 
ATOM     18  N   UNL     1       3.636   3.756  19.608  0.00  0.00    +0.000 NA
ATOM     19  C   UNL     1       2.914   4.904  19.610  0.00  0.00    +0.000 A 
ENDBRANCH  10  14
ENDBRANCH   6   7
BRANCH   3  20
ATOM     20  N   UNL     1       0.188  14.516  18.636  0.00  0.00    +0.000 NA
ATOM     21  H   UNL     1      -0.622  14.887  18.140  0.00  0.00    +0.000 HD
BRANCH  20  22
ATOM     22  S   UNL     1       0.996  15.809  19.388  0.00  0.00    +0.000 S 
ATOM     23  O   UNL     1       0.605  16.976  18.620  0.00  0.00    +0.000 OA
ATOM     24  O   UNL     1       0.731  15.743  20.805  0.00  0.00    +0.000 OA
BRANCH  22  25
ATOM     25  C   UNL     1       2.720  15.541  19.046  0.00  0.00    +0.000 A 
ATOM     26  C   UNL     1       3.154  15.474  17.722  0.00  0.00    +0.000 A 
ATOM     27  C   UNL     1       4.509  15.270  17.450  0.00  0.00    +0.000 A 
ATOM     28  C   UNL     1       5.442  15.121  18.494  0.00  0.00    +0.000 A 
ATOM     29  C   UNL     1       6.806  14.907  18.234  0.00  0.00    +0.000 A 
ATOM     30  C   UNL     1       7.709  14.751  19.287  0.00  0.00    +0.000 A 
ATOM     31 CL   UNL     1       9.379  14.498  18.950  0.00  0.00    +0.000 Cl
ATOM     32  C   UNL     1       7.271  14.795  20.607  0.00  0.00    +0.000 A 
ATOM     33  C   UNL     1       5.920  15.012  20.880  0.00  0.00    +0.000 A 
ATOM     34  C   UNL     1       4.996  15.188  19.835  0.00  0.00    +0.000 A 
ATOM     35  C   UNL     1       3.636  15.421  20.097  0.00  0.00    +0.000 A 
ENDBRANCH  22  25
ENDBRANCH  20  22
ENDBRANCH   3  20
TORSDOF 5
ENDMDL
MODEL 7
REMARK VINA RESULT:      -8.6      0.824      1.608
REMARK  Name = 
REMARK  5 active torsions:
REMARK  status: ('A' for Active; 'I' for Inactive)
REMARK    1  A    between atoms: C_3  and  N_4
REMARK    2  A    between atoms: N_4  and  S_5
REMARK    3  A    between atoms: S_5  and  C_8
REMARK    4  A    between atoms: N_21  and  C_22
REMARK    5  A    between atoms: C_25  and  C_26
REMARK                            x       y       z     vdW  Elec       q    Type
REMARK                         _______ _______ _______ _____ _____    ______ ____
ROOT
ATOM      1  O   UNL     1       4.919   5.873  19.250  0.00  0.00    +0.000 OA
ATOM      2  C   UNL     1       5.321   5.328  18.235  0.00  0.00    +0.000 C 
ATOM      3  C   UNL     1       4.813   3.998  17.726  0.00  0.00    +0.000 C 
ATOM      4  C   UNL     1       5.444   3.921  16.334  0.00  0.00    +0.000 C 
ATOM      5  C   UNL     1       6.727   4.725  16.478  0.00  0.00    +0.000 C 
ATOM      6  N   UNL     1       6.378   5.749  17.425  0.00  0.00    +0.000 N 
ENDROOT
BRANCH   6   7
ATOM      7  C   UNL     1       7.210   6.849  17.763  0.00  0.00    +0.000 A 
ATOM      8  C   UNL     1       7.086   8.059  17.072  0.00  0.00    +0.000 A 
ATOM      9  C   UNL     1       7.780   9.199  17.471  0.00  0.00    +0.000 A 
ATOM     10  C   UNL     1       8.671   9.170  18.553  0.00  0.00    +0.000 A 
ATOM     11  C   UNL     1       8.846   7.936  19.203  0.00  0.00    +0.000 A 
ATOM     12  C   UNL     1       8.133   6.800  18.808  0.00  0.00    +0.000 A 
ATOM     13  F   UNL     1       8.323   5.673  19.512  0.00  0.00    +0.000 F 
BRANCH  10  14
ATOM     14  C   UNL     1       9.384  10.389  18.972  0.00  0.00    +0.000 A 
ATOM     15  C   UNL     1       9.564  10.713  20.325  0.00  0.00    +0.000 A 
ATOM     16  C   UNL     1      10.256  11.862  20.697  0.00  0.00    +0.000 A 
ATOM     17  C   UNL     1      10.748  12.680  19.698  0.00  0.00    +0.000 A 
ATOM     18  N   UNL     1      10.604  12.421  18.382  0.00  0.00    +0.000 NA
ATOM     19  C   UNL     1       9.937  11.287  18.056  0.00  0.00    +0.000 A 
ENDBRANCH  10  14
ENDBRANCH   6   7
BRANCH   3  20
ATOM     20  N   UNL     1       3.350   3.857  17.639  0.00  0.00    +0.000 NA
ATOM     21  H   UNL     1       3.001   3.042  17.135  0.00  0.00    +0.000 HD
BRANCH  20  22
ATOM     22  S   UNL     1       2.441   4.037  19.063  0.00  0.00    +0.000 S 
ATOM     23  O   UNL     1       1.182   3.375  18.776  0.00  0.00    +0.000 OA
ATOM     24  O   UNL     1       3.256   3.609  20.175  0.00  0.00    +0.000 OA
BRANCH  22  25
ATOM     25  C   UNL     1       2.080   5.774  19.168  0.00  0.00    +0.000 A 
ATOM     26  C   UNL     1       2.133   6.556  18.013  0.00  0.00    +0.000 A 
ATOM     27  C   UNL     1       1.843   7.921  18.091  0.00  0.00    +0.000 A 
ATOM     28  C   UNL     1       1.508   8.521  19.319  0.00  0.00    +0.000 A 
ATOM     29  C   UNL     1       1.223   9.893  19.413  0.00  0.00    +0.000 A 
ATOM     30  C   UNL     1       0.904  10.466  20.645  0.00  0.00    +0.000 A 
ATOM     31 CL   UNL     1       0.549  12.148  20.739  0.00  0.00    +0.000 Cl
ATOM     32  C   UNL     1       0.874   9.690  21.799  0.00  0.00    +0.000 A 
ATOM     33  C   UNL     1       1.151   8.324  21.721  0.00  0.00    +0.000 A 
ATOM     34  C   UNL     1       1.458   7.724  20.487  0.00  0.00    +0.000 A 
ATOM     35  C   UNL     1       1.723   6.347  20.394  0.00  0.00    +0.000 A 
ENDBRANCH  22  25
ENDBRANCH  20  22
ENDBRANCH   3  20
TORSDOF 5
ENDMDL
MODEL 8
REMARK VINA RESULT:      -8.6      5.749      9.424
REMARK  Name = 
REMARK  5 active torsions:
REMARK  status: ('A' for Active; 'I' for Inactive)
REMARK    1  A    between atoms: C_3  and  N_4
REMARK    2  A    between atoms: N_4  and  S_5
REMARK    3  A    between atoms: S_5  and  C_8
REMARK    4  A    between atoms: N_21  and  C_22
REMARK    5  A    between atoms: C_25  and  C_26
REMARK                            x       y       z     vdW  Elec       q    Type
REMARK                         _______ _______ _______ _____ _____    ______ ____
ROOT
ATOM      1  O   UNL     1       2.207  12.228  18.905  0.00  0.00    +0.000 OA
ATOM      2  C   UNL     1       1.221  12.063  19.607  0.00  0.00    +0.000 C 
ATOM      3  C   UNL     1       0.568  13.153  20.425  0.00  0.00    +0.000 C 
ATOM      4  C   UNL     1      -0.731  12.483  20.880  0.00  0.00    +0.000 C 
ATOM      5  C   UNL     1      -0.369  11.007  20.941  0.00  0.00    +0.000 C 
ATOM      6  N   UNL     1       0.585  10.849  19.879  0.00  0.00    +0.000 N 
ENDROOT
BRANCH   6   7
ATOM      7  C   UNL     1       1.097   9.601  19.437  0.00  0.00    +0.000 A 
ATOM      8  C   UNL     1       1.275   9.362  18.070  0.00  0.00    +0.000 A 
ATOM      9  C   UNL     1       1.909   8.209  17.610  0.00  0.00    +0.000 A 
ATOM     10  C   UNL     1       2.351   7.216  18.495  0.00  0.00    +0.000 A 
ATOM     11  C   UNL     1       2.110   7.427  19.863  0.00  0.00    +0.000 A 
ATOM     12  C   UNL     1       1.489   8.594  20.319  0.00  0.00    +0.000 A 
ATOM     13  F   UNL     1       1.339   8.739  21.646  0.00  0.00    +0.000 F 
BRANCH  10  14
ATOM     14  C   UNL     1       3.034   6.012  17.992  0.00  0.00    +0.000 A 
ATOM     15  C   UNL     1       2.367   4.785  17.855  0.00  0.00    +0.000 A 
ATOM     16  C   UNL     1       3.030   3.665  17.360  0.00  0.00    +0.000 A 
ATOM     17  C   UNL     1       4.363   3.792  17.022  0.00  0.00    +0.000 A 
ATOM     18  N   UNL     1       5.056   4.944  17.133  0.00  0.00    +0.000 NA
ATOM     19  C   UNL     1       4.376   6.018  17.604  0.00  0.00    +0.000 A 
ENDBRANCH  10  14
ENDBRANCH   6   7
BRANCH   3  20
ATOM     20  N   UNL     1       0.280  14.409  19.714  0.00  0.00    +0.000 NA
ATOM     21  H   UNL     1      -0.702  14.672  19.635  0.00  0.00    +0.000 HD
BRANCH  20  22
ATOM     22  S   UNL     1       1.173  15.792  20.136  0.00  0.00    +0.000 S 
ATOM     23  O   UNL     1       0.575  16.862  19.359  0.00  0.00    +0.000 OA
ATOM     24  O   UNL     1       1.224  15.874  21.576  0.00  0.00    +0.000 OA
BRANCH  22  25
ATOM     25  C   UNL     1       2.793  15.525  19.454  0.00  0.00    +0.000 A 
ATOM     26  C   UNL     1       2.957  15.495  18.068  0.00  0.00    +0.000 A 
ATOM     27  C   UNL     1       4.230  15.291  17.529  0.00  0.00    +0.000 A 
ATOM     28  C   UNL     1       5.348  15.106  18.364  0.00  0.00    +0.000 A 
ATOM     29  C   UNL     1       6.631  14.892  17.835  0.00  0.00    +0.000 A 
ATOM     30  C   UNL     1       7.723  14.700  18.684  0.00  0.00    +0.000 A 
ATOM     31 CL   UNL     1       9.290  14.447  18.017  0.00  0.00    +0.000 Cl
ATOM     32  C   UNL     1       7.554  14.706  20.065  0.00  0.00    +0.000 A 
ATOM     33  C   UNL     1       6.285  14.922  20.605  0.00  0.00    +0.000 A 
ATOM     34  C   UNL     1       5.176  15.135  19.768  0.00  0.00    +0.000 A 
ATOM     35  C   UNL     1       3.897  15.368  20.300  0.00  0.00    +0.000 A 
ENDBRANCH  22  25
ENDBRANCH  20  22
ENDBRANCH   3  20
TORSDOF 5
ENDMDL
MODEL 9
REMARK VINA RESULT:      -8.6      5.896      9.233
REMARK  Name = 
REMARK  5 active torsions:
REMARK  status: ('A' for Active; 'I' for Inactive)
REMARK    1  A    between atoms: C_3  and  N_4
REMARK    2  A    between atoms: N_4  and  S_5
REMARK    3  A    between atoms: S_5  and  C_8
REMARK    4  A    between atoms: N_21  and  C_22
REMARK    5  A    between atoms: C_25  and  C_26
REMARK                            x       y       z     vdW  Elec       q    Type
REMARK                         _______ _______ _______ _____ _____    ______ ____
ROOT
ATOM      1  O   UNL     1       1.873  12.169  19.166  0.00  0.00    +0.000 OA
ATOM      2  C   UNL     1       0.700  11.863  19.309  0.00  0.00    +0.000 C 
ATOM      3  C   UNL     1      -0.415  12.857  19.545  0.00  0.00    +0.000 C 
ATOM      4  C   UNL     1      -1.664  11.986  19.391  0.00  0.00    +0.000 C 
ATOM      5  C   UNL     1      -1.193  10.606  19.822  0.00  0.00    +0.000 C 
ATOM      6  N   UNL     1       0.180  10.570  19.397  0.00  0.00    +0.000 N 
ENDROOT
BRANCH   6   7
ATOM      7  C   UNL     1       1.004   9.415  19.437  0.00  0.00    +0.000 A 
ATOM      8  C   UNL     1       1.069   8.641  20.601  0.00  0.00    +0.000 A 
ATOM      9  C   UNL     1       1.751   7.425  20.629  0.00  0.00    +0.000 A 
ATOM     10  C   UNL     1       2.441   6.950  19.506  0.00  0.00    +0.000 A 
ATOM     11  C   UNL     1       2.430   7.761  18.359  0.00  0.00    +0.000 A 
ATOM     12  C   UNL     1       1.731   8.971  18.332  0.00  0.00    +0.000 A 
ATOM     13  F   UNL     1       1.732   9.663  17.181  0.00  0.00    +0.000 F 
BRANCH  10  14
ATOM     14  C   UNL     1       3.141   5.654  19.549  0.00  0.00    +0.000 A 
ATOM     15  C   UNL     1       4.417   5.484  18.991  0.00  0.00    +0.000 A 
ATOM     16  C   UNL     1       5.066   4.254  19.059  0.00  0.00    +0.000 A 
ATOM     17  C   UNL     1       4.414   3.205  19.678  0.00  0.00    +0.000 A 
ATOM     18  N   UNL     1       3.188   3.309  20.230  0.00  0.00    +0.000 NA
ATOM     19  C   UNL     1       2.591   4.524  20.159  0.00  0.00    +0.000 A 
ENDBRANCH  10  14
ENDBRANCH   6   7
BRANCH   3  20
ATOM     20  N   UNL     1      -0.465  14.002  18.620  0.00  0.00    +0.000 NA
ATOM     21  H   UNL     1      -1.308  14.090  18.052  0.00  0.00    +0.000 HD
BRANCH  20  22
ATOM     22  S   UNL     1      -0.062  15.538  19.224  0.00  0.00    +0.000 S 
ATOM     23  O   UNL     1      -0.209  16.425  18.085  0.00  0.00    +0.000 OA
ATOM     24  O   UNL     1      -0.824  15.763  20.430  0.00  0.00    +0.000 OA
BRANCH  22  25
ATOM     25  C   UNL     1       1.679  15.457  19.574  0.00  0.00    +0.000 A 
ATOM     26  C   UNL     1       2.119  15.577  20.893  0.00  0.00    +0.000 A 
ATOM     27  C   UNL     1       3.486  15.507  21.173  0.00  0.00    +0.000 A 
ATOM     28  C   UNL     1       4.428  15.328  20.141  0.00  0.00    +0.000 A 
ATOM     29  C   UNL     1       5.805  15.264  20.407  0.00  0.00    +0.000 A 
ATOM     30  C   UNL     1       6.719  15.097  19.366  0.00  0.00    +0.000 A 
ATOM     31 CL   UNL     1       8.404  15.013  19.712  0.00  0.00    +0.000 Cl
ATOM     32  C   UNL     1       6.280  15.001  18.049  0.00  0.00    +0.000 A 
ATOM     33  C   UNL     1       4.914  15.058  17.770  0.00  0.00    +0.000 A 
ATOM     34  C   UNL     1       3.976  15.209  18.806  0.00  0.00    +0.000 A 
ATOM     35  C   UNL     1       2.597  15.253  18.538  0.00  0.00    +0.000 A 
ENDBRANCH  22  25
ENDBRANCH  20  22
ENDBRANCH   3  20
TORSDOF 5
ENDMDL
