MODEL 1
REMARK VINA RESULT:      -7.8      0.000      0.000
REMARK  Name = 
REMARK  11 active torsions:
REMARK  status: ('A' for Active; 'I' for Inactive)
REMARK    1  A    between atoms: C_1  and  C_2
REMARK    2  A    between atoms: C_2  and  C_3
REMARK    3  A    between atoms: C_6  and  C_7
REMARK    4  A    between atoms: C_7  and  C_8
REMARK    5  A    between atoms: C_7  and  N_20
REMARK    6  A    between atoms: C_8  and  C_9
REMARK    7  A    between atoms: C_12  and  N_13
REMARK    8  A    between atoms: N_13  and  S_14
REMARK    9  A    between atoms: S_14  and  O_17
REMARK   10  A    between atoms: C_21  and  C_23
REMARK   11  A    between atoms: C_23  and  C_24
REMARK                            x       y       z     vdW  Elec       q    Type
REMARK                         _______ _______ _______ _____ _____    ______ ____
ROOT
ATOM      1  C   UNL     1       5.394   5.927  17.003  0.00  0.00    +0.000 C 
ENDROOT
BRANCH   1   5
ATOM      2  C   UNL     1       7.959   8.346  17.974  0.00  0.00    +0.000 A 
ATOM      3  C   UNL     1       8.446   7.420  18.877  0.00  0.00    +0.000 A 
ATOM      4  S   UNL     1       7.577   5.957  18.741  0.00  0.00    +0.000 S 
ATOM      5  C   UNL     1       6.591   6.675  17.524  0.00  0.00    +0.000 A 
ATOM      6  N   UNL     1       6.943   7.890  17.151  0.00  0.00    +0.000 NA
BRANCH   2   8
ATOM      7  C   UNL     1       9.191  10.219  19.057  0.00  0.00    +0.000 C 
ATOM      8  C   UNL     1       8.374   9.773  17.852  0.00  0.00    +0.000 C 
ENDBRANCH   2   8
ENDBRANCH   1   5
BRANCH   1   9
ATOM      9  N   UNL     1       5.033   4.879  17.960  0.00  0.00    +0.000 N 
ATOM     10  C   UNL     1       4.870   3.579  17.524  0.00  0.00    +0.000 C 
ATOM     11  O   UNL     1       5.010   3.263  16.347  0.00  0.00    +0.000 OA
ATOM     12  H   UNL     1       5.043   5.086  18.950  0.00  0.00    +0.000 HD
BRANCH  10  13
ATOM     13  C   UNL     1       4.434   2.597  18.601  0.00  0.00    +0.000 C 
BRANCH  13  14
ATOM     14  C   UNL     1       3.060   2.863  19.170  0.00  0.00    +0.000 A 
ATOM     15  C   UNL     1       1.947   2.979  18.325  0.00  0.00    +0.000 A 
ATOM     16  C   UNL     1       0.669   3.183  18.848  0.00  0.00    +0.000 A 
ATOM     17  C   UNL     1       0.490   3.283  20.225  0.00  0.00    +0.000 A 
ATOM     18  C   UNL     1       1.589   3.182  21.077  0.00  0.00    +0.000 A 
ATOM     19  C   UNL     1       2.866   2.965  20.555  0.00  0.00    +0.000 A 
ENDBRANCH  13  14
ENDBRANCH  10  13
ENDBRANCH   1   9
BRANCH   1  20
ATOM     20  C   UNL     1       4.202   6.853  16.731  0.00  0.00    +0.000 C 
BRANCH  20  21
ATOM     21  C   UNL     1       3.335   7.154  17.937  0.00  0.00    +0.000 A 
ATOM     22  C   UNL     1       3.263   6.309  19.048  0.00  0.00    +0.000 A 
ATOM     23  C   UNL     1       2.460   6.638  20.143  0.00  0.00    +0.000 A 
ATOM     24  C   UNL     1       1.715   7.814  20.143  0.00  0.00    +0.000 A 
ATOM     25  C   UNL     1       1.754   8.650  19.028  0.00  0.00    +0.000 A 
ATOM     26  C   UNL     1       2.565   8.327  17.935  0.00  0.00    +0.000 A 
BRANCH  24  27
ATOM     27  N   UNL     1       0.851   8.082  21.238  0.00  0.00    +0.000 N 
ATOM     28  H   UNL     1       0.411   7.295  21.713  0.00  0.00    +0.000 HD
BRANCH  27  29
ATOM     29  S   UNL     1       1.077   9.430  22.195  0.00  0.00    +0.000 S 
ATOM     30  O   UNL     1       1.155  10.583  21.353  0.00  0.00    +0.000 OA
ATOM     31  O   UNL     1       0.138   9.349  23.304  0.00  0.00    +0.000 OA
BRANCH  29  32
ATOM     32  O   UNL     1       2.551   9.229  22.802  0.00  0.00    +0.000 OA
ATOM     33  H   UNL     1       2.648   9.921  23.489  0.00  0.00    +0.000 HD
ENDBRANCH  29  32
ENDBRANCH  27  29
ENDBRANCH  24  27
ENDBRANCH  20  21
ENDBRANCH   1  20
TORSDOF 10
ENDMDL
MODEL 2
REMARK VINA RESULT:      -7.6      2.302      3.608
REMARK  Name = 
REMARK  11 active torsions:
REMARK  status: ('A' for Active; 'I' for Inactive)
REMARK    1  A    between atoms: C_1  and  C_2
REMARK    2  A    between atoms: C_2  and  C_3
REMARK    3  A    between atoms: C_6  and  C_7
REMARK    4  A    between atoms: C_7  and  C_8
REMARK    5  A    between atoms: C_7  and  N_20
REMARK    6  A    between atoms: C_8  and  C_9
REMARK    7  A    between atoms: C_12  and  N_13
REMARK    8  A    between atoms: N_13  and  S_14
REMARK    9  A    between atoms: S_14  and  O_17
REMARK   10  A    between atoms: C_21  and  C_23
REMARK   11  A    between atoms: C_23  and  C_24
REMARK                            x       y       z     vdW  Elec       q    Type
REMARK                         _______ _______ _______ _____ _____    ______ ____
ROOT
ATOM      1  C   UNL     1       4.417   5.089  16.432  0.00  0.00    +0.000 C 
ENDROOT
BRANCH   1   5
ATOM      2  C   UNL     1       6.423   4.156  13.520  0.00  0.00    +0.000 A 
ATOM      3  C   UNL     1       7.501   4.801  14.095  0.00  0.00    +0.000 A 
ATOM      4  S   UNL     1       7.077   5.382  15.643  0.00  0.00    +0.000 S 
ATOM      5  C   UNL     1       5.482   4.771  15.418  0.00  0.00    +0.000 A 
ATOM      6  N   UNL     1       5.290   4.079  14.312  0.00  0.00    +0.000 NA
BRANCH   2   8
ATOM      7  C   UNL     1       4.940   3.144  11.796  0.00  0.00    +0.000 C 
ATOM      8  C   UNL     1       6.350   3.604  12.136  0.00  0.00    +0.000 C 
ENDBRANCH   2   8
ENDBRANCH   1   5
BRANCH   1   9
ATOM      9  N   UNL     1       4.156   3.895  17.240  0.00  0.00    +0.000 N 
ATOM     10  C   UNL     1       3.041   3.123  16.983  0.00  0.00    +0.000 C 
ATOM     11  O   UNL     1       2.243   3.405  16.095  0.00  0.00    +0.000 OA
ATOM     12  H   UNL     1       4.864   3.569  17.886  0.00  0.00    +0.000 HD
BRANCH  10  13
ATOM     13  C   UNL     1       2.848   1.949  17.931  0.00  0.00    +0.000 C 
BRANCH  13  14
ATOM     14  C   UNL     1       2.406   2.336  19.323  0.00  0.00    +0.000 A 
ATOM     15  C   UNL     1       1.081   2.726  19.569  0.00  0.00    +0.000 A 
ATOM     16  C   UNL     1       0.657   3.044  20.860  0.00  0.00    +0.000 A 
ATOM     17  C   UNL     1       1.555   2.983  21.921  0.00  0.00    +0.000 A 
ATOM     18  C   UNL     1       2.878   2.609  21.690  0.00  0.00    +0.000 A 
ATOM     19  C   UNL     1       3.301   2.278  20.400  0.00  0.00    +0.000 A 
ENDBRANCH  13  14
ENDBRANCH  10  13
ENDBRANCH   1   9
BRANCH   1  20
ATOM     20  C   UNL     1       4.797   6.279  17.321  0.00  0.00    +0.000 C 
BRANCH  20  21
ATOM     21  C   UNL     1       3.691   6.783  18.227  0.00  0.00    +0.000 A 
ATOM     22  C   UNL     1       2.985   7.964  17.976  0.00  0.00    +0.000 A 
ATOM     23  C   UNL     1       1.963   8.379  18.832  0.00  0.00    +0.000 A 
ATOM     24  C   UNL     1       1.632   7.623  19.954  0.00  0.00    +0.000 A 
ATOM     25  C   UNL     1       2.349   6.460  20.232  0.00  0.00    +0.000 A 
ATOM     26  C   UNL     1       3.366   6.038  19.370  0.00  0.00    +0.000 A 
BRANCH  24  27
ATOM     27  N   UNL     1       0.640   8.111  20.845  0.00  0.00    +0.000 N 
ATOM     28  H   UNL     1       0.007   7.441  21.281  0.00  0.00    +0.000 HD
BRANCH  27  29
ATOM     29  S   UNL     1       0.899   9.498  21.735  0.00  0.00    +0.000 S 
ATOM     30  O   UNL     1       2.034   9.297  22.581  0.00  0.00    +0.000 OA
ATOM     31  O   UNL     1       0.807  10.632  20.826  0.00  0.00    +0.000 OA
BRANCH  29  32
ATOM     32  O   UNL     1      -0.372   9.569  22.717  0.00  0.00    +0.000 OA
ATOM     33  H   UNL     1      -0.606   8.636  22.910  0.00  0.00    +0.000 HD
ENDBRANCH  29  32
ENDBRANCH  27  29
ENDBRANCH  24  27
ENDBRANCH  20  21
ENDBRANCH   1  20
TORSDOF 10
ENDMDL
MODEL 3
REMARK VINA RESULT:      -7.5      0.605      1.242
REMARK  Name = 
REMARK  11 active torsions:
REMARK  status: ('A' for Active; 'I' for Inactive)
REMARK    1  A    between atoms: C_1  and  C_2
REMARK    2  A    between atoms: C_2  and  C_3
REMARK    3  A    between atoms: C_6  and  C_7
REMARK    4  A    between atoms: C_7  and  C_8
REMARK    5  A    between atoms: C_7  and  N_20
REMARK    6  A    between atoms: C_8  and  C_9
REMARK    7  A    between atoms: C_12  and  N_13
REMARK    8  A    between atoms: N_13  and  S_14
REMARK    9  A    between atoms: S_14  and  O_17
REMARK   10  A    between atoms: C_21  and  C_23
REMARK   11  A    between atoms: C_23  and  C_24
REMARK                            x       y       z     vdW  Elec       q    Type
REMARK                         _______ _______ _______ _____ _____    ______ ____
ROOT
ATOM      1  C   UNL     1       5.297   5.949  16.682  0.00  0.00    +0.000 C 
ENDROOT
BRANCH   1   5
ATOM      2  C   UNL     1       7.889   8.202  17.938  0.00  0.00    +0.000 A 
ATOM      3  C   UNL     1       8.300   7.200  18.797  0.00  0.00    +0.000 A 
ATOM      4  S   UNL     1       7.389   5.783  18.519  0.00  0.00    +0.000 S 
ATOM      5  C   UNL     1       6.491   6.616  17.309  0.00  0.00    +0.000 A 
ATOM      6  N   UNL     1       6.900   7.840  17.039  0.00  0.00    +0.000 NA
BRANCH   2   8
ATOM      7  C   UNL     1       9.218   9.921  19.152  0.00  0.00    +0.000 C 
ATOM      8  C   UNL     1       8.357   9.618  17.935  0.00  0.00    +0.000 C 
ENDBRANCH   2   8
ENDBRANCH   1   5
BRANCH   1   9
ATOM      9  N   UNL     1       4.915   4.791  17.494  0.00  0.00    +0.000 N 
ATOM     10  C   UNL     1       4.871   3.536  16.921  0.00  0.00    +0.000 C 
ATOM     11  O   UNL     1       5.135   3.349  15.738  0.00  0.00    +0.000 OA
ATOM     12  H   UNL     1       4.824   4.897  18.497  0.00  0.00    +0.000 HD
BRANCH  10  13
ATOM     13  C   UNL     1       4.400   2.428  17.852  0.00  0.00    +0.000 C 
BRANCH  13  14
ATOM     14  C   UNL     1       3.144   2.753  18.625  0.00  0.00    +0.000 A 
ATOM     15  C   UNL     1       1.945   3.034  17.954  0.00  0.00    +0.000 A 
ATOM     16  C   UNL     1       0.771   3.294  18.663  0.00  0.00    +0.000 A 
ATOM     17  C   UNL     1       0.785   3.284  20.055  0.00  0.00    +0.000 A 
ATOM     18  C   UNL     1       1.972   3.018  20.736  0.00  0.00    +0.000 A 
ATOM     19  C   UNL     1       3.144   2.745  20.026  0.00  0.00    +0.000 A 
ENDBRANCH  13  14
ENDBRANCH  10  13
ENDBRANCH   1   9
BRANCH   1  20
ATOM     20  C   UNL     1       4.114   6.911  16.513  0.00  0.00    +0.000 C 
BRANCH  20  21
ATOM     21  C   UNL     1       3.342   7.209  17.782  0.00  0.00    +0.000 A 
ATOM     22  C   UNL     1       2.624   8.393  17.972  0.00  0.00    +0.000 A 
ATOM     23  C   UNL     1       1.914   8.615  19.154  0.00  0.00    +0.000 A 
ATOM     24  C   UNL     1       1.912   7.658  20.166  0.00  0.00    +0.000 A 
ATOM     25  C   UNL     1       2.650   6.487  20.002  0.00  0.00    +0.000 A 
ATOM     26  C   UNL     1       3.353   6.259  18.814  0.00  0.00    +0.000 A 
BRANCH  24  27
ATOM     27  N   UNL     1       1.244   7.946  21.386  0.00  0.00    +0.000 N 
ATOM     28  H   UNL     1       1.635   7.578  22.252  0.00  0.00    +0.000 HD
BRANCH  27  29
ATOM     29  S   UNL     1       0.362   9.351  21.566  0.00  0.00    +0.000 S 
ATOM     30  O   UNL     1       1.259  10.418  21.887  0.00  0.00    +0.000 OA
ATOM     31  O   UNL     1      -0.568   9.437  20.450  0.00  0.00    +0.000 OA
BRANCH  29  32
ATOM     32  O   UNL     1      -0.506   9.093  22.894  0.00  0.00    +0.000 OA
ATOM     33  H   UNL     1      -0.590   9.970  23.326  0.00  0.00    +0.000 HD
ENDBRANCH  29  32
ENDBRANCH  27  29
ENDBRANCH  24  27
ENDBRANCH  20  21
ENDBRANCH   1  20
TORSDOF 10
ENDMDL
MODEL 4
REMARK VINA RESULT:      -7.4      4.824      9.504
REMARK  Name = 
REMARK  11 active torsions:
REMARK  status: ('A' for Active; 'I' for Inactive)
REMARK    1  A    between atoms: C_1  and  C_2
REMARK    2  A    between atoms: C_2  and  C_3
REMARK    3  A    between atoms: C_6  and  C_7
REMARK    4  A    between atoms: C_7  and  C_8
REMARK    5  A    between atoms: C_7  and  N_20
REMARK    6  A    between atoms: C_8  and  C_9
REMARK    7  A    between atoms: C_12  and  N_13
REMARK    8  A    between atoms: N_13  and  S_14
REMARK    9  A    between atoms: S_14  and  O_17
REMARK   10  A    between atoms: C_21  and  C_23
REMARK   11  A    between atoms: C_23  and  C_24
REMARK                            x       y       z     vdW  Elec       q    Type
REMARK                         _______ _______ _______ _____ _____    ______ ____
ROOT
ATOM      1  C   UNL     1       0.700  10.821  19.063  0.00  0.00    +0.000 C 
ENDROOT
BRANCH   1   5
ATOM      2  C   UNL     1      -2.693  10.848  17.698  0.00  0.00    +0.000 A 
ATOM      3  C   UNL     1      -3.069  11.683  18.733  0.00  0.00    +0.000 A 
ATOM      4  S   UNL     1      -1.710  12.081  19.686  0.00  0.00    +0.000 S 
ATOM      5  C   UNL     1      -0.732  11.083  18.680  0.00  0.00    +0.000 A 
ATOM      6  N   UNL     1      -1.339  10.564  17.631  0.00  0.00    +0.000 NA
BRANCH   2   8
ATOM      7  C   UNL     1      -2.858   9.842  15.428  0.00  0.00    +0.000 C 
ATOM      8  C   UNL     1      -3.597  10.190  16.712  0.00  0.00    +0.000 C 
ENDBRANCH   2   8
ENDBRANCH   1   5
BRANCH   1   9
ATOM      9  N   UNL     1       1.315  12.078  19.498  0.00  0.00    +0.000 N 
ATOM     10  C   UNL     1       2.335  12.635  18.754  0.00  0.00    +0.000 C 
ATOM     11  O   UNL     1       2.760  12.107  17.731  0.00  0.00    +0.000 OA
ATOM     12  H   UNL     1       0.897  12.598  20.258  0.00  0.00    +0.000 HD
BRANCH  10  13
ATOM     13  C   UNL     1       2.933  13.904  19.343  0.00  0.00    +0.000 C 
BRANCH  13  14
ATOM     14  C   UNL     1       2.485  15.178  18.665  0.00  0.00    +0.000 A 
ATOM     15  C   UNL     1       1.284  15.800  19.036  0.00  0.00    +0.000 A 
ATOM     16  C   UNL     1       0.886  16.999  18.443  0.00  0.00    +0.000 A 
ATOM     17  C   UNL     1       1.683  17.588  17.465  0.00  0.00    +0.000 A 
ATOM     18  C   UNL     1       2.873  16.975  17.078  0.00  0.00    +0.000 A 
ATOM     19  C   UNL     1       3.279  15.781  17.680  0.00  0.00    +0.000 A 
ENDBRANCH  13  14
ENDBRANCH  10  13
ENDBRANCH   1   9
BRANCH   1  20
ATOM     20  C   UNL     1       0.824   9.747  20.152  0.00  0.00    +0.000 C 
BRANCH  20  21
ATOM     21  C   UNL     1       1.514   8.470  19.717  0.00  0.00    +0.000 A 
ATOM     22  C   UNL     1       2.101   8.316  18.458  0.00  0.00    +0.000 A 
ATOM     23  C   UNL     1       2.740   7.124  18.109  0.00  0.00    +0.000 A 
ATOM     24  C   UNL     1       2.799   6.066  19.012  0.00  0.00    +0.000 A 
ATOM     25  C   UNL     1       2.191   6.195  20.260  0.00  0.00    +0.000 A 
ATOM     26  C   UNL     1       1.560   7.392  20.614  0.00  0.00    +0.000 A 
BRANCH  24  27
ATOM     27  N   UNL     1       3.389   4.841  18.601  0.00  0.00    +0.000 N 
ATOM     28  H   UNL     1       2.906   4.283  17.897  0.00  0.00    +0.000 HD
BRANCH  27  29
ATOM     29  S   UNL     1       5.044   4.636  18.631  0.00  0.00    +0.000 S 
ATOM     30  O   UNL     1       5.530   4.624  17.286  0.00  0.00    +0.000 OA
ATOM     31  O   UNL     1       5.584   5.539  19.637  0.00  0.00    +0.000 OA
BRANCH  29  32
ATOM     32  O   UNL     1       5.237   3.138  19.180  0.00  0.00    +0.000 OA
ATOM     33  H   UNL     1       4.985   2.552  18.435  0.00  0.00    +0.000 HD
ENDBRANCH  29  32
ENDBRANCH  27  29
ENDBRANCH  24  27
ENDBRANCH  20  21
ENDBRANCH   1  20
TORSDOF 10
ENDMDL
MODEL 5
REMARK VINA RESULT:      -7.4      2.657      5.718
REMARK  Name = 
REMARK  11 active torsions:
REMARK  status: ('A' for Active; 'I' for Inactive)
REMARK    1  A    between atoms: C_1  and  C_2
REMARK    2  A    between atoms: C_2  and  C_3
REMARK    3  A    between atoms: C_6  and  C_7
REMARK    4  A    between atoms: C_7  and  C_8
REMARK    5  A    between atoms: C_7  and  N_20
REMARK    6  A    between atoms: C_8  and  C_9
REMARK    7  A    between atoms: C_12  and  N_13
REMARK    8  A    between atoms: N_13  and  S_14
REMARK    9  A    between atoms: S_14  and  O_17
REMARK   10  A    between atoms: C_21  and  C_23
REMARK   11  A    between atoms: C_23  and  C_24
REMARK                            x       y       z     vdW  Elec       q    Type
REMARK                         _______ _______ _______ _____ _____    ______ ____
ROOT
ATOM      1  C   UNL     1       4.320   5.810  18.330  0.00  0.00    +0.000 C 
ENDROOT
BRANCH   1   5
ATOM      2  C   UNL     1       1.871   3.353  19.487  0.00  0.00    +0.000 A 
ATOM      3  C   UNL     1       1.980   2.716  18.265  0.00  0.00    +0.000 A 
ATOM      4  S   UNL     1       3.167   3.484  17.309  0.00  0.00    +0.000 S 
ATOM      5  C   UNL     1       3.421   4.629  18.571  0.00  0.00    +0.000 A 
ATOM      6  N   UNL     1       2.750   4.405  19.684  0.00  0.00    +0.000 NA
BRANCH   2   8
ATOM      7  C   UNL     1       1.550   2.475  21.793  0.00  0.00    +0.000 C 
ATOM      8  C   UNL     1       0.878   3.058  20.559  0.00  0.00    +0.000 C 
ENDBRANCH   2   8
ENDBRANCH   1   5
BRANCH   1   9
ATOM      9  N   UNL     1       5.526   5.357  17.631  0.00  0.00    +0.000 N 
ATOM     10  C   UNL     1       5.958   6.028  16.505  0.00  0.00    +0.000 C 
ATOM     11  O   UNL     1       5.359   6.999  16.053  0.00  0.00    +0.000 OA
ATOM     12  H   UNL     1       6.109   4.647  18.056  0.00  0.00    +0.000 HD
BRANCH  10  13
ATOM     13  C   UNL     1       7.183   5.423  15.835  0.00  0.00    +0.000 C 
BRANCH  13  14
ATOM     14  C   UNL     1       6.913   4.797  14.487  0.00  0.00    +0.000 A 
ATOM     15  C   UNL     1       5.849   3.899  14.317  0.00  0.00    +0.000 A 
ATOM     16  C   UNL     1       5.569   3.351  13.064  0.00  0.00    +0.000 A 
ATOM     17  C   UNL     1       6.355   3.688  11.966  0.00  0.00    +0.000 A 
ATOM     18  C   UNL     1       7.423   4.570  12.123  0.00  0.00    +0.000 A 
ATOM     19  C   UNL     1       7.697   5.129  13.374  0.00  0.00    +0.000 A 
ENDBRANCH  13  14
ENDBRANCH  10  13
ENDBRANCH   1   9
BRANCH   1  20
ATOM     20  C   UNL     1       3.619   6.925  17.543  0.00  0.00    +0.000 C 
BRANCH  20  21
ATOM     21  C   UNL     1       2.623   7.743  18.339  0.00  0.00    +0.000 A 
ATOM     22  C   UNL     1       2.297   7.457  19.668  0.00  0.00    +0.000 A 
ATOM     23  C   UNL     1       1.383   8.251  20.365  0.00  0.00    +0.000 A 
ATOM     24  C   UNL     1       0.779   9.342  19.744  0.00  0.00    +0.000 A 
ATOM     25  C   UNL     1       1.072   9.619  18.410  0.00  0.00    +0.000 A 
ATOM     26  C   UNL     1       1.994   8.831  17.714  0.00  0.00    +0.000 A 
BRANCH  24  27
ATOM     27  N   UNL     1      -0.202  10.083  20.455  0.00  0.00    +0.000 N 
ATOM     28  H   UNL     1      -1.140   9.693  20.536  0.00  0.00    +0.000 HD
BRANCH  27  29
ATOM     29  S   UNL     1       0.235  11.101  21.703  0.00  0.00    +0.000 S 
ATOM     30  O   UNL     1       0.278  10.347  22.917  0.00  0.00    +0.000 OA
ATOM     31  O   UNL     1       1.365  11.897  21.250  0.00  0.00    +0.000 OA
BRANCH  29  32
ATOM     32  O   UNL     1      -1.022  12.093  21.848  0.00  0.00    +0.000 OA
ATOM     33  H   UNL     1      -1.055  12.597  21.007  0.00  0.00    +0.000 HD
ENDBRANCH  29  32
ENDBRANCH  27  29
ENDBRANCH  24  27
ENDBRANCH  20  21
ENDBRANCH   1  20
TORSDOF 10
ENDMDL
MODEL 6
REMARK VINA RESULT:      -7.4      0.572      1.121
REMARK  Name = 
REMARK  11 active torsions:
REMARK  status: ('A' for Active; 'I' for Inactive)
REMARK    1  A    between atoms: C_1  and  C_2
REMARK    2  A    between atoms: C_2  and  C_3
REMARK    3  A    between atoms: C_6  and  C_7
REMARK    4  A    between atoms: C_7  and  C_8
REMARK    5  A    between atoms: C_7  and  N_20
REMARK    6  A    between atoms: C_8  and  C_9
REMARK    7  A    between atoms: C_12  and  N_13
REMARK    8  A    between atoms: N_13  and  S_14
REMARK    9  A    between atoms: S_14  and  O_17
REMARK   10  A    between atoms: C_21  and  C_23
REMARK   11  A    between atoms: C_23  and  C_24
REMARK                            x       y       z     vdW  Elec       q    Type
REMARK                         _______ _______ _______ _____ _____    ______ ____
ROOT
ATOM      1  C   UNL     1       5.269   5.885  16.800  0.00  0.00    +0.000 C 
ENDROOT
BRANCH   1   5
ATOM      2  C   UNL     1       7.882   8.170  17.951  0.00  0.00    +0.000 A 
ATOM      3  C   UNL     1       8.296   7.198  18.842  0.00  0.00    +0.000 A 
ATOM      4  S   UNL     1       7.377   5.776  18.624  0.00  0.00    +0.000 S 
ATOM      5  C   UNL     1       6.471   6.569  17.392  0.00  0.00    +0.000 A 
ATOM      6  N   UNL     1       6.884   7.780  17.073  0.00  0.00    +0.000 NA
BRANCH   2   8
ATOM      7  C   UNL     1       9.168   9.948  19.125  0.00  0.00    +0.000 C 
ATOM      8  C   UNL     1       8.356   9.582  17.891  0.00  0.00    +0.000 C 
ENDBRANCH   2   8
ENDBRANCH   1   5
BRANCH   1   9
ATOM      9  N   UNL     1       4.894   4.755  17.653  0.00  0.00    +0.000 N 
ATOM     10  C   UNL     1       4.796   3.489  17.111  0.00  0.00    +0.000 C 
ATOM     11  O   UNL     1       5.005   3.271  15.922  0.00  0.00    +0.000 OA
ATOM     12  H   UNL     1       4.847   4.884  18.656  0.00  0.00    +0.000 HD
BRANCH  10  13
ATOM     13  C   UNL     1       4.337   2.413  18.084  0.00  0.00    +0.000 C 
BRANCH  13  14
ATOM     14  C   UNL     1       3.055   2.736  18.814  0.00  0.00    +0.000 A 
ATOM     15  C   UNL     1       3.023   2.788  20.215  0.00  0.00    +0.000 A 
ATOM     16  C   UNL     1       1.851   3.127  20.893  0.00  0.00    +0.000 A 
ATOM     17  C   UNL     1       0.692   3.413  20.176  0.00  0.00    +0.000 A 
ATOM     18  C   UNL     1       0.705   3.354  18.783  0.00  0.00    +0.000 A 
ATOM     19  C   UNL     1       1.882   3.027  18.104  0.00  0.00    +0.000 A 
ENDBRANCH  13  14
ENDBRANCH  10  13
ENDBRANCH   1   9
BRANCH   1  20
ATOM     20  C   UNL     1       4.087   6.844  16.613  0.00  0.00    +0.000 C 
BRANCH  20  21
ATOM     21  C   UNL     1       3.300   7.147  17.872  0.00  0.00    +0.000 A 
ATOM     22  C   UNL     1       3.248   6.273  18.961  0.00  0.00    +0.000 A 
ATOM     23  C   UNL     1       2.522   6.603  20.108  0.00  0.00    +0.000 A 
ATOM     24  C   UNL     1       1.833   7.812  20.182  0.00  0.00    +0.000 A 
ATOM     25  C   UNL     1       1.852   8.679  19.090  0.00  0.00    +0.000 A 
ATOM     26  C   UNL     1       2.588   8.353  17.946  0.00  0.00    +0.000 A 
BRANCH  24  27
ATOM     27  N   UNL     1       1.042   8.085  21.329  0.00  0.00    +0.000 N 
ATOM     28  H   UNL     1       1.353   7.723  22.230  0.00  0.00    +0.000 HD
BRANCH  27  29
ATOM     29  S   UNL     1       0.122   9.473  21.422  0.00  0.00    +0.000 S 
ATOM     30  O   UNL     1      -0.489   9.705  20.150  0.00  0.00    +0.000 OA
ATOM     31  O   UNL     1      -0.657   9.407  22.650  0.00  0.00    +0.000 OA
BRANCH  29  32
ATOM     32  O   UNL     1       1.208  10.644  21.607  0.00  0.00    +0.000 OA
ATOM     33  H   UNL     1       1.995  10.354  21.099  0.00  0.00    +0.000 HD
ENDBRANCH  29  32
ENDBRANCH  27  29
ENDBRANCH  24  27
ENDBRANCH  20  21
ENDBRANCH   1  20
TORSDOF 10
ENDMDL
MODEL 7
REMARK VINA RESULT:      -7.4      4.795      9.457
REMARK  Name = 
REMARK  11 active torsions:
REMARK  status: ('A' for Active; 'I' for Inactive)
REMARK    1  A    between atoms: C_1  and  C_2
REMARK    2  A    between atoms: C_2  and  C_3
REMARK    3  A    between atoms: C_6  and  C_7
REMARK    4  A    between atoms: C_7  and  C_8
REMARK    5  A    between atoms: C_7  and  N_20
REMARK    6  A    between atoms: C_8  and  C_9
REMARK    7  A    between atoms: C_12  and  N_13
REMARK    8  A    between atoms: N_13  and  S_14
REMARK    9  A    between atoms: S_14  and  O_17
REMARK   10  A    between atoms: C_21  and  C_23
REMARK   11  A    between atoms: C_23  and  C_24
REMARK                            x       y       z     vdW  Elec       q    Type
REMARK                         _______ _______ _______ _____ _____    ______ ____
ROOT
ATOM      1  C   UNL     1       0.923  10.650  19.192  0.00  0.00    +0.000 C 
ENDROOT
BRANCH   1   5
ATOM      2  C   UNL     1      -2.284  10.416  17.451  0.00  0.00    +0.000 A 
ATOM      3  C   UNL     1      -2.797  11.345  18.336  0.00  0.00    +0.000 A 
ATOM      4  S   UNL     1      -1.568  11.889  19.390  0.00  0.00    +0.000 S 
ATOM      5  C   UNL     1      -0.458  10.821  18.620  0.00  0.00    +0.000 A 
ATOM      6  N   UNL     1      -0.926  10.172  17.572  0.00  0.00    +0.000 NA
BRANCH   2   8
ATOM      7  C   UNL     1      -3.028  10.295  15.079  0.00  0.00    +0.000 C 
ATOM      8  C   UNL     1      -3.052   9.627  16.446  0.00  0.00    +0.000 C 
ENDBRANCH   2   8
ENDBRANCH   1   5
BRANCH   1   9
ATOM      9  N   UNL     1       1.385  11.938  19.717  0.00  0.00    +0.000 N 
ATOM     10  C   UNL     1       2.243  12.716  18.966  0.00  0.00    +0.000 C 
ATOM     11  O   UNL     1       2.646  12.364  17.862  0.00  0.00    +0.000 OA
ATOM     12  H   UNL     1       0.966  12.310  20.559  0.00  0.00    +0.000 HD
BRANCH  10  13
ATOM     13  C   UNL     1       2.700  13.998  19.646  0.00  0.00    +0.000 C 
BRANCH  13  14
ATOM     14  C   UNL     1       2.343  15.262  18.901  0.00  0.00    +0.000 A 
ATOM     15  C   UNL     1       3.195  15.771  17.909  0.00  0.00    +0.000 A 
ATOM     16  C   UNL     1       2.850  16.916  17.188  0.00  0.00    +0.000 A 
ATOM     17  C   UNL     1       1.651  17.570  17.455  0.00  0.00    +0.000 A 
ATOM     18  C   UNL     1       0.800  17.083  18.446  0.00  0.00    +0.000 A 
ATOM     19  C   UNL     1       1.139  15.931  19.160  0.00  0.00    +0.000 A 
ENDBRANCH  13  14
ENDBRANCH  10  13
ENDBRANCH   1   9
BRANCH   1  20
ATOM     20  C   UNL     1       0.974   9.568  20.278  0.00  0.00    +0.000 C 
BRANCH  20  21
ATOM     21  C   UNL     1       1.580   8.249  19.843  0.00  0.00    +0.000 A 
ATOM     22  C   UNL     1       2.190   8.070  18.598  0.00  0.00    +0.000 A 
ATOM     23  C   UNL     1       2.749   6.839  18.248  0.00  0.00    +0.000 A 
ATOM     24  C   UNL     1       2.703   5.766  19.134  0.00  0.00    +0.000 A 
ATOM     25  C   UNL     1       2.069   5.922  20.367  0.00  0.00    +0.000 A 
ATOM     26  C   UNL     1       1.519   7.158  20.722  0.00  0.00    +0.000 A 
BRANCH  24  27
ATOM     27  N   UNL     1       3.211   4.506  18.719  0.00  0.00    +0.000 N 
ATOM     28  H   UNL     1       2.723   4.007  17.977  0.00  0.00    +0.000 HD
BRANCH  27  29
ATOM     29  S   UNL     1       4.841   4.165  18.828  0.00  0.00    +0.000 S 
ATOM     30  O   UNL     1       5.013   3.001  19.641  0.00  0.00    +0.000 OA
ATOM     31  O   UNL     1       5.403   4.258  17.489  0.00  0.00    +0.000 OA
BRANCH  29  32
ATOM     32  O   UNL     1       5.435   5.389  19.683  0.00  0.00    +0.000 OA
ATOM     33  H   UNL     1       4.881   5.438  20.491  0.00  0.00    +0.000 HD
ENDBRANCH  29  32
ENDBRANCH  27  29
ENDBRANCH  24  27
ENDBRANCH  20  21
ENDBRANCH   1  20
TORSDOF 10
ENDMDL
MODEL 8
REMARK VINA RESULT:      -7.3      4.730      9.451
REMARK  Name = 
REMARK  11 active torsions:
REMARK  status: ('A' for Active; 'I' for Inactive)
REMARK    1  A    between atoms: C_1  and  C_2
REMARK    2  A    between atoms: C_2  and  C_3
REMARK    3  A    between atoms: C_6  and  C_7
REMARK    4  A    between atoms: C_7  and  C_8
REMARK    5  A    between atoms: C_7  and  N_20
REMARK    6  A    between atoms: C_8  and  C_9
REMARK    7  A    between atoms: C_12  and  N_13
REMARK    8  A    between atoms: N_13  and  S_14
REMARK    9  A    between atoms: S_14  and  O_17
REMARK   10  A    between atoms: C_21  and  C_23
REMARK   11  A    between atoms: C_23  and  C_24
REMARK                            x       y       z     vdW  Elec       q    Type
REMARK                         _______ _______ _______ _____ _____    ______ ____
ROOT
ATOM      1  C   UNL     1       0.744  10.538  19.132  0.00  0.00    +0.000 C 
ENDROOT
BRANCH   1   5
ATOM      2  C   UNL     1      -2.480  10.521  17.405  0.00  0.00    +0.000 A 
ATOM      3  C   UNL     1      -2.929  11.472  18.302  0.00  0.00    +0.000 A 
ATOM      4  S   UNL     1      -1.665  11.928  19.354  0.00  0.00    +0.000 S 
ATOM      5  C   UNL     1      -0.626  10.800  18.569  0.00  0.00    +0.000 A 
ATOM      6  N   UNL     1      -1.139  10.192  17.517  0.00  0.00    +0.000 NA
BRANCH   2   8
ATOM      7  C   UNL     1      -2.869  10.132  14.978  0.00  0.00    +0.000 C 
ATOM      8  C   UNL     1      -3.300   9.790  16.397  0.00  0.00    +0.000 C 
ENDBRANCH   2   8
ENDBRANCH   1   5
BRANCH   1   9
ATOM      9  N   UNL     1       1.294  11.792  19.653  0.00  0.00    +0.000 N 
ATOM     10  C   UNL     1       2.217  12.498  18.909  0.00  0.00    +0.000 C 
ATOM     11  O   UNL     1       2.609  12.106  17.814  0.00  0.00    +0.000 OA
ATOM     12  H   UNL     1       0.891  12.202  20.486  0.00  0.00    +0.000 HD
BRANCH  10  13
ATOM     13  C   UNL     1       2.759  13.748  19.586  0.00  0.00    +0.000 C 
BRANCH  13  14
ATOM     14  C   UNL     1       2.421  15.038  18.877  0.00  0.00    +0.000 A 
ATOM     15  C   UNL     1       3.314  15.601  17.953  0.00  0.00    +0.000 A 
ATOM     16  C   UNL     1       2.989  16.770  17.264  0.00  0.00    +0.000 A 
ATOM     17  C   UNL     1       1.768  17.397  17.496  0.00  0.00    +0.000 A 
ATOM     18  C   UNL     1       0.876  16.856  18.421  0.00  0.00    +0.000 A 
ATOM     19  C   UNL     1       1.195  15.679  19.102  0.00  0.00    +0.000 A 
ENDBRANCH  13  14
ENDBRANCH  10  13
ENDBRANCH   1   9
BRANCH   1  20
ATOM     20  C   UNL     1       0.730   9.455  20.218  0.00  0.00    +0.000 C 
BRANCH  20  21
ATOM     21  C   UNL     1       1.501   8.195  19.878  0.00  0.00    +0.000 A 
ATOM     22  C   UNL     1       1.537   7.079  20.720  0.00  0.00    +0.000 A 
ATOM     23  C   UNL     1       2.250   5.935  20.356  0.00  0.00    +0.000 A 
ATOM     24  C   UNL     1       2.941   5.888  19.147  0.00  0.00    +0.000 A 
ATOM     25  C   UNL     1       2.938   7.006  18.314  0.00  0.00    +0.000 A 
ATOM     26  C   UNL     1       2.216   8.149  18.672  0.00  0.00    +0.000 A 
BRANCH  24  27
ATOM     27  N   UNL     1       3.718   4.740  18.841  0.00  0.00    +0.000 N 
ATOM     28  H   UNL     1       4.094   4.189  19.612  0.00  0.00    +0.000 HD
BRANCH  27  29
ATOM     29  S   UNL     1       3.450   3.876  17.439  0.00  0.00    +0.000 S 
ATOM     30  O   UNL     1       2.041   3.704  17.267  0.00  0.00    +0.000 OA
ATOM     31  O   UNL     1       4.289   4.451  16.398  0.00  0.00    +0.000 OA
BRANCH  29  32
ATOM     32  O   UNL     1       4.034   2.415  17.770  0.00  0.00    +0.000 OA
ATOM     33  H   UNL     1       3.842   2.265  18.720  0.00  0.00    +0.000 HD
ENDBRANCH  29  32
ENDBRANCH  27  29
ENDBRANCH  24  27
ENDBRANCH  20  21
ENDBRANCH   1  20
TORSDOF 10
ENDMDL
MODEL 9
REMARK VINA RESULT:      -7.3      5.260      7.878
REMARK  Name = 
REMARK  11 active torsions:
REMARK  status: ('A' for Active; 'I' for Inactive)
REMARK    1  A    between atoms: C_1  and  C_2
REMARK    2  A    between atoms: C_2  and  C_3
REMARK    3  A    between atoms: C_6  and  C_7
REMARK    4  A    between atoms: C_7  and  C_8
REMARK    5  A    between atoms: C_7  and  N_20
REMARK    6  A    between atoms: C_8  and  C_9
REMARK    7  A    between atoms: C_12  and  N_13
REMARK    8  A    between atoms: N_13  and  S_14
REMARK    9  A    between atoms: S_14  and  O_17
REMARK   10  A    between atoms: C_21  and  C_23
REMARK   11  A    between atoms: C_23  and  C_24
REMARK                            x       y       z     vdW  Elec       q    Type
REMARK                         _______ _______ _______ _____ _____    ______ ____
ROOT
ATOM      1  C   UNL     1       0.772  11.086  18.795  0.00  0.00    +0.000 C 
ENDROOT
BRANCH   1   5
ATOM      2  C   UNL     1       3.058  13.938  18.669  0.00  0.00    +0.000 A 
ATOM      3  C   UNL     1       2.766  14.190  19.996  0.00  0.00    +0.000 A 
ATOM      4  S   UNL     1       1.723  12.983  20.605  0.00  0.00    +0.000 S 
ATOM      5  C   UNL     1       1.704  12.239  19.052  0.00  0.00    +0.000 A 
ATOM      6  N   UNL     1       2.504  12.778  18.153  0.00  0.00    +0.000 NA
BRANCH   2   8
ATOM      7  C   UNL     1       4.086  16.183  18.359  0.00  0.00    +0.000 C 
ATOM      8  C   UNL     1       3.843  14.810  17.749  0.00  0.00    +0.000 C 
ENDBRANCH   2   8
ENDBRANCH   1   5
BRANCH   1   9
ATOM      9  N   UNL     1      -0.416  11.578  18.094  0.00  0.00    +0.000 N 
ATOM     10  C   UNL     1      -1.614  10.904  18.217  0.00  0.00    +0.000 C 
ATOM     11  O   UNL     1      -1.723   9.887  18.894  0.00  0.00    +0.000 OA
ATOM     12  H   UNL     1      -0.384  12.482  17.640  0.00  0.00    +0.000 HD
BRANCH  10  13
ATOM     13  C   UNL     1      -2.755  11.478  17.390  0.00  0.00    +0.000 C 
BRANCH  13  14
ATOM     14  C   UNL     1      -4.069  11.584  18.128  0.00  0.00    +0.000 A 
ATOM     15  C   UNL     1      -5.228  10.984  17.613  0.00  0.00    +0.000 A 
ATOM     16  C   UNL     1      -6.435  11.043  18.312  0.00  0.00    +0.000 A 
ATOM     17  C   UNL     1      -6.499  11.710  19.532  0.00  0.00    +0.000 A 
ATOM     18  C   UNL     1      -5.359  12.321  20.050  0.00  0.00    +0.000 A 
ATOM     19  C   UNL     1      -4.147  12.252  19.358  0.00  0.00    +0.000 A 
ENDBRANCH  13  14
ENDBRANCH  10  13
ENDBRANCH   1   9
BRANCH   1  20
ATOM     20  C   UNL     1       1.446   9.958  18.003  0.00  0.00    +0.000 C 
BRANCH  20  21
ATOM     21  C   UNL     1       1.758   8.709  18.802  0.00  0.00    +0.000 A 
ATOM     22  C   UNL     1       1.370   8.546  20.135  0.00  0.00    +0.000 A 
ATOM     23  C   UNL     1       1.667   7.369  20.825  0.00  0.00    +0.000 A 
ATOM     24  C   UNL     1       2.360   6.338  20.196  0.00  0.00    +0.000 A 
ATOM     25  C   UNL     1       2.780   6.500  18.876  0.00  0.00    +0.000 A 
ATOM     26  C   UNL     1       2.474   7.675  18.181  0.00  0.00    +0.000 A 
BRANCH  24  27
ATOM     27  N   UNL     1       2.713   5.185  20.947  0.00  0.00    +0.000 N 
ATOM     28  H   UNL     1       3.086   5.315  21.887  0.00  0.00    +0.000 HD
BRANCH  27  29
ATOM     29  S   UNL     1       1.925   3.735  20.709  0.00  0.00    +0.000 S 
ATOM     30  O   UNL     1       2.458   3.108  19.539  0.00  0.00    +0.000 OA
ATOM     31  O   UNL     1       1.864   3.048  21.990  0.00  0.00    +0.000 OA
BRANCH  29  32
ATOM     32  O   UNL     1       0.425   4.170  20.328  0.00  0.00    +0.000 OA
ATOM     33  H   UNL     1      -0.121   3.364  20.452  0.00  0.00    +0.000 HD
ENDBRANCH  29  32
ENDBRANCH  27  29
ENDBRANCH  24  27
ENDBRANCH  20  21
ENDBRANCH   1  20
TORSDOF 10
ENDMDL
