MODEL 1
REMARK VINA RESULT:      -7.0      0.000      0.000
REMARK  Name = 
REMARK  1 active torsions:
REMARK  status: ('A' for Active; 'I' for Inactive)
REMARK    1  A    between atoms: N_1  and  C_2
REMARK                            x       y       z     vdW  Elec       q    Type
REMARK                         _______ _______ _______ _____ _____    ______ ____
ROOT
ATOM      1  C   UNL     1       7.096   5.799  17.110  0.00  0.00    +0.000 A 
ATOM      2  N   UNL     1       7.257   5.509  15.810  0.00  0.00    +0.000 NA
ATOM      3  C   UNL     1       6.473   4.545  15.290  0.00  0.00    +0.000 A 
ATOM      4  N   UNL     1       6.612   4.282  13.882  0.00  0.00    +0.000 N 
ATOM      5  C   UNL     1       7.500   4.907  13.023  0.00  0.00    +0.000 A 
ATOM      6  C   UNL     1       7.272   4.406  11.766  0.00  0.00    +0.000 A 
ATOM      7  C   UNL     1       6.238   3.473  11.944  0.00  0.00    +0.000 A 
ATOM      8  N   UNL     1       5.841   3.375  13.215  0.00  0.00    +0.000 NA
ATOM      9  N   UNL     1       5.565   3.851  16.006  0.00  0.00    +0.000 NA
ATOM     10  C   UNL     1       5.418   4.165  17.330  0.00  0.00    +0.000 A 
ATOM     11  N   UNL     1       4.430   3.407  18.041  0.00  0.00    +0.000 N 
ATOM     12  C   UNL     1       3.654   2.387  17.511  0.00  0.00    +0.000 A 
ATOM     13  C   UNL     1       2.823   1.937  18.510  0.00  0.00    +0.000 A 
ATOM     14  C   UNL     1       3.156   2.725  19.617  0.00  0.00    +0.000 A 
ATOM     15  N   UNL     1       4.121   3.602  19.348  0.00  0.00    +0.000 NA
ATOM     16  C   UNL     1       6.173   5.160  17.939  0.00  0.00    +0.000 A 
ATOM     17 CL   UNL     1       6.115   5.648  19.599  0.00  0.00    +0.000 Cl
ENDROOT
BRANCH   1  18
ATOM     18  N   UNL     1       7.872   6.873  17.557  0.00  0.00    +0.000 N 
ATOM     19  H   UNL     1       7.322   7.474  18.159  0.00  0.00    +0.000 HD
ATOM     20  H   UNL     1       8.344   7.359  16.801  0.00  0.00    +0.000 HD
ENDBRANCH   1  18
TORSDOF 1
ENDMDL
MODEL 2
REMARK VINA RESULT:      -6.8      4.086      6.555
REMARK  Name = 
REMARK  1 active torsions:
REMARK  status: ('A' for Active; 'I' for Inactive)
REMARK    1  A    between atoms: N_1  and  C_2
REMARK                            x       y       z     vdW  Elec       q    Type
REMARK                         _______ _______ _______ _____ _____    ______ ____
ROOT
ATOM      1  C   UNL     1       2.737   5.083  20.049  0.00  0.00    +0.000 A 
ATOM      2  N   UNL     1       2.230   6.325  20.037  0.00  0.00    +0.000 NA
ATOM      3  C   UNL     1       2.560   7.117  18.998  0.00  0.00    +0.000 A 
ATOM      4  N   UNL     1       1.964   8.427  18.964  0.00  0.00    +0.000 N 
ATOM      5  C   UNL     1       1.111   8.956  19.918  0.00  0.00    +0.000 A 
ATOM      6  C   UNL     1       0.732  10.200  19.479  0.00  0.00    +0.000 A 
ATOM      7  C   UNL     1       1.406  10.361  18.258  0.00  0.00    +0.000 A 
ATOM      8  N   UNL     1       2.164   9.309  17.942  0.00  0.00    +0.000 NA
ATOM      9  N   UNL     1       3.380   6.737  17.998  0.00  0.00    +0.000 NA
ATOM     10  C   UNL     1       3.885   5.466  18.031  0.00  0.00    +0.000 A 
ATOM     11  N   UNL     1       4.740   5.109  16.937  0.00  0.00    +0.000 N 
ATOM     12  C   UNL     1       5.109   5.941  15.891  0.00  0.00    +0.000 A 
ATOM     13  C   UNL     1       5.915   5.214  15.047  0.00  0.00    +0.000 A 
ATOM     14  C   UNL     1       5.996   3.953  15.648  0.00  0.00    +0.000 A 
ATOM     15  N   UNL     1       5.302   3.883  16.783  0.00  0.00    +0.000 NA
ATOM     16  C   UNL     1       3.578   4.578  19.057  0.00  0.00    +0.000 A 
ATOM     17 CL   UNL     1       4.157   2.958  19.244  0.00  0.00    +0.000 Cl
ENDROOT
BRANCH   1  18
ATOM     18  N   UNL     1       2.276   4.287  21.103  0.00  0.00    +0.000 N 
ATOM     19  H   UNL     1       2.967   3.582  21.335  0.00  0.00    +0.000 HD
ATOM     20  H   UNL     1       1.344   3.920  20.940  0.00  0.00    +0.000 HD
ENDBRANCH   1  18
TORSDOF 1
ENDMDL
MODEL 3
REMARK VINA RESULT:      -6.7      3.583      4.744
REMARK  Name = 
REMARK  1 active torsions:
REMARK  status: ('A' for Active; 'I' for Inactive)
REMARK    1  A    between atoms: N_1  and  C_2
REMARK                            x       y       z     vdW  Elec       q    Type
REMARK                         _______ _______ _______ _____ _____    ______ ____
ROOT
ATOM      1  C   UNL     1       3.397   4.301  19.243  0.00  0.00    +0.000 A 
ATOM      2  N   UNL     1       4.169   4.101  18.165  0.00  0.00    +0.000 NA
ATOM      3  C   UNL     1       4.301   5.127  17.301  0.00  0.00    +0.000 A 
ATOM      4  N   UNL     1       5.177   4.923  16.177  0.00  0.00    +0.000 N 
ATOM      5  C   UNL     1       5.868   3.759  15.888  0.00  0.00    +0.000 A 
ATOM      6  C   UNL     1       6.625   4.002  14.768  0.00  0.00    +0.000 A 
ATOM      7  C   UNL     1       6.331   5.332  14.430  0.00  0.00    +0.000 A 
ATOM      8  N   UNL     1       5.448   5.896  15.259  0.00  0.00    +0.000 NA
ATOM      9  N   UNL     1       3.687   6.318  17.454  0.00  0.00    +0.000 NA
ATOM     10  C   UNL     1       2.906   6.498  18.562  0.00  0.00    +0.000 A 
ATOM     11  N   UNL     1       2.288   7.787  18.683  0.00  0.00    +0.000 N 
ATOM     12  C   UNL     1       2.395   8.826  17.771  0.00  0.00    +0.000 A 
ATOM     13  C   UNL     1       1.675   9.887  18.266  0.00  0.00    +0.000 A 
ATOM     14  C   UNL     1       1.154   9.417  19.476  0.00  0.00    +0.000 A 
ATOM     15  N   UNL     1       1.510   8.159  19.731  0.00  0.00    +0.000 NA
ATOM     16  C   UNL     1       2.733   5.498  19.512  0.00  0.00    +0.000 A 
ATOM     17 CL   UNL     1       1.762   5.572  20.943  0.00  0.00    +0.000 Cl
ENDROOT
BRANCH   1  18
ATOM     18  N   UNL     1       3.383   3.230  20.143  0.00  0.00    +0.000 N 
ATOM     19  H   UNL     1       2.659   3.367  20.838  0.00  0.00    +0.000 HD
ATOM     20  H   UNL     1       4.300   3.029  20.530  0.00  0.00    +0.000 HD
ENDBRANCH   1  18
TORSDOF 1
ENDMDL
MODEL 4
REMARK VINA RESULT:      -6.7      4.338      6.207
REMARK  Name = 
REMARK  1 active torsions:
REMARK  status: ('A' for Active; 'I' for Inactive)
REMARK    1  A    between atoms: N_1  and  C_2
REMARK                            x       y       z     vdW  Elec       q    Type
REMARK                         _______ _______ _______ _____ _____    ______ ____
ROOT
ATOM      1  C   UNL     1       4.105   6.591  17.261  0.00  0.00    +0.000 A 
ATOM      2  N   UNL     1       3.388   7.700  17.494  0.00  0.00    +0.000 NA
ATOM      3  C   UNL     1       2.550   7.683  18.549  0.00  0.00    +0.000 A 
ATOM      4  N   UNL     1       1.828   8.898  18.826  0.00  0.00    +0.000 N 
ATOM      5  C   UNL     1       1.894  10.067  18.088  0.00  0.00    +0.000 A 
ATOM      6  C   UNL     1       1.099  10.992  18.720  0.00  0.00    +0.000 A 
ATOM      7  C   UNL     1       0.575  10.305  19.826  0.00  0.00    +0.000 A 
ATOM      8  N   UNL     1       0.992   9.039  19.895  0.00  0.00    +0.000 NA
ATOM      9  N   UNL     1       2.382   6.615  19.355  0.00  0.00    +0.000 NA
ATOM     10  C   UNL     1       3.125   5.496  19.097  0.00  0.00    +0.000 A 
ATOM     11  N   UNL     1       2.917   4.394  19.992  0.00  0.00    +0.000 N 
ATOM     12  C   UNL     1       2.023   4.368  21.052  0.00  0.00    +0.000 A 
ATOM     13  C   UNL     1       2.147   3.145  21.667  0.00  0.00    +0.000 A 
ATOM     14  C   UNL     1       3.128   2.480  20.923  0.00  0.00    +0.000 A 
ATOM     15  N   UNL     1       3.590   3.218  19.914  0.00  0.00    +0.000 NA
ATOM     16  C   UNL     1       4.027   5.438  18.041  0.00  0.00    +0.000 A 
ATOM     17 CL   UNL     1       5.011   4.090  17.581  0.00  0.00    +0.000 Cl
ENDROOT
BRANCH   1  18
ATOM     18  N   UNL     1       5.022   6.713  16.212  0.00  0.00    +0.000 N 
ATOM     19  H   UNL     1       4.867   7.581  15.712  0.00  0.00    +0.000 HD
ATOM     20  H   UNL     1       5.054   5.891  15.618  0.00  0.00    +0.000 HD
ENDBRANCH   1  18
TORSDOF 1
ENDMDL
MODEL 5
REMARK VINA RESULT:      -6.7      2.679      3.430
REMARK  Name = 
REMARK  1 active torsions:
REMARK  status: ('A' for Active; 'I' for Inactive)
REMARK    1  A    between atoms: N_1  and  C_2
REMARK                            x       y       z     vdW  Elec       q    Type
REMARK                         _______ _______ _______ _____ _____    ______ ____
ROOT
ATOM      1  C   UNL     1       3.106   7.180  18.210  0.00  0.00    +0.000 A 
ATOM      2  N   UNL     1       3.924   6.769  17.231  0.00  0.00    +0.000 NA
ATOM      3  C   UNL     1       4.354   5.493  17.280  0.00  0.00    +0.000 A 
ATOM      4  N   UNL     1       5.184   5.043  16.193  0.00  0.00    +0.000 N 
ATOM      5  C   UNL     1       5.606   5.813  15.122  0.00  0.00    +0.000 A 
ATOM      6  C   UNL     1       6.329   4.992  14.292  0.00  0.00    +0.000 A 
ATOM      7  C   UNL     1       6.312   3.744  14.932  0.00  0.00    +0.000 A 
ATOM      8  N   UNL     1       5.640   3.761  16.086  0.00  0.00    +0.000 NA
ATOM      9  N   UNL     1       4.026   4.630  18.263  0.00  0.00    +0.000 NA
ATOM     10  C   UNL     1       3.189   5.072  19.251  0.00  0.00    +0.000 A 
ATOM     11  N   UNL     1       2.862   4.110  20.263  0.00  0.00    +0.000 N 
ATOM     12  C   UNL     1       3.339   2.810  20.331  0.00  0.00    +0.000 A 
ATOM     13  C   UNL     1       2.771   2.218  21.434  0.00  0.00    +0.000 A 
ATOM     14  C   UNL     1       1.967   3.220  21.989  0.00  0.00    +0.000 A 
ATOM     15  N   UNL     1       2.020   4.358  21.298  0.00  0.00    +0.000 NA
ATOM     16  C   UNL     1       2.685   6.368  19.263  0.00  0.00    +0.000 A 
ATOM     17 CL   UNL     1       1.643   7.072  20.453  0.00  0.00    +0.000 Cl
ENDROOT
BRANCH   1  18
ATOM     18  N   UNL     1       2.623   8.483  18.043  0.00  0.00    +0.000 N 
ATOM     19  H   UNL     1       1.611   8.476  17.997  0.00  0.00    +0.000 HD
ATOM     20  H   UNL     1       3.072   8.973  17.276  0.00  0.00    +0.000 HD
ENDBRANCH   1  18
TORSDOF 1
ENDMDL
MODEL 6
REMARK VINA RESULT:      -6.7      4.018      7.014
REMARK  Name = 
REMARK  1 active torsions:
REMARK  status: ('A' for Active; 'I' for Inactive)
REMARK    1  A    between atoms: N_1  and  C_2
REMARK                            x       y       z     vdW  Elec       q    Type
REMARK                         _______ _______ _______ _____ _____    ______ ____
ROOT
ATOM      1  C   UNL     1       2.569   4.479  20.643  0.00  0.00    +0.000 A 
ATOM      2  N   UNL     1       2.014   5.686  20.830  0.00  0.00    +0.000 NA
ATOM      3  C   UNL     1       2.265   6.632  19.905  0.00  0.00    +0.000 A 
ATOM      4  N   UNL     1       1.617   7.905  20.084  0.00  0.00    +0.000 N 
ATOM      5  C   UNL     1       0.787   8.253  21.136  0.00  0.00    +0.000 A 
ATOM      6  C   UNL     1       0.340   9.529  20.897  0.00  0.00    +0.000 A 
ATOM      7  C   UNL     1       0.951   9.893  19.687  0.00  0.00    +0.000 A 
ATOM      8  N   UNL     1       1.736   8.932  19.193  0.00  0.00    +0.000 NA
ATOM      9  N   UNL     1       3.054   6.437  18.829  0.00  0.00    +0.000 NA
ATOM     10  C   UNL     1       3.609   5.198  18.659  0.00  0.00    +0.000 A 
ATOM     11  N   UNL     1       4.428   5.041  17.492  0.00  0.00    +0.000 N 
ATOM     12  C   UNL     1       4.716   6.030  16.564  0.00  0.00    +0.000 A 
ATOM     13  C   UNL     1       5.512   5.468  15.594  0.00  0.00    +0.000 A 
ATOM     14  C   UNL     1       5.670   4.139  16.002  0.00  0.00    +0.000 A 
ATOM     15  N   UNL     1       5.030   3.876  17.141  0.00  0.00    +0.000 NA
ATOM     16  C   UNL     1       3.384   4.161  19.556  0.00  0.00    +0.000 A 
ATOM     17 CL   UNL     1       4.035   2.558  19.485  0.00  0.00    +0.000 Cl
ENDROOT
BRANCH   1  18
ATOM     18  N   UNL     1       2.188   3.521  21.587  0.00  0.00    +0.000 N 
ATOM     19  H   UNL     1       1.761   2.727  21.125  0.00  0.00    +0.000 HD
ATOM     20  H   UNL     1       1.634   3.912  22.343  0.00  0.00    +0.000 HD
ENDBRANCH   1  18
TORSDOF 1
ENDMDL
MODEL 7
REMARK VINA RESULT:      -6.6      2.965      4.454
REMARK  Name = 
REMARK  1 active torsions:
REMARK  status: ('A' for Active; 'I' for Inactive)
REMARK    1  A    between atoms: N_1  and  C_2
REMARK                            x       y       z     vdW  Elec       q    Type
REMARK                         _______ _______ _______ _____ _____    ______ ____
ROOT
ATOM      1  C   UNL     1       3.099   2.597  18.453  0.00  0.00    +0.000 A 
ATOM      2  N   UNL     1       3.930   2.875  17.437  0.00  0.00    +0.000 NA
ATOM      3  C   UNL     1       4.184   4.173  17.185  0.00  0.00    +0.000 A 
ATOM      4  N   UNL     1       5.122   4.460  16.131  0.00  0.00    +0.000 N 
ATOM      5  C   UNL     1       5.759   3.524  15.334  0.00  0.00    +0.000 A 
ATOM      6  C   UNL     1       6.605   4.209  14.498  0.00  0.00    +0.000 A 
ATOM      7  C   UNL     1       6.417   5.558  14.839  0.00  0.00    +0.000 A 
ATOM      8  N   UNL     1       5.515   5.727  15.809  0.00  0.00    +0.000 NA
ATOM      9  N   UNL     1       3.635   5.192  17.877  0.00  0.00    +0.000 NA
ATOM     10  C   UNL     1       2.792   4.884  18.909  0.00  0.00    +0.000 A 
ATOM     11  N   UNL     1       2.247   6.004  19.620  0.00  0.00    +0.000 N 
ATOM     12  C   UNL     1       2.480   7.339  19.330  0.00  0.00    +0.000 A 
ATOM     13  C   UNL     1       1.793   8.089  20.255  0.00  0.00    +0.000 A 
ATOM     14  C   UNL     1       1.161   7.142  21.069  0.00  0.00    +0.000 A 
ATOM     15  N   UNL     1       1.422   5.891  20.692  0.00  0.00    +0.000 NA
ATOM     16  C   UNL     1       2.492   3.569  19.247  0.00  0.00    +0.000 A 
ATOM     17 CL   UNL     1       1.430   3.029  20.504  0.00  0.00    +0.000 Cl
ENDROOT
BRANCH   1  18
ATOM     18  N   UNL     1       2.958   1.231  18.718  0.00  0.00    +0.000 N 
ATOM     19  H   UNL     1       3.851   0.762  18.618  0.00  0.00    +0.000 HD
ATOM     20  H   UNL     1       2.202   0.804  18.193  0.00  0.00    +0.000 HD
ENDBRANCH   1  18
TORSDOF 1
ENDMDL
MODEL 8
REMARK VINA RESULT:      -6.2      1.735      5.557
REMARK  Name = 
REMARK  1 active torsions:
REMARK  status: ('A' for Active; 'I' for Inactive)
REMARK    1  A    between atoms: N_1  and  C_2
REMARK                            x       y       z     vdW  Elec       q    Type
REMARK                         _______ _______ _______ _____ _____    ______ ____
ROOT
ATOM      1  C   UNL     1       5.932   4.953  18.739  0.00  0.00    +0.000 A 
ATOM      2  N   UNL     1       4.740   4.488  19.142  0.00  0.00    +0.000 NA
ATOM      3  C   UNL     1       3.940   3.945  18.203  0.00  0.00    +0.000 A 
ATOM      4  N   UNL     1       2.688   3.397  18.654  0.00  0.00    +0.000 N 
ATOM      5  C   UNL     1       2.220   3.406  19.957  0.00  0.00    +0.000 A 
ATOM      6  C   UNL     1       1.021   2.737  19.964  0.00  0.00    +0.000 A 
ATOM      7  C   UNL     1       0.822   2.362  18.626  0.00  0.00    +0.000 A 
ATOM      8  N   UNL     1       1.809   2.766  17.822  0.00  0.00    +0.000 NA
ATOM      9  N   UNL     1       4.264   3.869  16.896  0.00  0.00    +0.000 NA
ATOM     10  C   UNL     1       5.485   4.350  16.510  0.00  0.00    +0.000 A 
ATOM     11  N   UNL     1       5.783   4.231  15.112  0.00  0.00    +0.000 N 
ATOM     12  C   UNL     1       4.940   3.709  14.144  0.00  0.00    +0.000 A 
ATOM     13  C   UNL     1       5.607   3.757  12.943  0.00  0.00    +0.000 A 
ATOM     14  C   UNL     1       6.846   4.326  13.259  0.00  0.00    +0.000 A 
ATOM     15  N   UNL     1       6.958   4.620  14.554  0.00  0.00    +0.000 NA
ATOM     16  C   UNL     1       6.378   4.907  17.418  0.00  0.00    +0.000 A 
ATOM     17 CL   UNL     1       7.938   5.573  17.074  0.00  0.00    +0.000 Cl
ENDROOT
BRANCH   1  18
ATOM     18  N   UNL     1       6.748   5.413  19.779  0.00  0.00    +0.000 N 
ATOM     19  H   UNL     1       7.404   6.100  19.428  0.00  0.00    +0.000 HD
ATOM     20  H   UNL     1       7.175   4.658  20.306  0.00  0.00    +0.000 HD
ENDBRANCH   1  18
TORSDOF 1
ENDMDL
MODEL 9
REMARK VINA RESULT:      -6.0      5.224      7.827
REMARK  Name = 
REMARK  1 active torsions:
REMARK  status: ('A' for Active; 'I' for Inactive)
REMARK    1  A    between atoms: N_1  and  C_2
REMARK                            x       y       z     vdW  Elec       q    Type
REMARK                         _______ _______ _______ _____ _____    ______ ____
ROOT
ATOM      1  C   UNL     1       2.551   7.789  18.386  0.00  0.00    +0.000 A 
ATOM      2  N   UNL     1       1.842   8.589  19.197  0.00  0.00    +0.000 NA
ATOM      3  C   UNL     1       1.396   8.058  20.352  0.00  0.00    +0.000 A 
ATOM      4  N   UNL     1       0.687   8.940  21.242  0.00  0.00    +0.000 N 
ATOM      5  C   UNL     1       0.396  10.272  21.004  0.00  0.00    +0.000 A 
ATOM      6  C   UNL     1      -0.239  10.757  22.121  0.00  0.00    +0.000 A 
ATOM      7  C   UNL     1      -0.307   9.656  22.989  0.00  0.00    +0.000 A 
ATOM      8  N   UNL     1       0.231   8.550  22.469  0.00  0.00    +0.000 NA
ATOM      9  N   UNL     1       1.602   6.776  20.716  0.00  0.00    +0.000 NA
ATOM     10  C   UNL     1       2.328   5.980  19.873  0.00  0.00    +0.000 A 
ATOM     11  N   UNL     1       2.529   4.630  20.315  0.00  0.00    +0.000 N 
ATOM     12  C   UNL     1       2.033   4.078  21.486  0.00  0.00    +0.000 A 
ATOM     13  C   UNL     1       2.467   2.775  21.545  0.00  0.00    +0.000 A 
ATOM     14  C   UNL     1       3.215   2.606  20.375  0.00  0.00    +0.000 A 
ATOM     15  N   UNL     1       3.252   3.709  19.629  0.00  0.00    +0.000 NA
ATOM     16  C   UNL     1       2.842   6.455  18.672  0.00  0.00    +0.000 A 
ATOM     17 CL   UNL     1       3.752   5.564  17.499  0.00  0.00    +0.000 Cl
ENDROOT
BRANCH   1  18
ATOM     18  N   UNL     1       3.063   8.431  17.255  0.00  0.00    +0.000 N 
ATOM     19  H   UNL     1       2.597   9.321  17.117  0.00  0.00    +0.000 HD
ATOM     20  H   UNL     1       3.073   7.835  16.434  0.00  0.00    +0.000 HD
ENDBRANCH   1  18
TORSDOF 1
ENDMDL
