MODEL 1
REMARK VINA RESULT:      -8.1      0.000      0.000
REMARK  Name = 
REMARK  7 active torsions:
REMARK  status: ('A' for Active; 'I' for Inactive)
REMARK    1  A    between atoms: N_1  and  C_2
REMARK    2  A    between atoms: C_2  and  C_3
REMARK    3  A    between atoms: C_5  and  O_6
REMARK    4  A    between atoms: O_6  and  C_7
REMARK    5  A    between atoms: C_11  and  C_12
REMARK    6  A    between atoms: C_16  and  O_17
REMARK    7  A    between atoms: C_23  and  C_24
REMARK                            x       y       z     vdW  Elec       q    Type
REMARK                         _______ _______ _______ _____ _____    ______ ____
ROOT
ATOM      1  C   UNL     1       2.446   8.044  18.303  0.00  0.00    +0.000 A 
ATOM      2  C   UNL     1       2.440   7.464  19.579  0.00  0.00    +0.000 A 
ATOM      3  C   UNL     1       1.629   7.992  20.583  0.00  0.00    +0.000 A 
ATOM      4  C   UNL     1       0.783   9.062  20.296  0.00  0.00    +0.000 A 
ATOM      5  C   UNL     1       0.738   9.599  19.000  0.00  0.00    +0.000 A 
ATOM      6  C   UNL     1       1.581   9.092  18.007  0.00  0.00    +0.000 A 
ENDROOT
BRANCH   5   7
ATOM      7  C   UNL     1      -0.084  10.810  18.757  0.00  0.00    +0.000 C 
ATOM      8  O   UNL     1       0.331  11.887  19.179  0.00  0.00    +0.000 OA
ATOM      9  N   UNL     1      -1.267  10.701  18.041  0.00  0.00    +0.000 N 
ATOM     10  C   UNL     1      -1.979  11.894  17.620  0.00  0.00    +0.000 C 
ATOM     11  C   UNL     1      -3.460  11.535  17.683  0.00  0.00    +0.000 C 
ATOM     12  C   UNL     1      -3.478  10.020  17.468  0.00  0.00    +0.000 C 
ATOM     13  F   UNL     1      -4.481   9.462  18.196  0.00  0.00    +0.000 F 
ATOM     14  C   UNL     1      -2.128   9.527  17.979  0.00  0.00    +0.000 C 
BRANCH  11  15
ATOM     15  O   UNL     1      -4.218  12.224  16.693  0.00  0.00    +0.000 OA
ATOM     16  H   UNL     1      -3.779  13.066  16.479  0.00  0.00    +0.000 HD
ENDBRANCH  11  15
ENDBRANCH   5   7
BRANCH   1  17
ATOM     17  O   UNL     1       3.270   7.591  17.293  0.00  0.00    +0.000 OA
BRANCH  17  20
ATOM     18  C   UNL     1       4.053   4.080  17.871  0.00  0.00    +0.000 A 
ATOM     19  C   UNL     1       3.352   5.235  17.514  0.00  0.00    +0.000 A 
ATOM     20  C   UNL     1       4.013   6.450  17.573  0.00  0.00    +0.000 A 
ATOM     21  N   UNL     1       5.317   6.579  17.897  0.00  0.00    +0.000 NA
ATOM     22  C   UNL     1       6.000   5.461  18.258  0.00  0.00    +0.000 A 
ATOM     23  C   UNL     1       5.393   4.206  18.263  0.00  0.00    +0.000 A 
BRANCH  22  24
ATOM     24  C   UNL     1       7.451   5.593  18.700  0.00  0.00    +0.000 C 
ATOM     25  F   UNL     1       8.069   6.729  18.271  0.00  0.00    +0.000 F 
ATOM     26  F   UNL     1       7.585   5.593  20.059  0.00  0.00    +0.000 F 
ATOM     27  F   UNL     1       8.226   4.558  18.257  0.00  0.00    +0.000 F 
ENDBRANCH  22  24
BRANCH  18  28
ATOM     28  C   UNL     1       3.390   2.730  17.851  0.00  0.00    +0.000 C 
BRANCH  28  29
ATOM     29  N   UNL     1       1.952   2.855  17.653  0.00  0.00    +0.000 NA
ATOM     30  H   UNL     1       1.472   2.210  18.279  0.00  0.00    +0.000 HD
ATOM     31  H   UNL     1       1.715   2.557  16.707  0.00  0.00    +0.000 HD
ENDBRANCH  28  29
ENDBRANCH  18  28
ENDBRANCH  17  20
ENDBRANCH   1  17
TORSDOF 7
ENDMDL
MODEL 2
REMARK VINA RESULT:      -8.1      2.045      9.121
REMARK  Name = 
REMARK  7 active torsions:
REMARK  status: ('A' for Active; 'I' for Inactive)
REMARK    1  A    between atoms: N_1  and  C_2
REMARK    2  A    between atoms: C_2  and  C_3
REMARK    3  A    between atoms: C_5  and  O_6
REMARK    4  A    between atoms: O_6  and  C_7
REMARK    5  A    between atoms: C_11  and  C_12
REMARK    6  A    between atoms: C_16  and  O_17
REMARK    7  A    between atoms: C_23  and  C_24
REMARK                            x       y       z     vdW  Elec       q    Type
REMARK                         _______ _______ _______ _____ _____    ______ ____
ROOT
ATOM      1  C   UNL     1       1.849   8.839  18.840  0.00  0.00    +0.000 A 
ATOM      2  C   UNL     1       1.443   8.504  20.139  0.00  0.00    +0.000 A 
ATOM      3  C   UNL     1       1.653   7.215  20.627  0.00  0.00    +0.000 A 
ATOM      4  C   UNL     1       2.319   6.278  19.838  0.00  0.00    +0.000 A 
ATOM      5  C   UNL     1       2.786   6.633  18.564  0.00  0.00    +0.000 A 
ATOM      6  C   UNL     1       2.539   7.915  18.064  0.00  0.00    +0.000 A 
ENDROOT
BRANCH   5   7
ATOM      7  C   UNL     1       3.385   5.581  17.705  0.00  0.00    +0.000 C 
ATOM      8  O   UNL     1       2.724   4.570  17.481  0.00  0.00    +0.000 OA
ATOM      9  N   UNL     1       4.644   5.780  17.160  0.00  0.00    +0.000 N 
ATOM     10  C   UNL     1       5.162   4.862  16.160  0.00  0.00    +0.000 C 
ATOM     11  C   UNL     1       6.664   4.789  16.405  0.00  0.00    +0.000 C 
ATOM     12  C   UNL     1       6.997   6.141  17.040  0.00  0.00    +0.000 C 
ATOM     13  F   UNL     1       7.993   5.990  17.952  0.00  0.00    +0.000 F 
ATOM     14  C   UNL     1       5.715   6.582  17.738  0.00  0.00    +0.000 C 
BRANCH  11  15
ATOM     15  O   UNL     1       7.391   4.573  15.199  0.00  0.00    +0.000 OA
ATOM     16  H   UNL     1       8.224   4.113  15.402  0.00  0.00    +0.000 HD
ENDBRANCH  11  15
ENDBRANCH   5   7
BRANCH   1  17
ATOM     17  O   UNL     1       1.616  10.084  18.294  0.00  0.00    +0.000 OA
BRANCH  17  20
ATOM     18  C   UNL     1      -1.115  12.121  19.584  0.00  0.00    +0.000 A 
ATOM     19  C   UNL     1       0.176  11.643  19.342  0.00  0.00    +0.000 A 
ATOM     20  C   UNL     1       0.333  10.593  18.454  0.00  0.00    +0.000 A 
ATOM     21  N   UNL     1      -0.684  10.041  17.759  0.00  0.00    +0.000 NA
ATOM     22  C   UNL     1      -1.944  10.492  18.001  0.00  0.00    +0.000 A 
ATOM     23  C   UNL     1      -2.187  11.519  18.911  0.00  0.00    +0.000 A 
BRANCH  22  24
ATOM     24  C   UNL     1      -3.113   9.833  17.284  0.00  0.00    +0.000 C 
ATOM     25  F   UNL     1      -2.798   9.284  16.078  0.00  0.00    +0.000 F 
ATOM     26  F   UNL     1      -3.670   8.820  18.014  0.00  0.00    +0.000 F 
ATOM     27  F   UNL     1      -4.134  10.708  17.039  0.00  0.00    +0.000 F 
ENDBRANCH  22  24
BRANCH  18  28
ATOM     28  C   UNL     1      -1.360  13.245  20.554  0.00  0.00    +0.000 C 
BRANCH  28  29
ATOM     29  N   UNL     1      -2.028  14.363  19.902  0.00  0.00    +0.000 NA
ATOM     30  H   UNL     1      -2.052  15.156  20.542  0.00  0.00    +0.000 HD
ATOM     31  H   UNL     1      -3.001  14.117  19.723  0.00  0.00    +0.000 HD
ENDBRANCH  28  29
ENDBRANCH  18  28
ENDBRANCH  17  20
ENDBRANCH   1  17
TORSDOF 7
ENDMDL
MODEL 3
REMARK VINA RESULT:      -8.1      2.310      3.019
REMARK  Name = 
REMARK  7 active torsions:
REMARK  status: ('A' for Active; 'I' for Inactive)
REMARK    1  A    between atoms: N_1  and  C_2
REMARK    2  A    between atoms: C_2  and  C_3
REMARK    3  A    between atoms: C_5  and  O_6
REMARK    4  A    between atoms: O_6  and  C_7
REMARK    5  A    between atoms: C_11  and  C_12
REMARK    6  A    between atoms: C_16  and  O_17
REMARK    7  A    between atoms: C_23  and  C_24
REMARK                            x       y       z     vdW  Elec       q    Type
REMARK                         _______ _______ _______ _____ _____    ______ ____
ROOT
ATOM      1  C   UNL     1       2.299   8.052  18.484  0.00  0.00    +0.000 A 
ATOM      2  C   UNL     1       2.277   7.560  19.796  0.00  0.00    +0.000 A 
ATOM      3  C   UNL     1       1.462   8.162  20.754  0.00  0.00    +0.000 A 
ATOM      4  C   UNL     1       0.628   9.217  20.387  0.00  0.00    +0.000 A 
ATOM      5  C   UNL     1       0.600   9.665  19.058  0.00  0.00    +0.000 A 
ATOM      6  C   UNL     1       1.447   9.085  18.109  0.00  0.00    +0.000 A 
ENDROOT
BRANCH   5   7
ATOM      7  C   UNL     1      -0.209  10.864  18.726  0.00  0.00    +0.000 C 
ATOM      8  O   UNL     1       0.219  11.965  19.067  0.00  0.00    +0.000 OA
ATOM      9  N   UNL     1      -1.394  10.715  18.021  0.00  0.00    +0.000 N 
ATOM     10  C   UNL     1      -2.094  11.882  17.512  0.00  0.00    +0.000 C 
ATOM     11  C   UNL     1      -3.578  11.545  17.602  0.00  0.00    +0.000 C 
ATOM     12  C   UNL     1      -3.613  10.018  17.500  0.00  0.00    +0.000 C 
ATOM     13  F   UNL     1      -4.621   9.527  18.268  0.00  0.00    +0.000 F 
ATOM     14  C   UNL     1      -2.268   9.549  18.046  0.00  0.00    +0.000 C 
BRANCH  11  15
ATOM     15  O   UNL     1      -4.329  12.167  16.564  0.00  0.00    +0.000 OA
ATOM     16  H   UNL     1      -3.823  12.916  16.204  0.00  0.00    +0.000 HD
ENDBRANCH  11  15
ENDBRANCH   5   7
BRANCH   1  17
ATOM     17  O   UNL     1       3.128   7.525  17.515  0.00  0.00    +0.000 OA
BRANCH  17  20
ATOM     18  C   UNL     1       5.641   4.939  18.033  0.00  0.00    +0.000 A 
ATOM     19  C   UNL     1       5.059   6.195  17.840  0.00  0.00    +0.000 A 
ATOM     20  C   UNL     1       3.678   6.279  17.790  0.00  0.00    +0.000 A 
ATOM     21  N   UNL     1       2.856   5.224  17.976  0.00  0.00    +0.000 NA
ATOM     22  C   UNL     1       3.417   3.998  18.151  0.00  0.00    +0.000 A 
ATOM     23  C   UNL     1       4.800   3.827  18.174  0.00  0.00    +0.000 A 
BRANCH  22  24
ATOM     24  C   UNL     1       2.509   2.785  18.288  0.00  0.00    +0.000 C 
ATOM     25  F   UNL     1       1.179   3.078  18.335  0.00  0.00    +0.000 F 
ATOM     26  F   UNL     1       2.655   1.903  17.255  0.00  0.00    +0.000 F 
ATOM     27  F   UNL     1       2.771   2.065  19.420  0.00  0.00    +0.000 F 
ENDBRANCH  22  24
BRANCH  18  28
ATOM     28  C   UNL     1       7.136   4.773  18.077  0.00  0.00    +0.000 C 
BRANCH  28  29
ATOM     29  N   UNL     1       7.650   4.310  16.795  0.00  0.00    +0.000 NA
ATOM     30  H   UNL     1       7.372   3.340  16.655  0.00  0.00    +0.000 HD
ATOM     31  H   UNL     1       8.669   4.310  16.820  0.00  0.00    +0.000 HD
ENDBRANCH  28  29
ENDBRANCH  18  28
ENDBRANCH  17  20
ENDBRANCH   1  17
TORSDOF 7
ENDMDL
MODEL 4
REMARK VINA RESULT:      -8.0      3.424      4.819
REMARK  Name = 
REMARK  7 active torsions:
REMARK  status: ('A' for Active; 'I' for Inactive)
REMARK    1  A    between atoms: N_1  and  C_2
REMARK    2  A    between atoms: C_2  and  C_3
REMARK    3  A    between atoms: C_5  and  O_6
REMARK    4  A    between atoms: O_6  and  C_7
REMARK    5  A    between atoms: C_11  and  C_12
REMARK    6  A    between atoms: C_16  and  O_17
REMARK    7  A    between atoms: C_23  and  C_24
REMARK                            x       y       z     vdW  Elec       q    Type
REMARK                         _______ _______ _______ _____ _____    ______ ____
ROOT
ATOM      1  C   UNL     1       3.904   4.287  19.738  0.00  0.00    +0.000 A 
ATOM      2  C   UNL     1       2.923   3.528  20.391  0.00  0.00    +0.000 A 
ATOM      3  C   UNL     1       1.704   4.110  20.736  0.00  0.00    +0.000 A 
ATOM      4  C   UNL     1       1.444   5.432  20.380  0.00  0.00    +0.000 A 
ATOM      5  C   UNL     1       2.400   6.171  19.666  0.00  0.00    +0.000 A 
ATOM      6  C   UNL     1       3.636   5.597  19.355  0.00  0.00    +0.000 A 
ENDROOT
BRANCH   5   7
ATOM      7  C   UNL     1       2.140   7.609  19.405  0.00  0.00    +0.000 C 
ATOM      8  O   UNL     1       2.696   8.133  18.442  0.00  0.00    +0.000 OA
ATOM      9  N   UNL     1       1.264   8.305  20.224  0.00  0.00    +0.000 N 
ATOM     10  C   UNL     1       0.842   9.649  19.869  0.00  0.00    +0.000 C 
ATOM     11  C   UNL     1       0.676  10.391  21.190  0.00  0.00    +0.000 C 
ATOM     12  C   UNL     1       0.344   9.284  22.192  0.00  0.00    +0.000 C 
ATOM     13  F   UNL     1       0.884   9.582  23.404  0.00  0.00    +0.000 F 
ATOM     14  C   UNL     1       0.995   8.025  21.628  0.00  0.00    +0.000 C 
BRANCH  11  15
ATOM     15  O   UNL     1      -0.352  11.375  21.122  0.00  0.00    +0.000 OA
ATOM     16  H   UNL     1      -0.052  12.118  20.569  0.00  0.00    +0.000 HD
ENDBRANCH  11  15
ENDBRANCH   5   7
BRANCH   1  17
ATOM     17  O   UNL     1       5.145   3.772  19.424  0.00  0.00    +0.000 OA
BRANCH  17  20
ATOM     18  C   UNL     1       7.377   6.307  18.060  0.00  0.00    +0.000 A 
ATOM     19  C   UNL     1       6.682   5.516  18.979  0.00  0.00    +0.000 A 
ATOM     20  C   UNL     1       5.889   4.489  18.495  0.00  0.00    +0.000 A 
ATOM     21  N   UNL     1       5.796   4.167  17.188  0.00  0.00    +0.000 NA
ATOM     22  C   UNL     1       6.459   4.942  16.288  0.00  0.00    +0.000 A 
ATOM     23  C   UNL     1       7.245   6.018  16.695  0.00  0.00    +0.000 A 
BRANCH  22  24
ATOM     24  C   UNL     1       6.308   4.642  14.804  0.00  0.00    +0.000 C 
ATOM     25  F   UNL     1       7.318   5.123  14.026  0.00  0.00    +0.000 F 
ATOM     26  F   UNL     1       6.250   3.302  14.544  0.00  0.00    +0.000 F 
ATOM     27  F   UNL     1       5.157   5.164  14.282  0.00  0.00    +0.000 F 
ENDBRANCH  22  24
BRANCH  18  28
ATOM     28  C   UNL     1       8.239   7.454  18.515  0.00  0.00    +0.000 C 
BRANCH  28  29
ATOM     29  N   UNL     1       7.972   8.653  17.734  0.00  0.00    +0.000 NA
ATOM     30  H   UNL     1       7.404   8.405  16.925  0.00  0.00    +0.000 HD
ATOM     31  H   UNL     1       8.849   9.015  17.361  0.00  0.00    +0.000 HD
ENDBRANCH  28  29
ENDBRANCH  18  28
ENDBRANCH  17  20
ENDBRANCH   1  17
TORSDOF 7
ENDMDL
MODEL 5
REMARK VINA RESULT:      -8.0      2.668      8.883
REMARK  Name = 
REMARK  7 active torsions:
REMARK  status: ('A' for Active; 'I' for Inactive)
REMARK    1  A    between atoms: N_1  and  C_2
REMARK    2  A    between atoms: C_2  and  C_3
REMARK    3  A    between atoms: C_5  and  O_6
REMARK    4  A    between atoms: O_6  and  C_7
REMARK    5  A    between atoms: C_11  and  C_12
REMARK    6  A    between atoms: C_16  and  O_17
REMARK    7  A    between atoms: C_23  and  C_24
REMARK                            x       y       z     vdW  Elec       q    Type
REMARK                         _______ _______ _______ _____ _____    ______ ____
ROOT
ATOM      1  C   UNL     1       1.986   8.180  19.319  0.00  0.00    +0.000 A 
ATOM      2  C   UNL     1       1.471   7.605  20.488  0.00  0.00    +0.000 A 
ATOM      3  C   UNL     1       1.593   6.232  20.704  0.00  0.00    +0.000 A 
ATOM      4  C   UNL     1       2.277   5.446  19.779  0.00  0.00    +0.000 A 
ATOM      5  C   UNL     1       2.852   6.033  18.642  0.00  0.00    +0.000 A 
ATOM      6  C   UNL     1       2.695   7.402  18.410  0.00  0.00    +0.000 A 
ENDROOT
BRANCH   5   7
ATOM      7  C   UNL     1       3.471   5.153  17.620  0.00  0.00    +0.000 C 
ATOM      8  O   UNL     1       2.811   4.210  17.190  0.00  0.00    +0.000 OA
ATOM      9  N   UNL     1       4.749   5.433  17.160  0.00  0.00    +0.000 N 
ATOM     10  C   UNL     1       5.292   4.712  16.023  0.00  0.00    +0.000 C 
ATOM     11  C   UNL     1       6.786   4.575  16.296  0.00  0.00    +0.000 C 
ATOM     12  C   UNL     1       7.107   5.779  17.183  0.00  0.00    +0.000 C 
ATOM     13  F   UNL     1       8.072   5.447  18.081  0.00  0.00    +0.000 F 
ATOM     14  C   UNL     1       5.806   6.098  17.912  0.00  0.00    +0.000 C 
BRANCH  11  15
ATOM     15  O   UNL     1       7.550   4.578  15.094  0.00  0.00    +0.000 OA
ATOM     16  H   UNL     1       7.837   5.487  14.896  0.00  0.00    +0.000 HD
ENDBRANCH  11  15
ENDBRANCH   5   7
BRANCH   1  17
ATOM     17  O   UNL     1       1.844   9.523  19.036  0.00  0.00    +0.000 OA
BRANCH  17  20
ATOM     18  C   UNL     1      -1.505  10.289  17.825  0.00  0.00    +0.000 A 
ATOM     19  C   UNL     1      -0.223   9.739  17.902  0.00  0.00    +0.000 A 
ATOM     20  C   UNL     1       0.543  10.013  19.022  0.00  0.00    +0.000 A 
ATOM     21  N   UNL     1       0.101  10.731  20.075  0.00  0.00    +0.000 NA
ATOM     22  C   UNL     1      -1.141  11.280  20.000  0.00  0.00    +0.000 A 
ATOM     23  C   UNL     1      -1.957  11.083  18.887  0.00  0.00    +0.000 A 
BRANCH  22  24
ATOM     24  C   UNL     1      -1.631  12.155  21.144  0.00  0.00    +0.000 C 
ATOM     25  F   UNL     1      -2.851  12.725  20.935  0.00  0.00    +0.000 F 
ATOM     26  F   UNL     1      -1.744  11.466  22.318  0.00  0.00    +0.000 F 
ATOM     27  F   UNL     1      -0.779  13.190  21.409  0.00  0.00    +0.000 F 
ENDBRANCH  22  24
BRANCH  18  28
ATOM     28  C   UNL     1      -2.384  10.050  16.626  0.00  0.00    +0.000 C 
BRANCH  28  29
ATOM     29  N   UNL     1      -2.553  11.270  15.849  0.00  0.00    +0.000 NA
ATOM     30  H   UNL     1      -2.822  12.029  16.473  0.00  0.00    +0.000 HD
ATOM     31  H   UNL     1      -3.329  11.151  15.199  0.00  0.00    +0.000 HD
ENDBRANCH  28  29
ENDBRANCH  18  28
ENDBRANCH  17  20
ENDBRANCH   1  17
TORSDOF 7
ENDMDL
MODEL 6
REMARK VINA RESULT:      -7.9      3.524      8.097
REMARK  Name = 
REMARK  7 active torsions:
REMARK  status: ('A' for Active; 'I' for Inactive)
REMARK    1  A    between atoms: N_1  and  C_2
REMARK    2  A    between atoms: C_2  and  C_3
REMARK    3  A    between atoms: C_5  and  O_6
REMARK    4  A    between atoms: O_6  and  C_7
REMARK    5  A    between atoms: C_11  and  C_12
REMARK    6  A    between atoms: C_16  and  O_17
REMARK    7  A    between atoms: C_23  and  C_24
REMARK                            x       y       z     vdW  Elec       q    Type
REMARK                         _______ _______ _______ _____ _____    ______ ____
ROOT
ATOM      1  C   UNL     1       2.028   4.977  20.418  0.00  0.00    +0.000 A 
ATOM      2  C   UNL     1       0.819   4.274  20.334  0.00  0.00    +0.000 A 
ATOM      3  C   UNL     1       0.660   3.268  19.381  0.00  0.00    +0.000 A 
ATOM      4  C   UNL     1       1.728   2.927  18.552  0.00  0.00    +0.000 A 
ATOM      5  C   UNL     1       2.961   3.584  18.683  0.00  0.00    +0.000 A 
ATOM      6  C   UNL     1       3.104   4.618  19.613  0.00  0.00    +0.000 A 
ENDROOT
BRANCH   5   7
ATOM      7  C   UNL     1       4.038   3.281  17.709  0.00  0.00    +0.000 C 
ATOM      8  O   UNL     1       4.214   2.108  17.386  0.00  0.00    +0.000 OA
ATOM      9  N   UNL     1       4.787   4.317  17.173  0.00  0.00    +0.000 N 
ATOM     10  C   UNL     1       5.704   4.066  16.075  0.00  0.00    +0.000 C 
ATOM     11  C   UNL     1       6.878   5.013  16.292  0.00  0.00    +0.000 C 
ATOM     12  C   UNL     1       6.266   6.183  17.065  0.00  0.00    +0.000 C 
ATOM     13  F   UNL     1       7.175   6.683  17.944  0.00  0.00    +0.000 F 
ATOM     14  C   UNL     1       5.083   5.588  17.822  0.00  0.00    +0.000 C 
BRANCH  11  15
ATOM     15  O   UNL     1       7.460   5.432  15.061  0.00  0.00    +0.000 OA
ATOM     16  H   UNL     1       8.189   6.050  15.243  0.00  0.00    +0.000 HD
ENDBRANCH  11  15
ENDBRANCH   5   7
BRANCH   1  17
ATOM     17  O   UNL     1       2.215   6.015  21.308  0.00  0.00    +0.000 OA
BRANCH  17  20
ATOM     18  C   UNL     1       0.432   9.189  21.422  0.00  0.00    +0.000 A 
ATOM     19  C   UNL     1       0.991   7.974  21.825  0.00  0.00    +0.000 A 
ATOM     20  C   UNL     1       1.741   7.258  20.908  0.00  0.00    +0.000 A 
ATOM     21  N   UNL     1       2.017   7.696  19.661  0.00  0.00    +0.000 NA
ATOM     22  C   UNL     1       1.466   8.872  19.259  0.00  0.00    +0.000 A 
ATOM     23  C   UNL     1       0.665   9.630  20.112  0.00  0.00    +0.000 A 
BRANCH  22  24
ATOM     24  C   UNL     1       1.702   9.348  17.833  0.00  0.00    +0.000 C 
ATOM     25  F   UNL     1       2.503   8.532  17.092  0.00  0.00    +0.000 F 
ATOM     26  F   UNL     1       0.541   9.468  17.122  0.00  0.00    +0.000 F 
ATOM     27  F   UNL     1       2.286  10.583  17.786  0.00  0.00    +0.000 F 
ENDBRANCH  22  24
BRANCH  18  28
ATOM     28  C   UNL     1      -0.413  10.008  22.361  0.00  0.00    +0.000 C 
BRANCH  28  29
ATOM     29  N   UNL     1      -0.063   9.739  23.749  0.00  0.00    +0.000 NA
ATOM     30  H   UNL     1       0.723  10.330  24.015  0.00  0.00    +0.000 HD
ATOM     31  H   UNL     1       0.266   8.779  23.834  0.00  0.00    +0.000 HD
ENDBRANCH  28  29
ENDBRANCH  18  28
ENDBRANCH  17  20
ENDBRANCH   1  17
TORSDOF 7
ENDMDL
MODEL 7
REMARK VINA RESULT:      -7.9      2.922      8.837
REMARK  Name = 
REMARK  7 active torsions:
REMARK  status: ('A' for Active; 'I' for Inactive)
REMARK    1  A    between atoms: N_1  and  C_2
REMARK    2  A    between atoms: C_2  and  C_3
REMARK    3  A    between atoms: C_5  and  O_6
REMARK    4  A    between atoms: O_6  and  C_7
REMARK    5  A    between atoms: C_11  and  C_12
REMARK    6  A    between atoms: C_16  and  O_17
REMARK    7  A    between atoms: C_23  and  C_24
REMARK                            x       y       z     vdW  Elec       q    Type
REMARK                         _______ _______ _______ _____ _____    ______ ____
ROOT
ATOM      1  C   UNL     1       1.893   8.318  19.277  0.00  0.00    +0.000 A 
ATOM      2  C   UNL     1       1.430   7.787  20.488  0.00  0.00    +0.000 A 
ATOM      3  C   UNL     1       1.603   6.432  20.768  0.00  0.00    +0.000 A 
ATOM      4  C   UNL     1       2.289   5.622  19.864  0.00  0.00    +0.000 A 
ATOM      5  C   UNL     1       2.813   6.169  18.683  0.00  0.00    +0.000 A 
ATOM      6  C   UNL     1       2.603   7.519  18.388  0.00  0.00    +0.000 A 
ENDROOT
BRANCH   5   7
ATOM      7  C   UNL     1       3.433   5.259  17.689  0.00  0.00    +0.000 C 
ATOM      8  O   UNL     1       2.783   4.288  17.307  0.00  0.00    +0.000 OA
ATOM      9  N   UNL     1       4.699   5.542  17.199  0.00  0.00    +0.000 N 
ATOM     10  C   UNL     1       5.239   4.784  16.084  0.00  0.00    +0.000 C 
ATOM     11  C   UNL     1       6.738   4.684  16.340  0.00  0.00    +0.000 C 
ATOM     12  C   UNL     1       7.051   5.929  17.173  0.00  0.00    +0.000 C 
ATOM     13  F   UNL     1       8.034   5.650  18.070  0.00  0.00    +0.000 F 
ATOM     14  C   UNL     1       5.754   6.255  17.908  0.00  0.00    +0.000 C 
BRANCH  11  15
ATOM     15  O   UNL     1       7.485   4.652  15.128  0.00  0.00    +0.000 OA
ATOM     16  H   UNL     1       7.502   5.542  14.736  0.00  0.00    +0.000 HD
ENDBRANCH  11  15
ENDBRANCH   5   7
BRANCH   1  17
ATOM     17  O   UNL     1       1.699   9.640  18.932  0.00  0.00    +0.000 OA
BRANCH  17  20
ATOM     18  C   UNL     1      -1.664  11.016  18.674  0.00  0.00    +0.000 A 
ATOM     19  C   UNL     1      -0.469  10.378  18.332  0.00  0.00    +0.000 A 
ATOM     20  C   UNL     1       0.488  10.203  19.317  0.00  0.00    +0.000 A 
ATOM     21  N   UNL     1       0.310  10.559  20.606  0.00  0.00    +0.000 NA
ATOM     22  C   UNL     1      -0.845  11.194  20.942  0.00  0.00    +0.000 A 
ATOM     23  C   UNL     1      -1.840  11.441  19.997  0.00  0.00    +0.000 A 
BRANCH  22  24
ATOM     24  C   UNL     1      -1.036  11.671  22.374  0.00  0.00    +0.000 C 
ATOM     25  F   UNL     1      -0.376  12.825  22.676  0.00  0.00    +0.000 F 
ATOM     26  F   UNL     1      -2.347  11.909  22.676  0.00  0.00    +0.000 F 
ATOM     27  F   UNL     1      -0.613  10.750  23.290  0.00  0.00    +0.000 F 
ENDBRANCH  22  24
BRANCH  18  28
ATOM     28  C   UNL     1      -2.738  11.258  17.647  0.00  0.00    +0.000 C 
BRANCH  28  29
ATOM     29  N   UNL     1      -2.162  11.504  16.333  0.00  0.00    +0.000 NA
ATOM     30  H   UNL     1      -1.145  11.473  16.403  0.00  0.00    +0.000 HD
ATOM     31  H   UNL     1      -2.394  12.451  16.035  0.00  0.00    +0.000 HD
ENDBRANCH  28  29
ENDBRANCH  18  28
ENDBRANCH  17  20
ENDBRANCH   1  17
TORSDOF 7
ENDMDL
MODEL 8
REMARK VINA RESULT:      -7.9      1.745      2.040
REMARK  Name = 
REMARK  7 active torsions:
REMARK  status: ('A' for Active; 'I' for Inactive)
REMARK    1  A    between atoms: N_1  and  C_2
REMARK    2  A    between atoms: C_2  and  C_3
REMARK    3  A    between atoms: C_5  and  O_6
REMARK    4  A    between atoms: O_6  and  C_7
REMARK    5  A    between atoms: C_11  and  C_12
REMARK    6  A    between atoms: C_16  and  O_17
REMARK    7  A    between atoms: C_23  and  C_24
REMARK                            x       y       z     vdW  Elec       q    Type
REMARK                         _______ _______ _______ _____ _____    ______ ____
ROOT
ATOM      1  C   UNL     1       1.994   7.501  19.613  0.00  0.00    +0.000 A 
ATOM      2  C   UNL     1       2.350   7.781  18.287  0.00  0.00    +0.000 A 
ATOM      3  C   UNL     1       2.013   9.008  17.717  0.00  0.00    +0.000 A 
ATOM      4  C   UNL     1       1.371   9.976  18.490  0.00  0.00    +0.000 A 
ATOM      5  C   UNL     1       1.076   9.721  19.837  0.00  0.00    +0.000 A 
ATOM      6  C   UNL     1       1.381   8.475  20.394  0.00  0.00    +0.000 A 
ENDROOT
BRANCH   5   7
ATOM      7  C   UNL     1       0.289  10.723  20.597  0.00  0.00    +0.000 C 
ATOM      8  O   UNL     1       0.591  10.929  21.771  0.00  0.00    +0.000 OA
ATOM      9  N   UNL     1      -0.731  11.416  19.963  0.00  0.00    +0.000 N 
ATOM     10  C   UNL     1      -1.376  12.537  20.624  0.00  0.00    +0.000 C 
ATOM     11  C   UNL     1      -2.832  12.500  20.174  0.00  0.00    +0.000 C 
ATOM     12  C   UNL     1      -2.774  11.820  18.804  0.00  0.00    +0.000 C 
ATOM     13  F   UNL     1      -3.886  11.061  18.618  0.00  0.00    +0.000 F 
ATOM     14  C   UNL     1      -1.537  10.929  18.851  0.00  0.00    +0.000 C 
BRANCH  11  15
ATOM     15  O   UNL     1      -3.400  13.803  20.100  0.00  0.00    +0.000 OA
ATOM     16  H   UNL     1      -3.171  14.207  19.245  0.00  0.00    +0.000 HD
ENDBRANCH  11  15
ENDBRANCH   5   7
BRANCH   1  17
ATOM     17  O   UNL     1       2.258   6.283  20.204  0.00  0.00    +0.000 OA
BRANCH  17  20
ATOM     18  C   UNL     1       3.561   3.378  18.433  0.00  0.00    +0.000 A 
ATOM     19  C   UNL     1       2.665   4.264  19.037  0.00  0.00    +0.000 A 
ATOM     20  C   UNL     1       3.155   5.459  19.536  0.00  0.00    +0.000 A 
ATOM     21  N   UNL     1       4.442   5.847  19.418  0.00  0.00    +0.000 NA
ATOM     22  C   UNL     1       5.322   4.984  18.843  0.00  0.00    +0.000 A 
ATOM     23  C   UNL     1       4.911   3.745  18.353  0.00  0.00    +0.000 A 
BRANCH  22  24
ATOM     24  C   UNL     1       6.792   5.370  18.767  0.00  0.00    +0.000 C 
ATOM     25  F   UNL     1       7.034   6.541  18.113  0.00  0.00    +0.000 F 
ATOM     26  F   UNL     1       7.358   5.516  20.001  0.00  0.00    +0.000 F 
ATOM     27  F   UNL     1       7.546   4.426  18.130  0.00  0.00    +0.000 F 
ENDBRANCH  22  24
BRANCH  18  28
ATOM     28  C   UNL     1       3.099   2.053  17.890  0.00  0.00    +0.000 C 
BRANCH  28  29
ATOM     29  N   UNL     1       1.997   1.518  18.679  0.00  0.00    +0.000 NA
ATOM     30  H   UNL     1       2.184   0.540  18.893  0.00  0.00    +0.000 HD
ATOM     31  H   UNL     1       1.146   1.525  18.117  0.00  0.00    +0.000 HD
ENDBRANCH  28  29
ENDBRANCH  18  28
ENDBRANCH  17  20
ENDBRANCH   1  17
TORSDOF 7
ENDMDL
MODEL 9
REMARK VINA RESULT:      -7.9      3.358      8.873
REMARK  Name = 
REMARK  7 active torsions:
REMARK  status: ('A' for Active; 'I' for Inactive)
REMARK    1  A    between atoms: N_1  and  C_2
REMARK    2  A    between atoms: C_2  and  C_3
REMARK    3  A    between atoms: C_5  and  O_6
REMARK    4  A    between atoms: O_6  and  C_7
REMARK    5  A    between atoms: C_11  and  C_12
REMARK    6  A    between atoms: C_16  and  O_17
REMARK    7  A    between atoms: C_23  and  C_24
REMARK                            x       y       z     vdW  Elec       q    Type
REMARK                         _______ _______ _______ _____ _____    ______ ____
ROOT
ATOM      1  C   UNL     1       1.502   9.180  19.019  0.00  0.00    +0.000 A 
ATOM      2  C   UNL     1       1.086   9.024  20.348  0.00  0.00    +0.000 A 
ATOM      3  C   UNL     1       1.344   7.833  21.026  0.00  0.00    +0.000 A 
ATOM      4  C   UNL     1       2.067   6.822  20.395  0.00  0.00    +0.000 A 
ATOM      5  C   UNL     1       2.543   7.005  19.088  0.00  0.00    +0.000 A 
ATOM      6  C   UNL     1       2.249   8.185  18.398  0.00  0.00    +0.000 A 
ENDROOT
BRANCH   5   7
ATOM      7  C   UNL     1       3.206   5.867  18.404  0.00  0.00    +0.000 C 
ATOM      8  O   UNL     1       4.063   6.118  17.560  0.00  0.00    +0.000 OA
ATOM      9  N   UNL     1       2.867   4.569  18.754  0.00  0.00    +0.000 N 
ATOM     10  C   UNL     1       3.641   3.449  18.247  0.00  0.00    +0.000 C 
ATOM     11  C   UNL     1       2.645   2.312  18.051  0.00  0.00    +0.000 C 
ATOM     12  C   UNL     1       1.544   2.612  19.072  0.00  0.00    +0.000 C 
ATOM     13  F   UNL     1       0.337   2.233  18.575  0.00  0.00    +0.000 F 
ATOM     14  C   UNL     1       1.576   4.125  19.263  0.00  0.00    +0.000 C 
BRANCH  11  15
ATOM     15  O   UNL     1       3.241   1.038  18.268  0.00  0.00    +0.000 OA
ATOM     16  H   UNL     1       4.201   1.101  18.121  0.00  0.00    +0.000 HD
ENDBRANCH  11  15
ENDBRANCH   5   7
BRANCH   1  17
ATOM     17  O   UNL     1       1.224  10.318  18.290  0.00  0.00    +0.000 OA
BRANCH  17  20
ATOM     18  C   UNL     1      -1.518  12.445  19.397  0.00  0.00    +0.000 A 
ATOM     19  C   UNL     1      -0.224  11.961  19.189  0.00  0.00    +0.000 A 
ATOM     20  C   UNL     1      -0.064  10.826  18.413  0.00  0.00    +0.000 A 
ATOM     21  N   UNL     1      -1.082  10.191  17.794  0.00  0.00    +0.000 NA
ATOM     22  C   UNL     1      -2.345  10.650  18.004  0.00  0.00    +0.000 A 
ATOM     23  C   UNL     1      -2.590  11.764  18.805  0.00  0.00    +0.000 A 
BRANCH  22  24
ATOM     24  C   UNL     1      -3.514   9.906  17.377  0.00  0.00    +0.000 C 
ATOM     25  F   UNL     1      -3.880   8.772  18.038  0.00  0.00    +0.000 F 
ATOM     26  F   UNL     1      -4.643  10.671  17.306  0.00  0.00    +0.000 F 
ATOM     27  F   UNL     1      -3.256   9.519  16.092  0.00  0.00    +0.000 F 
ENDBRANCH  22  24
BRANCH  18  28
ATOM     28  C   UNL     1      -1.766  13.662  20.248  0.00  0.00    +0.000 C 
BRANCH  28  29
ATOM     29  N   UNL     1      -1.196  14.855  19.636  0.00  0.00    +0.000 NA
ATOM     30  H   UNL     1      -1.943  15.397  19.204  0.00  0.00    +0.000 HD
ATOM     31  H   UNL     1      -0.574  14.579  18.877  0.00  0.00    +0.000 HD
ENDBRANCH  28  29
ENDBRANCH  18  28
ENDBRANCH  17  20
ENDBRANCH   1  17
TORSDOF 7
ENDMDL
