MODEL 1
REMARK VINA RESULT:      -8.6      0.000      0.000
REMARK  Name = 
REMARK  9 active torsions:
REMARK  status: ('A' for Active; 'I' for Inactive)
REMARK    1  A    between atoms: C_1  and  C_2
REMARK    2  A    between atoms: C_2  and  C_3
REMARK    3  A    between atoms: C_2  and  C_4
REMARK    4  A    between atoms: C_5  and  O_6
REMARK    5  A    between atoms: O_6  and  C_7
REMARK    6  A    between atoms: C_12  and  C_13
REMARK    7  A    between atoms: C_15  and  C_16
REMARK    8  A    between atoms: C_16  and  C_17
REMARK    9  A    between atoms: C_17  and  C_18
REMARK                            x       y       z     vdW  Elec       q    Type
REMARK                         _______ _______ _______ _____ _____    ______ ____
ROOT
ATOM      1  C   UNL     1       4.661   5.705  17.823  0.00  0.00    +0.000 A 
ATOM      2  C   UNL     1       3.665   5.731  18.748  0.00  0.00    +0.000 A 
ATOM      3  C   UNL     1       2.740   6.855  18.797  0.00  0.00    +0.000 A 
ATOM      4  C   UNL     1       2.835   7.873  17.923  0.00  0.00    +0.000 A 
ATOM      5  N   UNL     1       3.845   7.847  16.997  0.00  0.00    +0.000 N 
ATOM      6  C   UNL     1       4.763   6.852  16.861  0.00  0.00    +0.000 A 
ATOM      7  O   UNL     1       5.604   6.928  15.969  0.00  0.00    +0.000 OA
ATOM      8  H   UNL     1       3.947   8.598  16.324  0.00  0.00    +0.000 HD
ENDROOT
BRANCH   1  10
ATOM      9  C   UNL     1       5.449   3.926  16.246  0.00  0.00    +0.000 C 
ATOM     10  C   UNL     1       5.665   4.580  17.617  0.00  0.00    +0.000 C 
ATOM     11  C   UNL     1       7.139   4.995  17.768  0.00  0.00    +0.000 C 
ENDBRANCH   1  10
BRANCH   2  12
ATOM     12  O   UNL     1       3.522   4.695  19.661  0.00  0.00    +0.000 OA
BRANCH  12  13
ATOM     13  C   UNL     1       3.252   3.323  19.295  0.00  0.00    +0.000 C 
ATOM     14  C   UNL     1       3.508   2.364  20.468  0.00  0.00    +0.000 C 
ATOM     15  C   UNL     1       2.655   2.724  21.683  0.00  0.00    +0.000 C 
ATOM     16  C   UNL     1       1.164   2.807  21.351  0.00  0.00    +0.000 C 
ATOM     17  C   UNL     1       0.864   3.624  20.092  0.00  0.00    +0.000 C 
ATOM     18  C   UNL     1       1.753   3.187  18.918  0.00  0.00    +0.000 C 
ATOM     19  C   UNL     1       1.414   3.943  17.634  0.00  0.00    +0.000 C 
ENDBRANCH  12  13
ENDBRANCH   2  12
BRANCH   4  20
ATOM     20  C   UNL     1       1.936   9.067  17.810  0.00  0.00    +0.000 C 
BRANCH  20  21
ATOM     21  C   UNL     1       1.238   9.563  19.078  0.00  0.00    +0.000 C 
BRANCH  21  22
ATOM     22  C   UNL     1      -0.058  10.213  18.654  0.00  0.00    +0.000 A 
ATOM     23  C   UNL     1      -0.848   9.613  17.666  0.00  0.00    +0.000 A 
ATOM     24  C   UNL     1      -1.942  10.291  17.133  0.00  0.00    +0.000 A 
ATOM     25  C   UNL     1      -2.254  11.574  17.580  0.00  0.00    +0.000 A 
ATOM     26  C   UNL     1      -1.485  12.171  18.577  0.00  0.00    +0.000 A 
ATOM     27  C   UNL     1      -0.394  11.493  19.118  0.00  0.00    +0.000 A 
ENDBRANCH  21  22
ENDBRANCH  20  21
ENDBRANCH   4  20
TORSDOF 6
ENDMDL
MODEL 2
REMARK VINA RESULT:      -8.6      2.171      4.356
REMARK  Name = 
REMARK  9 active torsions:
REMARK  status: ('A' for Active; 'I' for Inactive)
REMARK    1  A    between atoms: C_1  and  C_2
REMARK    2  A    between atoms: C_2  and  C_3
REMARK    3  A    between atoms: C_2  and  C_4
REMARK    4  A    between atoms: C_5  and  O_6
REMARK    5  A    between atoms: O_6  and  C_7
REMARK    6  A    between atoms: C_12  and  C_13
REMARK    7  A    between atoms: C_15  and  C_16
REMARK    8  A    between atoms: C_16  and  C_17
REMARK    9  A    between atoms: C_17  and  C_18
REMARK                            x       y       z     vdW  Elec       q    Type
REMARK                         _______ _______ _______ _____ _____    ______ ____
ROOT
ATOM      1  C   UNL     1       2.916   4.377  19.323  0.00  0.00    +0.000 A 
ATOM      2  C   UNL     1       3.251   5.374  18.462  0.00  0.00    +0.000 A 
ATOM      3  C   UNL     1       2.826   6.743  18.725  0.00  0.00    +0.000 A 
ATOM      4  C   UNL     1       2.117   7.051  19.825  0.00  0.00    +0.000 A 
ATOM      5  N   UNL     1       1.776   6.042  20.687  0.00  0.00    +0.000 N 
ATOM      6  C   UNL     1       2.117   4.733  20.542  0.00  0.00    +0.000 A 
ATOM      7  O   UNL     1       1.776   3.925  21.401  0.00  0.00    +0.000 OA
ATOM      8  H   UNL     1       1.242   6.240  21.526  0.00  0.00    +0.000 HD
ENDROOT
BRANCH   1  10
ATOM      9  C   UNL     1       3.157   2.430  17.766  0.00  0.00    +0.000 C 
ATOM     10  C   UNL     1       3.330   2.917  19.210  0.00  0.00    +0.000 C 
ATOM     11  C   UNL     1       4.759   2.612  19.693  0.00  0.00    +0.000 C 
ENDBRANCH   1  10
BRANCH   2  12
ATOM     12  O   UNL     1       3.991   5.101  17.320  0.00  0.00    +0.000 OA
BRANCH  12  13
ATOM     13  C   UNL     1       4.940   6.019  16.731  0.00  0.00    +0.000 C 
ATOM     14  C   UNL     1       5.832   6.672  17.797  0.00  0.00    +0.000 C 
ATOM     15  C   UNL     1       6.599   5.626  18.605  0.00  0.00    +0.000 C 
ATOM     16  C   UNL     1       7.403   4.673  17.720  0.00  0.00    +0.000 C 
ATOM     17  C   UNL     1       6.603   4.113  16.542  0.00  0.00    +0.000 C 
ATOM     18  C   UNL     1       5.878   5.232  15.777  0.00  0.00    +0.000 C 
ATOM     19  C   UNL     1       5.134   4.697  14.554  0.00  0.00    +0.000 C 
ENDBRANCH  12  13
ENDBRANCH   2  12
BRANCH   4  20
ATOM     20  C   UNL     1       1.654   8.409  20.262  0.00  0.00    +0.000 C 
BRANCH  20  21
ATOM     21  C   UNL     1       1.195   8.579  21.711  0.00  0.00    +0.000 C 
BRANCH  21  22
ATOM     22  C   UNL     1       0.136   9.656  21.724  0.00  0.00    +0.000 A 
ATOM     23  C   UNL     1      -0.182  10.336  20.542  0.00  0.00    +0.000 A 
ATOM     24  C   UNL     1      -1.014  11.453  20.576  0.00  0.00    +0.000 A 
ATOM     25  C   UNL     1      -1.533  11.901  21.790  0.00  0.00    +0.000 A 
ATOM     26  C   UNL     1      -1.237  11.219  22.969  0.00  0.00    +0.000 A 
ATOM     27  C   UNL     1      -0.411  10.098  22.938  0.00  0.00    +0.000 A 
ENDBRANCH  21  22
ENDBRANCH  20  21
ENDBRANCH   4  20
TORSDOF 6
ENDMDL
MODEL 3
REMARK VINA RESULT:      -8.5      1.664      4.018
REMARK  Name = 
REMARK  9 active torsions:
REMARK  status: ('A' for Active; 'I' for Inactive)
REMARK    1  A    between atoms: C_1  and  C_2
REMARK    2  A    between atoms: C_2  and  C_3
REMARK    3  A    between atoms: C_2  and  C_4
REMARK    4  A    between atoms: C_5  and  O_6
REMARK    5  A    between atoms: O_6  and  C_7
REMARK    6  A    between atoms: C_12  and  C_13
REMARK    7  A    between atoms: C_15  and  C_16
REMARK    8  A    between atoms: C_16  and  C_17
REMARK    9  A    between atoms: C_17  and  C_18
REMARK                            x       y       z     vdW  Elec       q    Type
REMARK                         _______ _______ _______ _____ _____    ______ ____
ROOT
ATOM      1  C   UNL     1       2.988   5.131  18.825  0.00  0.00    +0.000 A 
ATOM      2  C   UNL     1       3.451   5.917  17.818  0.00  0.00    +0.000 A 
ATOM      3  C   UNL     1       3.067   7.321  17.748  0.00  0.00    +0.000 A 
ATOM      4  C   UNL     1       2.270   7.871  18.681  0.00  0.00    +0.000 A 
ATOM      5  N   UNL     1       1.799   7.073  19.691  0.00  0.00    +0.000 N 
ATOM      6  C   UNL     1       2.091   5.754  19.854  0.00  0.00    +0.000 A 
ATOM      7  O   UNL     1       1.630   5.152  20.820  0.00  0.00    +0.000 OA
ATOM      8  H   UNL     1       1.195   7.455  20.410  0.00  0.00    +0.000 HD
ENDROOT
BRANCH   1  10
ATOM      9  C   UNL     1       2.999   2.839  17.815  0.00  0.00    +0.000 C 
ATOM     10  C   UNL     1       3.342   3.670  19.058  0.00  0.00    +0.000 C 
ATOM     11  C   UNL     1       4.805   3.417  19.465  0.00  0.00    +0.000 C 
ENDBRANCH   1  10
BRANCH   2  12
ATOM     12  O   UNL     1       4.286   5.394  16.840  0.00  0.00    +0.000 OA
BRANCH  12  13
ATOM     13  C   UNL     1       5.324   6.146  16.172  0.00  0.00    +0.000 C 
ATOM     14  C   UNL     1       6.197   6.918  17.172  0.00  0.00    +0.000 C 
ATOM     15  C   UNL     1       6.848   5.981  18.189  0.00  0.00    +0.000 C 
ATOM     16  C   UNL     1       7.636   4.851  17.525  0.00  0.00    +0.000 C 
ATOM     17  C   UNL     1       6.867   4.147  16.404  0.00  0.00    +0.000 C 
ATOM     18  C   UNL     1       6.259   5.160  15.422  0.00  0.00    +0.000 C 
ATOM     19  C   UNL     1       5.550   4.471  14.258  0.00  0.00    +0.000 C 
ENDBRANCH  12  13
ENDBRANCH   2  12
BRANCH   4  20
ATOM     20  C   UNL     1       1.830   9.301  18.778  0.00  0.00    +0.000 C 
BRANCH  20  21
ATOM     21  C   UNL     1       0.731   9.647  19.785  0.00  0.00    +0.000 C 
BRANCH  21  22
ATOM     22  C   UNL     1      -0.376  10.337  19.022  0.00  0.00    +0.000 A 
ATOM     23  C   UNL     1      -1.077  11.394  19.615  0.00  0.00    +0.000 A 
ATOM     24  C   UNL     1      -2.218  11.910  19.005  0.00  0.00    +0.000 A 
ATOM     25  C   UNL     1      -2.668  11.374  17.799  0.00  0.00    +0.000 A 
ATOM     26  C   UNL     1      -1.966  10.334  17.192  0.00  0.00    +0.000 A 
ATOM     27  C   UNL     1      -0.821   9.820  17.796  0.00  0.00    +0.000 A 
ENDBRANCH  21  22
ENDBRANCH  20  21
ENDBRANCH   4  20
TORSDOF 6
ENDMDL
MODEL 4
REMARK VINA RESULT:      -8.5      2.036      4.380
REMARK  Name = 
REMARK  9 active torsions:
REMARK  status: ('A' for Active; 'I' for Inactive)
REMARK    1  A    between atoms: C_1  and  C_2
REMARK    2  A    between atoms: C_2  and  C_3
REMARK    3  A    between atoms: C_2  and  C_4
REMARK    4  A    between atoms: C_5  and  O_6
REMARK    5  A    between atoms: O_6  and  C_7
REMARK    6  A    between atoms: C_12  and  C_13
REMARK    7  A    between atoms: C_15  and  C_16
REMARK    8  A    between atoms: C_16  and  C_17
REMARK    9  A    between atoms: C_17  and  C_18
REMARK                            x       y       z     vdW  Elec       q    Type
REMARK                         _______ _______ _______ _____ _____    ______ ____
ROOT
ATOM      1  C   UNL     1       2.953   4.986  18.871  0.00  0.00    +0.000 A 
ATOM      2  C   UNL     1       3.406   5.836  17.914  0.00  0.00    +0.000 A 
ATOM      3  C   UNL     1       3.047   7.247  17.957  0.00  0.00    +0.000 A 
ATOM      4  C   UNL     1       2.282   7.740  18.948  0.00  0.00    +0.000 A 
ATOM      5  N   UNL     1       1.821   6.877  19.908  0.00  0.00    +0.000 N 
ATOM      6  C   UNL     1       2.093   5.545  19.966  0.00  0.00    +0.000 A 
ATOM      7  O   UNL     1       1.645   4.881  20.896  0.00  0.00    +0.000 OA
ATOM      8  H   UNL     1       1.242   7.215  20.668  0.00  0.00    +0.000 HD
ENDROOT
BRANCH   1  10
ATOM      9  C   UNL     1       2.981   2.790  17.665  0.00  0.00    +0.000 C 
ATOM     10  C   UNL     1       3.286   3.505  18.988  0.00  0.00    +0.000 C 
ATOM     11  C   UNL     1       4.732   3.201  19.421  0.00  0.00    +0.000 C 
ENDBRANCH   1  10
BRANCH   2  12
ATOM     12  O   UNL     1       4.208   5.372  16.879  0.00  0.00    +0.000 OA
BRANCH  12  13
ATOM     13  C   UNL     1       5.242   6.156  16.241  0.00  0.00    +0.000 C 
ATOM     14  C   UNL     1       6.104   6.901  17.270  0.00  0.00    +0.000 C 
ATOM     15  C   UNL     1       6.759   5.936  18.257  0.00  0.00    +0.000 C 
ATOM     16  C   UNL     1       7.559   4.835  17.560  0.00  0.00    +0.000 C 
ATOM     17  C   UNL     1       6.801   4.163  16.413  0.00  0.00    +0.000 C 
ATOM     18  C   UNL     1       6.188   5.203  15.463  0.00  0.00    +0.000 C 
ATOM     19  C   UNL     1       5.490   4.547  14.273  0.00  0.00    +0.000 C 
ENDBRANCH  12  13
ENDBRANCH   2  12
BRANCH   4  20
ATOM     20  C   UNL     1       1.871   9.166  19.161  0.00  0.00    +0.000 C 
BRANCH  20  21
ATOM     21  C   UNL     1       0.376   9.488  19.173  0.00  0.00    +0.000 C 
BRANCH  21  22
ATOM     22  C   UNL     1       0.031   9.977  20.560  0.00  0.00    +0.000 A 
ATOM     23  C   UNL     1       0.052   9.085  21.639  0.00  0.00    +0.000 A 
ATOM     24  C   UNL     1      -0.444   9.473  22.881  0.00  0.00    +0.000 A 
ATOM     25  C   UNL     1      -0.965  10.754  23.056  0.00  0.00    +0.000 A 
ATOM     26  C   UNL     1      -0.973  11.655  21.992  0.00  0.00    +0.000 A 
ATOM     27  C   UNL     1      -0.472  11.273  20.750  0.00  0.00    +0.000 A 
ENDBRANCH  21  22
ENDBRANCH  20  21
ENDBRANCH   4  20
TORSDOF 6
ENDMDL
MODEL 5
REMARK VINA RESULT:      -8.5      1.644      3.923
REMARK  Name = 
REMARK  9 active torsions:
REMARK  status: ('A' for Active; 'I' for Inactive)
REMARK    1  A    between atoms: C_1  and  C_2
REMARK    2  A    between atoms: C_2  and  C_3
REMARK    3  A    between atoms: C_2  and  C_4
REMARK    4  A    between atoms: C_5  and  O_6
REMARK    5  A    between atoms: O_6  and  C_7
REMARK    6  A    between atoms: C_12  and  C_13
REMARK    7  A    between atoms: C_15  and  C_16
REMARK    8  A    between atoms: C_16  and  C_17
REMARK    9  A    between atoms: C_17  and  C_18
REMARK                            x       y       z     vdW  Elec       q    Type
REMARK                         _______ _______ _______ _____ _____    ______ ____
ROOT
ATOM      1  C   UNL     1       2.976   5.508  18.919  0.00  0.00    +0.000 A 
ATOM      2  C   UNL     1       3.481   6.176  17.849  0.00  0.00    +0.000 A 
ATOM      3  C   UNL     1       3.100   7.561  17.603  0.00  0.00    +0.000 A 
ATOM      4  C   UNL     1       2.264   8.210  18.434  0.00  0.00    +0.000 A 
ATOM      5  N   UNL     1       1.752   7.530  19.508  0.00  0.00    +0.000 N 
ATOM      6  C   UNL     1       2.037   6.240  19.832  0.00  0.00    +0.000 A 
ATOM      7  O   UNL     1       1.537   5.749  20.841  0.00  0.00    +0.000 OA
ATOM      8  H   UNL     1       1.119   7.988  20.153  0.00  0.00    +0.000 HD
ENDROOT
BRANCH   1  10
ATOM      9  C   UNL     1       2.700   3.084  18.348  0.00  0.00    +0.000 C 
ATOM     10  C   UNL     1       3.321   4.084  19.332  0.00  0.00    +0.000 C 
ATOM     11  C   UNL     1       4.827   3.802  19.479  0.00  0.00    +0.000 C 
ENDBRANCH   1  10
BRANCH   2  12
ATOM     12  O   UNL     1       4.356   5.549  16.973  0.00  0.00    +0.000 OA
BRANCH  12  13
ATOM     13  C   UNL     1       5.393   6.233  16.233  0.00  0.00    +0.000 C 
ATOM     14  C   UNL     1       6.349   6.989  17.167  0.00  0.00    +0.000 C 
ATOM     15  C   UNL     1       7.006   6.050  18.178  0.00  0.00    +0.000 C 
ATOM     16  C   UNL     1       7.707   4.866  17.510  0.00  0.00    +0.000 C 
ATOM     17  C   UNL     1       6.852   4.170  16.449  0.00  0.00    +0.000 C 
ATOM     18  C   UNL     1       6.243   5.184  15.468  0.00  0.00    +0.000 C 
ATOM     19  C   UNL     1       5.446   4.498  14.360  0.00  0.00    +0.000 C 
ENDBRANCH  12  13
ENDBRANCH   2  12
BRANCH   4  20
ATOM     20  C   UNL     1       1.820   9.639  18.349  0.00  0.00    +0.000 C 
BRANCH  20  21
ATOM     21  C   UNL     1       0.962  10.193  19.487  0.00  0.00    +0.000 C 
BRANCH  21  22
ATOM     22  C   UNL     1      -0.413  10.467  18.923  0.00  0.00    +0.000 A 
ATOM     23  C   UNL     1      -0.820   9.835  17.741  0.00  0.00    +0.000 A 
ATOM     24  C   UNL     1      -2.001  10.219  17.110  0.00  0.00    +0.000 A 
ATOM     25  C   UNL     1      -2.783  11.237  17.653  0.00  0.00    +0.000 A 
ATOM     26  C   UNL     1      -2.396  11.858  18.839  0.00  0.00    +0.000 A 
ATOM     27  C   UNL     1      -1.219  11.473  19.476  0.00  0.00    +0.000 A 
ENDBRANCH  21  22
ENDBRANCH  20  21
ENDBRANCH   4  20
TORSDOF 6
ENDMDL
MODEL 6
REMARK VINA RESULT:      -8.5      1.491      2.223
REMARK  Name = 
REMARK  9 active torsions:
REMARK  status: ('A' for Active; 'I' for Inactive)
REMARK    1  A    between atoms: C_1  and  C_2
REMARK    2  A    between atoms: C_2  and  C_3
REMARK    3  A    between atoms: C_2  and  C_4
REMARK    4  A    between atoms: C_5  and  O_6
REMARK    5  A    between atoms: O_6  and  C_7
REMARK    6  A    between atoms: C_12  and  C_13
REMARK    7  A    between atoms: C_15  and  C_16
REMARK    8  A    between atoms: C_16  and  C_17
REMARK    9  A    between atoms: C_17  and  C_18
REMARK                            x       y       z     vdW  Elec       q    Type
REMARK                         _______ _______ _______ _____ _____    ______ ____
ROOT
ATOM      1  C   UNL     1       4.769   5.567  17.281  0.00  0.00    +0.000 A 
ATOM      2  C   UNL     1       3.544   5.458  17.857  0.00  0.00    +0.000 A 
ATOM      3  C   UNL     1       2.739   6.648  18.098  0.00  0.00    +0.000 A 
ATOM      4  C   UNL     1       3.177   7.868  17.739  0.00  0.00    +0.000 A 
ATOM      5  N   UNL     1       4.416   7.974  17.164  0.00  0.00    +0.000 N 
ATOM      6  C   UNL     1       5.251   6.934  16.893  0.00  0.00    +0.000 A 
ATOM      7  O   UNL     1       6.327   7.155  16.346  0.00  0.00    +0.000 OA
ATOM      8  H   UNL     1       4.778   8.878  16.882  0.00  0.00    +0.000 HD
ENDROOT
BRANCH   1  10
ATOM      9  C   UNL     1       5.655   4.158  15.408  0.00  0.00    +0.000 C 
ATOM     10  C   UNL     1       5.697   4.415  16.920  0.00  0.00    +0.000 C 
ATOM     11  C   UNL     1       7.156   4.595  17.376  0.00  0.00    +0.000 C 
ENDBRANCH   1  10
BRANCH   2  12
ATOM     12  O   UNL     1       3.048   4.217  18.233  0.00  0.00    +0.000 OA
BRANCH  12  13
ATOM     13  C   UNL     1       3.342   3.573  19.493  0.00  0.00    +0.000 C 
ATOM     14  C   UNL     1       2.609   4.253  20.660  0.00  0.00    +0.000 C 
ATOM     15  C   UNL     1       1.096   4.250  20.450  0.00  0.00    +0.000 C 
ATOM     16  C   UNL     1       0.541   2.849  20.190  0.00  0.00    +0.000 C 
ATOM     17  C   UNL     1       1.335   2.062  19.144  0.00  0.00    +0.000 C 
ATOM     18  C   UNL     1       2.843   2.105  19.439  0.00  0.00    +0.000 C 
ATOM     19  C   UNL     1       3.642   1.264  18.445  0.00  0.00    +0.000 C 
ENDBRANCH  12  13
ENDBRANCH   2  12
BRANCH   4  20
ATOM     20  C   UNL     1       2.451   9.173  17.869  0.00  0.00    +0.000 C 
BRANCH  20  21
ATOM     21  C   UNL     1       0.947   9.134  18.148  0.00  0.00    +0.000 C 
BRANCH  21  22
ATOM     22  C   UNL     1       0.746   9.545  19.588  0.00  0.00    +0.000 A 
ATOM     23  C   UNL     1       1.145   8.687  20.620  0.00  0.00    +0.000 A 
ATOM     24  C   UNL     1       0.796   8.965  21.939  0.00  0.00    +0.000 A 
ATOM     25  C   UNL     1       0.044  10.100  22.239  0.00  0.00    +0.000 A 
ATOM     26  C   UNL     1      -0.342  10.969  21.220  0.00  0.00    +0.000 A 
ATOM     27  C   UNL     1       0.011  10.699  19.900  0.00  0.00    +0.000 A 
ENDBRANCH  21  22
ENDBRANCH  20  21
ENDBRANCH   4  20
TORSDOF 6
ENDMDL
MODEL 7
REMARK VINA RESULT:      -8.5      0.717      1.974
REMARK  Name = 
REMARK  9 active torsions:
REMARK  status: ('A' for Active; 'I' for Inactive)
REMARK    1  A    between atoms: C_1  and  C_2
REMARK    2  A    between atoms: C_2  and  C_3
REMARK    3  A    between atoms: C_2  and  C_4
REMARK    4  A    between atoms: C_5  and  O_6
REMARK    5  A    between atoms: O_6  and  C_7
REMARK    6  A    between atoms: C_12  and  C_13
REMARK    7  A    between atoms: C_15  and  C_16
REMARK    8  A    between atoms: C_16  and  C_17
REMARK    9  A    between atoms: C_17  and  C_18
REMARK                            x       y       z     vdW  Elec       q    Type
REMARK                         _______ _______ _______ _____ _____    ______ ____
ROOT
ATOM      1  C   UNL     1       4.386   5.838  17.890  0.00  0.00    +0.000 A 
ATOM      2  C   UNL     1       3.309   5.875  18.718  0.00  0.00    +0.000 A 
ATOM      3  C   UNL     1       2.449   7.050  18.750  0.00  0.00    +0.000 A 
ATOM      4  C   UNL     1       2.686   8.107  17.953  0.00  0.00    +0.000 A 
ATOM      5  N   UNL     1       3.777   8.069  17.124  0.00  0.00    +0.000 N 
ATOM      6  C   UNL     1       4.646   7.028  17.013  0.00  0.00    +0.000 A 
ATOM      7  O   UNL     1       5.571   7.101  16.209  0.00  0.00    +0.000 OA
ATOM      8  H   UNL     1       3.985   8.849  16.510  0.00  0.00    +0.000 HD
ENDROOT
BRANCH   1  10
ATOM      9  C   UNL     1       5.336   4.204  16.246  0.00  0.00    +0.000 C 
ATOM     10  C   UNL     1       5.340   4.666  17.709  0.00  0.00    +0.000 C 
ATOM     11  C   UNL     1       6.785   4.934  18.165  0.00  0.00    +0.000 C 
ENDBRANCH   1  10
BRANCH   2  12
ATOM     12  O   UNL     1       3.021   4.801  19.549  0.00  0.00    +0.000 OA
BRANCH  12  13
ATOM     13  C   UNL     1       1.758   4.096  19.555  0.00  0.00    +0.000 C 
ATOM     14  C   UNL     1       1.327   3.696  18.136  0.00  0.00    +0.000 C 
ATOM     15  C   UNL     1       2.377   2.815  17.459  0.00  0.00    +0.000 C 
ATOM     16  C   UNL     1       2.741   1.587  18.294  0.00  0.00    +0.000 C 
ATOM     17  C   UNL     1       3.026   1.910  19.762  0.00  0.00    +0.000 C 
ATOM     18  C   UNL     1       1.917   2.784  20.367  0.00  0.00    +0.000 C 
ATOM     19  C   UNL     1       2.150   3.054  21.853  0.00  0.00    +0.000 C 
ENDBRANCH  12  13
ENDBRANCH   2  12
BRANCH   4  20
ATOM     20  C   UNL     1       1.870   9.359  17.830  0.00  0.00    +0.000 C 
BRANCH  20  21
ATOM     21  C   UNL     1       1.061   9.811  19.047  0.00  0.00    +0.000 C 
BRANCH  21  22
ATOM     22  C   UNL     1      -0.225  10.416  18.533  0.00  0.00    +0.000 A 
ATOM     23  C   UNL     1      -0.739  11.573  19.132  0.00  0.00    +0.000 A 
ATOM     24  C   UNL     1      -2.011  12.030  18.798  0.00  0.00    +0.000 A 
ATOM     25  C   UNL     1      -2.781  11.336  17.866  0.00  0.00    +0.000 A 
ATOM     26  C   UNL     1      -2.269  10.194  17.251  0.00  0.00    +0.000 A 
ATOM     27  C   UNL     1      -0.995   9.737  17.577  0.00  0.00    +0.000 A 
ENDBRANCH  21  22
ENDBRANCH  20  21
ENDBRANCH   4  20
TORSDOF 6
ENDMDL
MODEL 8
REMARK VINA RESULT:      -8.3      1.095      1.672
REMARK  Name = 
REMARK  9 active torsions:
REMARK  status: ('A' for Active; 'I' for Inactive)
REMARK    1  A    between atoms: C_1  and  C_2
REMARK    2  A    between atoms: C_2  and  C_3
REMARK    3  A    between atoms: C_2  and  C_4
REMARK    4  A    between atoms: C_5  and  O_6
REMARK    5  A    between atoms: O_6  and  C_7
REMARK    6  A    between atoms: C_12  and  C_13
REMARK    7  A    between atoms: C_15  and  C_16
REMARK    8  A    between atoms: C_16  and  C_17
REMARK    9  A    between atoms: C_17  and  C_18
REMARK                            x       y       z     vdW  Elec       q    Type
REMARK                         _______ _______ _______ _____ _____    ______ ____
ROOT
ATOM      1  C   UNL     1       4.710   5.656  17.772  0.00  0.00    +0.000 A 
ATOM      2  C   UNL     1       3.733   5.745  18.713  0.00  0.00    +0.000 A 
ATOM      3  C   UNL     1       2.896   6.935  18.789  0.00  0.00    +0.000 A 
ATOM      4  C   UNL     1       3.054   7.953  17.925  0.00  0.00    +0.000 A 
ATOM      5  N   UNL     1       4.045   7.862  16.982  0.00  0.00    +0.000 N 
ATOM      6  C   UNL     1       4.883   6.803  16.820  0.00  0.00    +0.000 A 
ATOM      7  O   UNL     1       5.713   6.827  15.916  0.00  0.00    +0.000 OA
ATOM      8  H   UNL     1       4.192   8.612  16.316  0.00  0.00    +0.000 HD
ENDROOT
BRANCH   1  10
ATOM      9  C   UNL     1       5.349   3.852  16.156  0.00  0.00    +0.000 C 
ATOM     10  C   UNL     1       5.623   4.461  17.537  0.00  0.00    +0.000 C 
ATOM     11  C   UNL     1       7.126   4.759  17.685  0.00  0.00    +0.000 C 
ENDBRANCH   1  10
BRANCH   2  12
ATOM     12  O   UNL     1       3.527   4.712  19.617  0.00  0.00    +0.000 OA
BRANCH  12  13
ATOM     13  C   UNL     1       3.235   3.348  19.238  0.00  0.00    +0.000 C 
ATOM     14  C   UNL     1       3.514   2.369  20.388  0.00  0.00    +0.000 C 
ATOM     15  C   UNL     1       2.697   2.717  21.631  0.00  0.00    +0.000 C 
ATOM     16  C   UNL     1       1.199   2.817  21.341  0.00  0.00    +0.000 C 
ATOM     17  C   UNL     1       0.872   3.656  20.103  0.00  0.00    +0.000 C 
ATOM     18  C   UNL     1       1.726   3.230  18.899  0.00  0.00    +0.000 C 
ATOM     19  C   UNL     1       1.359   4.009  17.636  0.00  0.00    +0.000 C 
ENDBRANCH  12  13
ENDBRANCH   2  12
BRANCH   4  20
ATOM     20  C   UNL     1       2.245   9.212  17.840  0.00  0.00    +0.000 C 
BRANCH  20  21
ATOM     21  C   UNL     1       0.754   9.132  18.172  0.00  0.00    +0.000 C 
BRANCH  21  22
ATOM     22  C   UNL     1       0.553   9.808  19.508  0.00  0.00    +0.000 A 
ATOM     23  C   UNL     1       0.512   9.042  20.679  0.00  0.00    +0.000 A 
ATOM     24  C   UNL     1       0.140   9.625  21.888  0.00  0.00    +0.000 A 
ATOM     25  C   UNL     1      -0.196  10.977  21.937  0.00  0.00    +0.000 A 
ATOM     26  C   UNL     1      -0.139  11.752  20.780  0.00  0.00    +0.000 A 
ATOM     27  C   UNL     1       0.239  11.174  19.570  0.00  0.00    +0.000 A 
ENDBRANCH  21  22
ENDBRANCH  20  21
ENDBRANCH   4  20
TORSDOF 6
ENDMDL
MODEL 9
REMARK VINA RESULT:      -8.3      1.291      2.013
REMARK  Name = 
REMARK  9 active torsions:
REMARK  status: ('A' for Active; 'I' for Inactive)
REMARK    1  A    between atoms: C_1  and  C_2
REMARK    2  A    between atoms: C_2  and  C_3
REMARK    3  A    between atoms: C_2  and  C_4
REMARK    4  A    between atoms: C_5  and  O_6
REMARK    5  A    between atoms: O_6  and  C_7
REMARK    6  A    between atoms: C_12  and  C_13
REMARK    7  A    between atoms: C_15  and  C_16
REMARK    8  A    between atoms: C_16  and  C_17
REMARK    9  A    between atoms: C_17  and  C_18
REMARK                            x       y       z     vdW  Elec       q    Type
REMARK                         _______ _______ _______ _____ _____    ______ ____
ROOT
ATOM      1  C   UNL     1       4.689   5.589  17.231  0.00  0.00    +0.000 A 
ATOM      2  C   UNL     1       3.483   5.482  17.848  0.00  0.00    +0.000 A 
ATOM      3  C   UNL     1       2.700   6.676  18.138  0.00  0.00    +0.000 A 
ATOM      4  C   UNL     1       3.139   7.897  17.786  0.00  0.00    +0.000 A 
ATOM      5  N   UNL     1       4.359   8.002  17.170  0.00  0.00    +0.000 N 
ATOM      6  C   UNL     1       5.172   6.958  16.852  0.00  0.00    +0.000 A 
ATOM      7  O   UNL     1       6.232   7.178  16.272  0.00  0.00    +0.000 OA
ATOM      8  H   UNL     1       4.720   8.907  16.892  0.00  0.00    +0.000 HD
ENDROOT
BRANCH   1  10
ATOM      9  C   UNL     1       5.551   4.253  15.295  0.00  0.00    +0.000 C 
ATOM     10  C   UNL     1       5.592   4.435  16.818  0.00  0.00    +0.000 C 
ATOM     11  C   UNL     1       7.052   4.557  17.288  0.00  0.00    +0.000 C 
ENDBRANCH   1  10
BRANCH   2  12
ATOM     12  O   UNL     1       2.987   4.239  18.217  0.00  0.00    +0.000 OA
BRANCH  12  13
ATOM     13  C   UNL     1       3.318   3.569  19.455  0.00  0.00    +0.000 C 
ATOM     14  C   UNL     1       2.599   4.205  20.653  0.00  0.00    +0.000 C 
ATOM     15  C   UNL     1       1.081   4.181  20.474  0.00  0.00    +0.000 C 
ATOM     16  C   UNL     1       0.546   2.777  20.188  0.00  0.00    +0.000 C 
ATOM     17  C   UNL     1       1.331   2.032  19.107  0.00  0.00    +0.000 C 
ATOM     18  C   UNL     1       2.843   2.094  19.372  0.00  0.00    +0.000 C 
ATOM     19  C   UNL     1       3.636   1.293  18.341  0.00  0.00    +0.000 C 
ENDBRANCH  12  13
ENDBRANCH   2  12
BRANCH   4  20
ATOM     20  C   UNL     1       2.432   9.208  17.965  0.00  0.00    +0.000 C 
BRANCH  20  21
ATOM     21  C   UNL     1       0.906   9.219  17.871  0.00  0.00    +0.000 C 
BRANCH  21  22
ATOM     22  C   UNL     1       0.377   9.729  19.191  0.00  0.00    +0.000 A 
ATOM     23  C   UNL     1      -0.553  10.776  19.213  0.00  0.00    +0.000 A 
ATOM     24  C   UNL     1      -0.903  11.380  20.418  0.00  0.00    +0.000 A 
ATOM     25  C   UNL     1      -0.326  10.945  21.610  0.00  0.00    +0.000 A 
ATOM     26  C   UNL     1       0.586   9.892  21.601  0.00  0.00    +0.000 A 
ATOM     27  C   UNL     1       0.934   9.280  20.398  0.00  0.00    +0.000 A 
ENDBRANCH  21  22
ENDBRANCH  20  21
ENDBRANCH   4  20
TORSDOF 6
ENDMDL
