MODEL 1
REMARK VINA RESULT:      -8.0      0.000      0.000
REMARK  Name = 
REMARK  7 active torsions:
REMARK  status: ('A' for Active; 'I' for Inactive)
REMARK    1  A    between atoms: C_1  and  N_2
REMARK    2  A    between atoms: N_8  and  C_9
REMARK    3  A    between atoms: C_9  and  C_10
REMARK    4  A    between atoms: C_15  and  O_16
REMARK    5  A    between atoms: O_16  and  C_17
REMARK    6  A    between atoms: C_17  and  C_18
REMARK    7  A    between atoms: C_18  and  O_20
REMARK                            x       y       z     vdW  Elec       q    Type
REMARK                         _______ _______ _______ _____ _____    ______ ____
ROOT
ATOM      1  C   UNL     1       2.072   6.056  20.444  0.00  0.00    +0.000 C 
ENDROOT
BRANCH   1   9
ATOM      2  C   UNL     1       5.579   5.532  15.657  0.00  0.00    +0.000 C 
ATOM      3  N   UNL     1       5.521   4.858  16.926  0.00  0.00    +0.000 N 
ATOM      4  C   UNL     1       4.414   4.052  17.337  0.00  0.00    +0.000 C 
ATOM      5  C   UNL     1       4.740   3.848  18.812  0.00  0.00    +0.000 C 
ATOM      6  C   UNL     1       4.304   2.485  19.344  0.00  0.00    +0.000 C 
ATOM      7  C   UNL     1       2.785   2.413  19.412  0.00  0.00    +0.000 C 
ATOM      8  C   UNL     1       2.203   3.582  20.226  0.00  0.00    +0.000 C 
ATOM      9  N   UNL     1       2.630   4.895  19.690  0.00  0.00    +0.000 NA
ATOM     10  C   UNL     1       4.111   4.963  19.686  0.00  0.00    +0.000 C 
ATOM     11  O   UNL     1       6.180   3.937  18.854  0.00  0.00    +0.000 OA
ATOM     12  C   UNL     1       6.593   4.647  17.755  0.00  0.00    +0.000 C 
ATOM     13  O   UNL     1       7.741   5.012  17.572  0.00  0.00    +0.000 OA
ENDBRANCH   1   9
BRANCH   1  14
ATOM     14  C   UNL     1       1.985   7.386  19.700  0.00  0.00    +0.000 A 
ATOM     15  C   UNL     1       2.507   7.519  18.399  0.00  0.00    +0.000 A 
ATOM     16  C   UNL     1       2.255   8.645  17.619  0.00  0.00    +0.000 A 
ATOM     17  C   UNL     1       1.510   9.689  18.141  0.00  0.00    +0.000 A 
ATOM     18  C   UNL     1       1.091   9.640  19.468  0.00  0.00    +0.000 A 
ATOM     19  C   UNL     1       1.373   8.523  20.276  0.00  0.00    +0.000 A 
BRANCH  19  20
ATOM     20  O   UNL     1       1.083   8.507  21.630  0.00  0.00    +0.000 OA
BRANCH  20  21
ATOM     21  C   UNL     1      -0.302   8.786  21.931  0.00  0.00    +0.000 C 
BRANCH  21  22
ATOM     22  C   UNL     1      -0.472   9.827  23.033  0.00  0.00    +0.000 C 
ATOM     23  O   UNL     1      -1.191  10.811  22.947  0.00  0.00    +0.000 OA
BRANCH  22  24
ATOM     24  O   UNL     1       0.247   9.542  24.143  0.00  0.00    +0.000 OA
ATOM     25  H   UNL     1       0.181   8.579  24.348  0.00  0.00    +0.000 HD
ENDBRANCH  22  24
ENDBRANCH  21  22
ENDBRANCH  20  21
ENDBRANCH  19  20
ENDBRANCH   1  14
TORSDOF 6
ENDMDL
MODEL 2
REMARK VINA RESULT:      -7.9      1.117      1.270
REMARK  Name = 
REMARK  7 active torsions:
REMARK  status: ('A' for Active; 'I' for Inactive)
REMARK    1  A    between atoms: C_1  and  N_2
REMARK    2  A    between atoms: N_8  and  C_9
REMARK    3  A    between atoms: C_9  and  C_10
REMARK    4  A    between atoms: C_15  and  O_16
REMARK    5  A    between atoms: O_16  and  C_17
REMARK    6  A    between atoms: C_17  and  C_18
REMARK    7  A    between atoms: C_18  and  O_20
REMARK                            x       y       z     vdW  Elec       q    Type
REMARK                         _______ _______ _______ _____ _____    ______ ____
ROOT
ATOM      1  C   UNL     1       2.093   6.569  19.865  0.00  0.00    +0.000 C 
ENDROOT
BRANCH   1   9
ATOM      2  C   UNL     1       7.385   6.950  17.155  0.00  0.00    +0.000 C 
ATOM      3  N   UNL     1       6.640   5.865  17.736  0.00  0.00    +0.000 N 
ATOM      4  C   UNL     1       5.385   5.411  17.223  0.00  0.00    +0.000 C 
ATOM      5  C   UNL     1       4.931   4.492  18.351  0.00  0.00    +0.000 C 
ATOM      6  C   UNL     1       4.132   3.286  17.862  0.00  0.00    +0.000 C 
ATOM      7  C   UNL     1       2.773   3.735  17.344  0.00  0.00    +0.000 C 
ATOM      8  C   UNL     1       2.015   4.562  18.398  0.00  0.00    +0.000 C 
ATOM      9  N   UNL     1       2.802   5.731  18.853  0.00  0.00    +0.000 NA
ATOM     10  C   UNL     1       4.097   5.264  19.405  0.00  0.00    +0.000 C 
ATOM     11  O   UNL     1       6.170   4.038  18.935  0.00  0.00    +0.000 OA
ATOM     12  C   UNL     1       7.144   4.954  18.628  0.00  0.00    +0.000 C 
ATOM     13  O   UNL     1       8.272   4.929  19.089  0.00  0.00    +0.000 OA
ENDBRANCH   1   9
BRANCH   1  14
ATOM     14  C   UNL     1       1.828   8.025  19.493  0.00  0.00    +0.000 A 
ATOM     15  C   UNL     1       2.326   8.564  18.292  0.00  0.00    +0.000 A 
ATOM     16  C   UNL     1       1.925   9.814  17.826  0.00  0.00    +0.000 A 
ATOM     17  C   UNL     1       1.048  10.578  18.579  0.00  0.00    +0.000 A 
ATOM     18  C   UNL     1       0.642  10.126  19.832  0.00  0.00    +0.000 A 
ATOM     19  C   UNL     1       1.071   8.881  20.327  0.00  0.00    +0.000 A 
BRANCH  19  20
ATOM     20  O   UNL     1       0.788   8.470  21.618  0.00  0.00    +0.000 OA
BRANCH  20  21
ATOM     21  C   UNL     1      -0.509   8.893  22.092  0.00  0.00    +0.000 C 
BRANCH  21  22
ATOM     22  C   UNL     1      -0.426   9.864  23.265  0.00  0.00    +0.000 C 
ATOM     23  O   UNL     1      -1.135  10.850  23.397  0.00  0.00    +0.000 OA
BRANCH  22  24
ATOM     24  O   UNL     1       0.513   9.514  24.174  0.00  0.00    +0.000 OA
ATOM     25  H   UNL     1       1.385   9.397  23.728  0.00  0.00    +0.000 HD
ENDBRANCH  22  24
ENDBRANCH  21  22
ENDBRANCH  20  21
ENDBRANCH  19  20
ENDBRANCH   1  14
TORSDOF 6
ENDMDL
MODEL 3
REMARK VINA RESULT:      -7.7      2.602      4.204
REMARK  Name = 
REMARK  7 active torsions:
REMARK  status: ('A' for Active; 'I' for Inactive)
REMARK    1  A    between atoms: C_1  and  N_2
REMARK    2  A    between atoms: N_8  and  C_9
REMARK    3  A    between atoms: C_9  and  C_10
REMARK    4  A    between atoms: C_15  and  O_16
REMARK    5  A    between atoms: O_16  and  C_17
REMARK    6  A    between atoms: C_17  and  C_18
REMARK    7  A    between atoms: C_18  and  O_20
REMARK                            x       y       z     vdW  Elec       q    Type
REMARK                         _______ _______ _______ _____ _____    ______ ____
ROOT
ATOM      1  C   UNL     1       3.571   6.189  17.514  0.00  0.00    +0.000 C 
ENDROOT
BRANCH   1   9
ATOM      2  C   UNL     1       6.029   3.436  12.837  0.00  0.00    +0.000 C 
ATOM      3  N   UNL     1       6.557   4.217  13.923  0.00  0.00    +0.000 N 
ATOM      4  C   UNL     1       6.492   3.805  15.290  0.00  0.00    +0.000 C 
ATOM      5  C   UNL     1       6.910   5.090  15.996  0.00  0.00    +0.000 C 
ATOM      6  C   UNL     1       7.704   4.845  17.276  0.00  0.00    +0.000 C 
ATOM      7  C   UNL     1       6.797   4.256  18.348  0.00  0.00    +0.000 C 
ATOM      8  C   UNL     1       5.555   5.134  18.578  0.00  0.00    +0.000 C 
ATOM      9  N   UNL     1       4.794   5.354  17.328  0.00  0.00    +0.000 NA
ATOM     10  C   UNL     1       5.682   5.980  16.318  0.00  0.00    +0.000 C 
ATOM     11  O   UNL     1       7.757   5.746  15.028  0.00  0.00    +0.000 OA
ATOM     12  C   UNL     1       7.431   5.265  13.785  0.00  0.00    +0.000 C 
ATOM     13  O   UNL     1       7.872   5.718  12.743  0.00  0.00    +0.000 OA
ENDBRANCH   1   9
BRANCH   1  14
ATOM     14  C   UNL     1       2.541   5.691  18.524  0.00  0.00    +0.000 A 
ATOM     15  C   UNL     1       1.943   4.425  18.379  0.00  0.00    +0.000 A 
ATOM     16  C   UNL     1       1.169   3.859  19.389  0.00  0.00    +0.000 A 
ATOM     17  C   UNL     1       0.935   4.570  20.554  0.00  0.00    +0.000 A 
ATOM     18  C   UNL     1       1.405   5.875  20.671  0.00  0.00    +0.000 A 
ATOM     19  C   UNL     1       2.157   6.469  19.641  0.00  0.00    +0.000 A 
BRANCH  19  20
ATOM     20  O   UNL     1       2.521   7.804  19.677  0.00  0.00    +0.000 OA
BRANCH  20  21
ATOM     21  C   UNL     1       1.410   8.714  19.525  0.00  0.00    +0.000 C 
BRANCH  21  22
ATOM     22  C   UNL     1       1.343   9.343  18.137  0.00  0.00    +0.000 C 
ATOM     23  O   UNL     1       2.300   9.464  17.387  0.00  0.00    +0.000 OA
BRANCH  22  24
ATOM     24  O   UNL     1       0.096   9.747  17.800  0.00  0.00    +0.000 OA
ATOM     25  H   UNL     1      -0.115   9.453  16.882  0.00  0.00    +0.000 HD
ENDBRANCH  22  24
ENDBRANCH  21  22
ENDBRANCH  20  21
ENDBRANCH  19  20
ENDBRANCH   1  14
TORSDOF 6
ENDMDL
MODEL 4
REMARK VINA RESULT:      -7.7      3.087      4.697
REMARK  Name = 
REMARK  7 active torsions:
REMARK  status: ('A' for Active; 'I' for Inactive)
REMARK    1  A    between atoms: C_1  and  N_2
REMARK    2  A    between atoms: N_8  and  C_9
REMARK    3  A    between atoms: C_9  and  C_10
REMARK    4  A    between atoms: C_15  and  O_16
REMARK    5  A    between atoms: O_16  and  C_17
REMARK    6  A    between atoms: C_17  and  C_18
REMARK    7  A    between atoms: C_18  and  O_20
REMARK                            x       y       z     vdW  Elec       q    Type
REMARK                         _______ _______ _______ _____ _____    ______ ____
ROOT
ATOM      1  C   UNL     1       2.234   8.312  18.204  0.00  0.00    +0.000 C 
ENDROOT
BRANCH   1   9
ATOM      2  C   UNL     1       1.322   3.162  21.056  0.00  0.00    +0.000 C 
ATOM      3  N   UNL     1       1.739   3.500  19.722  0.00  0.00    +0.000 N 
ATOM      4  C   UNL     1       2.965   4.175  19.430  0.00  0.00    +0.000 C 
ATOM      5  C   UNL     1       2.756   4.527  17.962  0.00  0.00    +0.000 C 
ATOM      6  C   UNL     1       4.045   4.499  17.145  0.00  0.00    +0.000 C 
ATOM      7  C   UNL     1       4.947   5.655  17.553  0.00  0.00    +0.000 C 
ATOM      8  C   UNL     1       4.211   7.003  17.455  0.00  0.00    +0.000 C 
ATOM      9  N   UNL     1       2.969   7.014  18.260  0.00  0.00    +0.000 NA
ATOM     10  C   UNL     1       2.083   5.915  17.807  0.00  0.00    +0.000 C 
ATOM     11  O   UNL     1       1.870   3.490  17.491  0.00  0.00    +0.000 OA
ATOM     12  C   UNL     1       1.202   2.978  18.574  0.00  0.00    +0.000 C 
ATOM     13  O   UNL     1       0.283   2.182  18.492  0.00  0.00    +0.000 OA
ENDBRANCH   1   9
BRANCH   1  14
ATOM     14  C   UNL     1       1.424   8.702  19.438  0.00  0.00    +0.000 A 
ATOM     15  C   UNL     1       1.729   8.158  20.701  0.00  0.00    +0.000 A 
ATOM     16  C   UNL     1       1.154   8.652  21.870  0.00  0.00    +0.000 A 
ATOM     17  C   UNL     1       0.221   9.673  21.798  0.00  0.00    +0.000 A 
ATOM     18  C   UNL     1      -0.195  10.140  20.554  0.00  0.00    +0.000 A 
ATOM     19  C   UNL     1       0.353   9.623  19.366  0.00  0.00    +0.000 A 
BRANCH  19  20
ATOM     20  O   UNL     1      -0.136   9.975  18.120  0.00  0.00    +0.000 OA
BRANCH  20  21
ATOM     21  C   UNL     1      -1.446  10.584  18.161  0.00  0.00    +0.000 C 
BRANCH  21  22
ATOM     22  C   UNL     1      -2.163  10.544  16.816  0.00  0.00    +0.000 C 
ATOM     23  O   UNL     1      -2.681   9.545  16.339  0.00  0.00    +0.000 OA
BRANCH  22  24
ATOM     24  O   UNL     1      -2.188  11.746  16.195  0.00  0.00    +0.000 OA
ATOM     25  H   UNL     1      -2.634  11.662  15.318  0.00  0.00    +0.000 HD
ENDBRANCH  22  24
ENDBRANCH  21  22
ENDBRANCH  20  21
ENDBRANCH  19  20
ENDBRANCH   1  14
TORSDOF 6
ENDMDL
MODEL 5
REMARK VINA RESULT:      -7.5      3.729      5.622
REMARK  Name = 
REMARK  7 active torsions:
REMARK  status: ('A' for Active; 'I' for Inactive)
REMARK    1  A    between atoms: C_1  and  N_2
REMARK    2  A    between atoms: N_8  and  C_9
REMARK    3  A    between atoms: C_9  and  C_10
REMARK    4  A    between atoms: C_15  and  O_16
REMARK    5  A    between atoms: O_16  and  C_17
REMARK    6  A    between atoms: C_17  and  C_18
REMARK    7  A    between atoms: C_18  and  O_20
REMARK                            x       y       z     vdW  Elec       q    Type
REMARK                         _______ _______ _______ _____ _____    ______ ____
ROOT
ATOM      1  C   UNL     1       3.661   6.124  17.454  0.00  0.00    +0.000 C 
ENDROOT
BRANCH   1   9
ATOM      2  C   UNL     1       5.979   3.403  12.689  0.00  0.00    +0.000 C 
ATOM      3  N   UNL     1       6.540   4.176  13.764  0.00  0.00    +0.000 N 
ATOM      4  C   UNL     1       6.514   3.754  15.130  0.00  0.00    +0.000 C 
ATOM      5  C   UNL     1       6.954   5.034  15.832  0.00  0.00    +0.000 C 
ATOM      6  C   UNL     1       7.784   4.779  17.088  0.00  0.00    +0.000 C 
ATOM      7  C   UNL     1       6.908   4.183  18.181  0.00  0.00    +0.000 C 
ATOM      8  C   UNL     1       5.674   5.060  18.454  0.00  0.00    +0.000 C 
ATOM      9  N   UNL     1       4.877   5.289  17.227  0.00  0.00    +0.000 NA
ATOM     10  C   UNL     1       5.736   5.922  16.197  0.00  0.00    +0.000 C 
ATOM     11  O   UNL     1       7.772   5.695  14.845  0.00  0.00    +0.000 OA
ATOM     12  C   UNL     1       7.410   5.224  13.609  0.00  0.00    +0.000 C 
ATOM     13  O   UNL     1       7.821   5.684  12.558  0.00  0.00    +0.000 OA
ENDBRANCH   1   9
BRANCH   1  14
ATOM     14  C   UNL     1       2.765   5.736  18.627  0.00  0.00    +0.000 A 
ATOM     15  C   UNL     1       2.547   6.628  19.694  0.00  0.00    +0.000 A 
ATOM     16  C   UNL     1       1.575   6.390  20.663  0.00  0.00    +0.000 A 
ATOM     17  C   UNL     1       0.827   5.225  20.613  0.00  0.00    +0.000 A 
ATOM     18  C   UNL     1       1.111   4.265  19.645  0.00  0.00    +0.000 A 
ATOM     19  C   UNL     1       2.116   4.481  18.684  0.00  0.00    +0.000 A 
BRANCH  19  20
ATOM     20  O   UNL     1       2.504   3.491  17.797  0.00  0.00    +0.000 OA
BRANCH  20  21
ATOM     21  C   UNL     1       2.451   2.159  18.354  0.00  0.00    +0.000 C 
BRANCH  21  22
ATOM     22  C   UNL     1       3.768   1.727  18.989  0.00  0.00    +0.000 C 
ATOM     23  O   UNL     1       4.264   2.251  19.974  0.00  0.00    +0.000 OA
BRANCH  22  24
ATOM     24  O   UNL     1       4.339   0.675  18.357  0.00  0.00    +0.000 OA
ATOM     25  H   UNL     1       4.568   0.924  17.430  0.00  0.00    +0.000 HD
ENDBRANCH  22  24
ENDBRANCH  21  22
ENDBRANCH  20  21
ENDBRANCH  19  20
ENDBRANCH   1  14
TORSDOF 6
ENDMDL
MODEL 6
REMARK VINA RESULT:      -7.4      0.931      1.047
REMARK  Name = 
REMARK  7 active torsions:
REMARK  status: ('A' for Active; 'I' for Inactive)
REMARK    1  A    between atoms: C_1  and  N_2
REMARK    2  A    between atoms: N_8  and  C_9
REMARK    3  A    between atoms: C_9  and  C_10
REMARK    4  A    between atoms: C_15  and  O_16
REMARK    5  A    between atoms: O_16  and  C_17
REMARK    6  A    between atoms: C_17  and  C_18
REMARK    7  A    between atoms: C_18  and  O_20
REMARK                            x       y       z     vdW  Elec       q    Type
REMARK                         _______ _______ _______ _____ _____    ______ ____
ROOT
ATOM      1  C   UNL     1       1.734   6.687  20.710  0.00  0.00    +0.000 C 
ENDROOT
BRANCH   1   9
ATOM      2  C   UNL     1       5.364   5.500  16.138  0.00  0.00    +0.000 C 
ATOM      3  N   UNL     1       5.052   4.817  17.364  0.00  0.00    +0.000 N 
ATOM      4  C   UNL     1       3.757   4.287  17.660  0.00  0.00    +0.000 C 
ATOM      5  C   UNL     1       3.914   3.959  19.140  0.00  0.00    +0.000 C 
ATOM      6  C   UNL     1       3.127   2.724  19.572  0.00  0.00    +0.000 C 
ATOM      7  C   UNL     1       1.634   3.019  19.538  0.00  0.00    +0.000 C 
ATOM      8  C   UNL     1       1.288   4.265  20.372  0.00  0.00    +0.000 C 
ATOM      9  N   UNL     1       2.054   5.453  19.934  0.00  0.00    +0.000 NA
ATOM     10  C   UNL     1       3.505   5.161  20.029  0.00  0.00    +0.000 C 
ATOM     11  O   UNL     1       5.326   3.697  19.279  0.00  0.00    +0.000 OA
ATOM     12  C   UNL     1       5.977   4.324  18.248  0.00  0.00    +0.000 C 
ATOM     13  O   UNL     1       7.190   4.408  18.159  0.00  0.00    +0.000 OA
ENDBRANCH   1   9
BRANCH   1  14
ATOM     14  C   UNL     1       1.667   7.997  19.928  0.00  0.00    +0.000 A 
ATOM     15  C   UNL     1       2.130   8.068  18.601  0.00  0.00    +0.000 A 
ATOM     16  C   UNL     1       1.887   9.180  17.798  0.00  0.00    +0.000 A 
ATOM     17  C   UNL     1       1.214  10.271  18.322  0.00  0.00    +0.000 A 
ATOM     18  C   UNL     1       0.860  10.280  19.668  0.00  0.00    +0.000 A 
ATOM     19  C   UNL     1       1.133   9.177  20.497  0.00  0.00    +0.000 A 
BRANCH  19  20
ATOM     20  O   UNL     1       0.910   9.214  21.863  0.00  0.00    +0.000 OA
BRANCH  20  21
ATOM     21  C   UNL     1      -0.472   9.435  22.220  0.00  0.00    +0.000 C 
BRANCH  21  22
ATOM     22  C   UNL     1      -0.731  10.841  22.750  0.00  0.00    +0.000 C 
ATOM     23  O   UNL     1       0.042  11.779  22.627  0.00  0.00    +0.000 OA
BRANCH  22  24
ATOM     24  O   UNL     1      -1.931  10.961  23.365  0.00  0.00    +0.000 OA
ATOM     25  H   UNL     1      -2.658  10.812  22.715  0.00  0.00    +0.000 HD
ENDBRANCH  22  24
ENDBRANCH  21  22
ENDBRANCH  20  21
ENDBRANCH  19  20
ENDBRANCH   1  14
TORSDOF 6
ENDMDL
MODEL 7
REMARK VINA RESULT:      -7.4      2.859      4.577
REMARK  Name = 
REMARK  7 active torsions:
REMARK  status: ('A' for Active; 'I' for Inactive)
REMARK    1  A    between atoms: C_1  and  N_2
REMARK    2  A    between atoms: N_8  and  C_9
REMARK    3  A    between atoms: C_9  and  C_10
REMARK    4  A    between atoms: C_15  and  O_16
REMARK    5  A    between atoms: O_16  and  C_17
REMARK    6  A    between atoms: C_17  and  C_18
REMARK    7  A    between atoms: C_18  and  O_20
REMARK                            x       y       z     vdW  Elec       q    Type
REMARK                         _______ _______ _______ _____ _____    ______ ____
ROOT
ATOM      1  C   UNL     1       2.179   8.328  18.253  0.00  0.00    +0.000 C 
ENDROOT
BRANCH   1   9
ATOM      2  C   UNL     1       1.327   3.144  21.063  0.00  0.00    +0.000 C 
ATOM      3  N   UNL     1       1.733   3.499  19.729  0.00  0.00    +0.000 N 
ATOM      4  C   UNL     1       2.952   4.186  19.436  0.00  0.00    +0.000 C 
ATOM      5  C   UNL     1       2.730   4.549  17.972  0.00  0.00    +0.000 C 
ATOM      6  C   UNL     1       4.013   4.539  17.146  0.00  0.00    +0.000 C 
ATOM      7  C   UNL     1       4.908   5.699  17.558  0.00  0.00    +0.000 C 
ATOM      8  C   UNL     1       4.162   7.042  17.478  0.00  0.00    +0.000 C 
ATOM      9  N   UNL     1       2.925   7.036  18.292  0.00  0.00    +0.000 NA
ATOM     10  C   UNL     1       2.044   5.933  17.835  0.00  0.00    +0.000 C 
ATOM     11  O   UNL     1       1.848   3.510  17.497  0.00  0.00    +0.000 OA
ATOM     12  C   UNL     1       1.192   2.983  18.580  0.00  0.00    +0.000 C 
ATOM     13  O   UNL     1       0.279   2.180  18.497  0.00  0.00    +0.000 OA
ENDBRANCH   1   9
BRANCH   1  14
ATOM     14  C   UNL     1       1.495   8.771  19.544  0.00  0.00    +0.000 A 
ATOM     15  C   UNL     1       1.512   7.948  20.686  0.00  0.00    +0.000 A 
ATOM     16  C   UNL     1       1.088   8.411  21.930  0.00  0.00    +0.000 A 
ATOM     17  C   UNL     1       0.590   9.698  22.049  0.00  0.00    +0.000 A 
ATOM     18  C   UNL     1       0.441  10.488  20.912  0.00  0.00    +0.000 A 
ATOM     19  C   UNL     1       0.832  10.016  19.646  0.00  0.00    +0.000 A 
BRANCH  19  20
ATOM     20  O   UNL     1       0.573  10.728  18.488  0.00  0.00    +0.000 OA
BRANCH  20  21
ATOM     21  C   UNL     1       0.674  12.160  18.651  0.00  0.00    +0.000 C 
BRANCH  21  22
ATOM     22  C   UNL     1       2.096  12.680  18.471  0.00  0.00    +0.000 C 
ATOM     23  O   UNL     1       2.682  13.382  19.281  0.00  0.00    +0.000 OA
BRANCH  22  24
ATOM     24  O   UNL     1       2.667  12.268  17.316  0.00  0.00    +0.000 OA
ATOM     25  H   UNL     1       2.120  11.556  16.906  0.00  0.00    +0.000 HD
ENDBRANCH  22  24
ENDBRANCH  21  22
ENDBRANCH  20  21
ENDBRANCH  19  20
ENDBRANCH   1  14
TORSDOF 6
ENDMDL
MODEL 8
REMARK VINA RESULT:      -7.3      3.077      6.854
REMARK  Name = 
REMARK  7 active torsions:
REMARK  status: ('A' for Active; 'I' for Inactive)
REMARK    1  A    between atoms: C_1  and  N_2
REMARK    2  A    between atoms: N_8  and  C_9
REMARK    3  A    between atoms: C_9  and  C_10
REMARK    4  A    between atoms: C_15  and  O_16
REMARK    5  A    between atoms: O_16  and  C_17
REMARK    6  A    between atoms: C_17  and  C_18
REMARK    7  A    between atoms: C_18  and  O_20
REMARK                            x       y       z     vdW  Elec       q    Type
REMARK                         _______ _______ _______ _____ _____    ______ ____
ROOT
ATOM      1  C   UNL     1       5.742   4.429  17.924  0.00  0.00    +0.000 C 
ENDROOT
BRANCH   1   9
ATOM      2  C   UNL     1       0.558   1.852  19.331  0.00  0.00    +0.000 C 
ATOM      3  N   UNL     1       1.250   3.021  19.805  0.00  0.00    +0.000 N 
ATOM      4  C   UNL     1       1.505   4.167  18.990  0.00  0.00    +0.000 C 
ATOM      5  C   UNL     1       2.484   4.933  19.871  0.00  0.00    +0.000 C 
ATOM      6  C   UNL     1       2.347   6.449  19.750  0.00  0.00    +0.000 C 
ATOM      7  C   UNL     1       2.830   6.909  18.382  0.00  0.00    +0.000 C 
ATOM      8  C   UNL     1       4.260   6.418  18.096  0.00  0.00    +0.000 C 
ATOM      9  N   UNL     1       4.372   4.946  18.210  0.00  0.00    +0.000 NA
ATOM     10  C   UNL     1       3.949   4.527  19.569  0.00  0.00    +0.000 C 
ATOM     11  O   UNL     1       2.123   4.526  21.208  0.00  0.00    +0.000 OA
ATOM     12  C   UNL     1       1.479   3.319  21.124  0.00  0.00    +0.000 C 
ATOM     13  O   UNL     1       1.167   2.644  22.090  0.00  0.00    +0.000 OA
ENDBRANCH   1   9
BRANCH   1  14
ATOM     14  C   UNL     1       6.199   4.450  16.467  0.00  0.00    +0.000 A 
ATOM     15  C   UNL     1       5.689   3.523  15.539  0.00  0.00    +0.000 A 
ATOM     16  C   UNL     1       5.920   3.652  14.171  0.00  0.00    +0.000 A 
ATOM     17  C   UNL     1       6.710   4.689  13.703  0.00  0.00    +0.000 A 
ATOM     18  C   UNL     1       7.332   5.543  14.609  0.00  0.00    +0.000 A 
ATOM     19  C   UNL     1       7.134   5.400  15.994  0.00  0.00    +0.000 A 
BRANCH  19  20
ATOM     20  O   UNL     1       7.843   6.150  16.917  0.00  0.00    +0.000 OA
BRANCH  20  21
ATOM     21  C   UNL     1       7.426   7.531  16.985  0.00  0.00    +0.000 C 
BRANCH  21  22
ATOM     22  C   UNL     1       8.159   8.321  18.065  0.00  0.00    +0.000 C 
ATOM     23  O   UNL     1       8.286   9.536  18.065  0.00  0.00    +0.000 OA
BRANCH  22  24
ATOM     24  O   UNL     1       8.649   7.536  19.052  0.00  0.00    +0.000 OA
ATOM     25  H   UNL     1       8.119   7.660  19.875  0.00  0.00    +0.000 HD
ENDBRANCH  22  24
ENDBRANCH  21  22
ENDBRANCH  20  21
ENDBRANCH  19  20
ENDBRANCH   1  14
TORSDOF 6
ENDMDL
MODEL 9
REMARK VINA RESULT:      -7.3      2.883      4.547
REMARK  Name = 
REMARK  7 active torsions:
REMARK  status: ('A' for Active; 'I' for Inactive)
REMARK    1  A    between atoms: C_1  and  N_2
REMARK    2  A    between atoms: N_8  and  C_9
REMARK    3  A    between atoms: C_9  and  C_10
REMARK    4  A    between atoms: C_15  and  O_16
REMARK    5  A    between atoms: O_16  and  C_17
REMARK    6  A    between atoms: C_17  and  C_18
REMARK    7  A    between atoms: C_18  and  O_20
REMARK                            x       y       z     vdW  Elec       q    Type
REMARK                         _______ _______ _______ _____ _____    ______ ____
ROOT
ATOM      1  C   UNL     1       2.175   8.434  18.222  0.00  0.00    +0.000 C 
ENDROOT
BRANCH   1   9
ATOM      2  C   UNL     1       1.329   3.263  21.056  0.00  0.00    +0.000 C 
ATOM      3  N   UNL     1       1.739   3.611  19.722  0.00  0.00    +0.000 N 
ATOM      4  C   UNL     1       2.957   4.300  19.429  0.00  0.00    +0.000 C 
ATOM      5  C   UNL     1       2.739   4.656  17.963  0.00  0.00    +0.000 C 
ATOM      6  C   UNL     1       4.026   4.645  17.142  0.00  0.00    +0.000 C 
ATOM      7  C   UNL     1       4.916   5.811  17.552  0.00  0.00    +0.000 C 
ATOM      8  C   UNL     1       4.165   7.151  17.462  0.00  0.00    +0.000 C 
ATOM      9  N   UNL     1       2.925   7.144  18.271  0.00  0.00    +0.000 NA
ATOM     10  C   UNL     1       2.050   6.037  17.816  0.00  0.00    +0.000 C 
ATOM     11  O   UNL     1       1.863   3.611  17.490  0.00  0.00    +0.000 OA
ATOM     12  C   UNL     1       1.204   3.088  18.573  0.00  0.00    +0.000 C 
ATOM     13  O   UNL     1       0.294   2.281  18.491  0.00  0.00    +0.000 OA
ENDBRANCH   1   9
BRANCH   1  14
ATOM     14  C   UNL     1       1.488   8.883  19.508  0.00  0.00    +0.000 A 
ATOM     15  C   UNL     1       1.470   8.051  20.644  0.00  0.00    +0.000 A 
ATOM     16  C   UNL     1       1.043   8.514  21.886  0.00  0.00    +0.000 A 
ATOM     17  C   UNL     1       0.578   9.812  22.012  0.00  0.00    +0.000 A 
ATOM     18  C   UNL     1       0.463  10.615  20.880  0.00  0.00    +0.000 A 
ATOM     19  C   UNL     1       0.857  10.144  19.614  0.00  0.00    +0.000 A 
BRANCH  19  20
ATOM     20  O   UNL     1       0.630  10.873  18.459  0.00  0.00    +0.000 OA
BRANCH  20  21
ATOM     21  C   UNL     1       0.940  12.278  18.589  0.00  0.00    +0.000 C 
BRANCH  21  22
ATOM     22  C   UNL     1      -0.259  13.179  18.308  0.00  0.00    +0.000 C 
ATOM     23  O   UNL     1      -0.395  14.307  18.757  0.00  0.00    +0.000 OA
BRANCH  22  24
ATOM     24  O   UNL     1      -1.167  12.608  17.483  0.00  0.00    +0.000 OA
ATOM     25  H   UNL     1      -1.940  12.286  18.005  0.00  0.00    +0.000 HD
ENDBRANCH  22  24
ENDBRANCH  21  22
ENDBRANCH  20  21
ENDBRANCH  19  20
ENDBRANCH   1  14
TORSDOF 6
ENDMDL
