MODEL 1
REMARK VINA RESULT:      -7.0      0.000      0.000
REMARK  Name = 
REMARK  2 active torsions:
REMARK  status: ('A' for Active; 'I' for Inactive)
REMARK    1  A    between atoms: C_1  and  C_2
REMARK    2  A    between atoms: C_4  and  C_5
REMARK                            x       y       z     vdW  Elec       q    Type
REMARK                         _______ _______ _______ _____ _____    ______ ____
ROOT
ATOM      1  C   UNL     1       5.161   2.961  12.398  0.00  0.00    +0.000 C 
ATOM      2  C   UNL     1       6.149   3.831  13.106  0.00  0.00    +0.000 A 
ATOM      3  C   UNL     1       7.118   4.544  12.446  0.00  0.00    +0.000 A 
ATOM      4  C   UNL     1       7.944   5.322  13.233  0.00  0.00    +0.000 A 
ATOM      5  C   UNL     1       9.034   6.142  12.608  0.00  0.00    +0.000 C 
ATOM      6  N   UNL     1       7.809   5.408  14.577  0.00  0.00    +0.000 NA
ATOM      7  C   UNL     1       6.826   4.695  15.147  0.00  0.00    +0.000 A 
ATOM      8  N   UNL     1       6.644   4.849  16.521  0.00  0.00    +0.000 N 
ATOM      9  C   UNL     1       5.505   4.585  17.203  0.00  0.00    +0.000 A 
ATOM     10  N   UNL     1       5.180   5.249  18.297  0.00  0.00    +0.000 NA
ATOM     11  C   UNL     1       3.910   4.894  18.732  0.00  0.00    +0.000 A 
ATOM     12  C   UNL     1       3.211   5.452  19.823  0.00  0.00    +0.000 A 
ATOM     13  C   UNL     1       1.909   5.022  20.107  0.00  0.00    +0.000 A 
ATOM     14  C   UNL     1       1.296   4.050  19.323  0.00  0.00    +0.000 A 
ATOM     15  C   UNL     1       1.975   3.468  18.252  0.00  0.00    +0.000 A 
ATOM     16  C   UNL     1       3.283   3.900  17.986  0.00  0.00    +0.000 A 
ATOM     17  S   UNL     1       4.363   3.352  16.786  0.00  0.00    +0.000 S 
ATOM     18  N   UNL     1       6.011   3.902  14.440  0.00  0.00    +0.000 NA
ATOM     19  H   UNL     1       7.211   5.618  16.848  0.00  0.00    +0.000 HD
ENDROOT
TORSDOF 0
ENDMDL
MODEL 2
REMARK VINA RESULT:      -7.0      5.170      7.959
REMARK  Name = 
REMARK  2 active torsions:
REMARK  status: ('A' for Active; 'I' for Inactive)
REMARK    1  A    between atoms: C_1  and  C_2
REMARK    2  A    between atoms: C_4  and  C_5
REMARK                            x       y       z     vdW  Elec       q    Type
REMARK                         _______ _______ _______ _____ _____    ______ ____
ROOT
ATOM      1  C   UNL     1       1.453  10.340  17.986  0.00  0.00    +0.000 C 
ATOM      2  C   UNL     1       1.105   9.947  19.385  0.00  0.00    +0.000 A 
ATOM      3  C   UNL     1       0.361  10.745  20.218  0.00  0.00    +0.000 A 
ATOM      4  C   UNL     1       0.099  10.237  21.475  0.00  0.00    +0.000 A 
ATOM      5  C   UNL     1      -0.708  11.030  22.460  0.00  0.00    +0.000 C 
ATOM      6  N   UNL     1       0.524   9.017  21.876  0.00  0.00    +0.000 NA
ATOM      7  C   UNL     1       1.231   8.289  20.999  0.00  0.00    +0.000 A 
ATOM      8  N   UNL     1       1.598   7.001  21.391  0.00  0.00    +0.000 N 
ATOM      9  C   UNL     1       1.916   5.982  20.560  0.00  0.00    +0.000 A 
ATOM     10  N   UNL     1       1.689   4.723  20.887  0.00  0.00    +0.000 NA
ATOM     11  C   UNL     1       1.972   3.877  19.822  0.00  0.00    +0.000 A 
ATOM     12  C   UNL     1       1.778   2.480  19.787  0.00  0.00    +0.000 A 
ATOM     13  C   UNL     1       2.064   1.768  18.615  0.00  0.00    +0.000 A 
ATOM     14  C   UNL     1       2.536   2.425  17.484  0.00  0.00    +0.000 A 
ATOM     15  C   UNL     1       2.757   3.803  17.501  0.00  0.00    +0.000 A 
ATOM     16  C   UNL     1       2.477   4.501  18.685  0.00  0.00    +0.000 A 
ATOM     17  S   UNL     1       2.683   6.161  19.018  0.00  0.00    +0.000 S 
ATOM     18  N   UNL     1       1.539   8.738  19.776  0.00  0.00    +0.000 NA
ATOM     19  H   UNL     1       1.123   6.767  22.251  0.00  0.00    +0.000 HD
ENDROOT
TORSDOF 0
ENDMDL
MODEL 3
REMARK VINA RESULT:      -6.5      4.698      7.369
REMARK  Name = 
REMARK  2 active torsions:
REMARK  status: ('A' for Active; 'I' for Inactive)
REMARK    1  A    between atoms: C_1  and  C_2
REMARK    2  A    between atoms: C_4  and  C_5
REMARK                            x       y       z     vdW  Elec       q    Type
REMARK                         _______ _______ _______ _____ _____    ______ ____
ROOT
ATOM      1  C   UNL     1       2.065   3.743  21.694  0.00  0.00    +0.000 C 
ATOM      2  C   UNL     1       2.316   4.365  20.358  0.00  0.00    +0.000 A 
ATOM      3  C   UNL     1       2.571   3.626  19.230  0.00  0.00    +0.000 A 
ATOM      4  C   UNL     1       2.759   4.339  18.063  0.00  0.00    +0.000 A 
ATOM      5  C   UNL     1       3.041   3.625  16.774  0.00  0.00    +0.000 C 
ATOM      6  N   UNL     1       2.680   5.690  18.009  0.00  0.00    +0.000 NA
ATOM      7  C   UNL     1       2.409   6.340  19.151  0.00  0.00    +0.000 A 
ATOM      8  N   UNL     1       2.252   7.724  19.071  0.00  0.00    +0.000 N 
ATOM      9  C   UNL     1       1.583   8.496  19.959  0.00  0.00    +0.000 A 
ATOM     10  N   UNL     1       0.976   9.609  19.591  0.00  0.00    +0.000 NA
ATOM     11  C   UNL     1       0.249  10.147  20.645  0.00  0.00    +0.000 A 
ATOM     12  C   UNL     1      -0.579  11.288  20.597  0.00  0.00    +0.000 A 
ATOM     13  C   UNL     1      -1.293  11.678  21.737  0.00  0.00    +0.000 A 
ATOM     14  C   UNL     1      -1.195  10.950  22.919  0.00  0.00    +0.000 A 
ATOM     15  C   UNL     1      -0.365   9.831  22.998  0.00  0.00    +0.000 A 
ATOM     16  C   UNL     1       0.353   9.459  21.851  0.00  0.00    +0.000 A 
ATOM     17  S   UNL     1       1.462   8.179  21.657  0.00  0.00    +0.000 S 
ATOM     18  N   UNL     1       2.244   5.704  20.317  0.00  0.00    +0.000 NA
ATOM     19  H   UNL     1       2.220   8.001  18.101  0.00  0.00    +0.000 HD
ENDROOT
TORSDOF 0
ENDMDL
MODEL 4
REMARK VINA RESULT:      -6.4     10.949     13.111
REMARK  Name = 
REMARK  2 active torsions:
REMARK  status: ('A' for Active; 'I' for Inactive)
REMARK    1  A    between atoms: C_1  and  C_2
REMARK    2  A    between atoms: C_4  and  C_5
REMARK                            x       y       z     vdW  Elec       q    Type
REMARK                         _______ _______ _______ _____ _____    ______ ____
ROOT
ATOM      1  C   UNL     1      -0.952  10.542  18.897  0.00  0.00    +0.000 C 
ATOM      2  C   UNL     1      -2.095  10.780  17.964  0.00  0.00    +0.000 A 
ATOM      3  C   UNL     1      -2.161  10.222  16.712  0.00  0.00    +0.000 A 
ATOM      4  C   UNL     1      -3.290  10.513  15.973  0.00  0.00    +0.000 A 
ATOM      5  C   UNL     1      -3.460   9.951  14.593  0.00  0.00    +0.000 C 
ATOM      6  N   UNL     1      -4.296  11.286  16.446  0.00  0.00    +0.000 NA
ATOM      7  C   UNL     1      -4.167  11.780  17.687  0.00  0.00    +0.000 A 
ATOM      8  N   UNL     1      -5.242  12.509  18.196  0.00  0.00    +0.000 N 
ATOM      9  C   UNL     1      -5.504  12.721  19.506  0.00  0.00    +0.000 A 
ATOM     10  N   UNL     1      -6.737  12.876  19.952  0.00  0.00    +0.000 NA
ATOM     11  C   UNL     1      -6.757  12.940  21.339  0.00  0.00    +0.000 A 
ATOM     12  C   UNL     1      -7.903  13.030  22.157  0.00  0.00    +0.000 A 
ATOM     13  C   UNL     1      -7.763  13.034  23.551  0.00  0.00    +0.000 A 
ATOM     14  C   UNL     1      -6.504  12.949  24.137  0.00  0.00    +0.000 A 
ATOM     15  C   UNL     1      -5.355  12.882  23.349  0.00  0.00    +0.000 A 
ATOM     16  C   UNL     1      -5.510  12.890  21.954  0.00  0.00    +0.000 A 
ATOM     17  S   UNL     1      -4.305  12.860  20.748  0.00  0.00    +0.000 S 
ATOM     18  N   UNL     1      -3.083  11.554  18.440  0.00  0.00    +0.000 NA
ATOM     19  H   UNL     1      -6.032  12.414  17.575  0.00  0.00    +0.000 HD
ENDROOT
TORSDOF 0
ENDMDL
MODEL 5
REMARK VINA RESULT:      -6.2      4.705      8.174
REMARK  Name = 
REMARK  2 active torsions:
REMARK  status: ('A' for Active; 'I' for Inactive)
REMARK    1  A    between atoms: C_1  and  C_2
REMARK    2  A    between atoms: C_4  and  C_5
REMARK                            x       y       z     vdW  Elec       q    Type
REMARK                         _______ _______ _______ _____ _____    ______ ____
ROOT
ATOM      1  C   UNL     1       0.648   9.248  22.519  0.00  0.00    +0.000 C 
ATOM      2  C   UNL     1       0.654   9.912  21.180  0.00  0.00    +0.000 A 
ATOM      3  C   UNL     1       0.260  11.213  20.994  0.00  0.00    +0.000 A 
ATOM      4  C   UNL     1       0.343  11.697  19.703  0.00  0.00    +0.000 A 
ATOM      5  C   UNL     1      -0.061  13.108  19.394  0.00  0.00    +0.000 C 
ATOM      6  N   UNL     1       0.803  10.953  18.670  0.00  0.00    +0.000 NA
ATOM      7  C   UNL     1       1.186   9.695  18.936  0.00  0.00    +0.000 A 
ATOM      8  N   UNL     1       1.732   8.961  17.882  0.00  0.00    +0.000 N 
ATOM      9  C   UNL     1       2.544   7.886  18.004  0.00  0.00    +0.000 A 
ATOM     10  N   UNL     1       3.460   7.600  17.097  0.00  0.00    +0.000 NA
ATOM     11  C   UNL     1       4.253   6.538  17.512  0.00  0.00    +0.000 A 
ATOM     12  C   UNL     1       5.371   6.011  16.832  0.00  0.00    +0.000 A 
ATOM     13  C   UNL     1       6.104   4.965  17.407  0.00  0.00    +0.000 A 
ATOM     14  C   UNL     1       5.742   4.441  18.644  0.00  0.00    +0.000 A 
ATOM     15  C   UNL     1       4.627   4.931  19.325  0.00  0.00    +0.000 A 
ATOM     16  C   UNL     1       3.895   5.971  18.732  0.00  0.00    +0.000 A 
ATOM     17  S   UNL     1       2.481   6.737  19.298  0.00  0.00    +0.000 S 
ATOM     18  N   UNL     1       1.104   9.162  20.162  0.00  0.00    +0.000 NA
ATOM     19  H   UNL     1       1.892   9.575  17.096  0.00  0.00    +0.000 HD
ENDROOT
TORSDOF 0
ENDMDL
MODEL 6
REMARK VINA RESULT:      -6.2      4.453      6.838
REMARK  Name = 
REMARK  2 active torsions:
REMARK  status: ('A' for Active; 'I' for Inactive)
REMARK    1  A    between atoms: C_1  and  C_2
REMARK    2  A    between atoms: C_4  and  C_5
REMARK                            x       y       z     vdW  Elec       q    Type
REMARK                         _______ _______ _______ _____ _____    ______ ____
ROOT
ATOM      1  C   UNL     1       1.582   3.354  21.697  0.00  0.00    +0.000 C 
ATOM      2  C   UNL     1       2.237   3.664  20.390  0.00  0.00    +0.000 A 
ATOM      3  C   UNL     1       2.645   2.690  19.514  0.00  0.00    +0.000 A 
ATOM      4  C   UNL     1       3.212   3.130  18.334  0.00  0.00    +0.000 A 
ATOM      5  C   UNL     1       3.689   2.144  17.308  0.00  0.00    +0.000 C 
ATOM      6  N   UNL     1       3.349   4.441  18.031  0.00  0.00    +0.000 NA
ATOM      7  C   UNL     1       2.909   5.334  18.931  0.00  0.00    +0.000 A 
ATOM      8  N   UNL     1       2.981   6.682  18.577  0.00  0.00    +0.000 N 
ATOM      9  C   UNL     1       2.239   7.680  19.110  0.00  0.00    +0.000 A 
ATOM     10  N   UNL     1       1.910   8.750  18.409  0.00  0.00    +0.000 NA
ATOM     11  C   UNL     1       1.037   9.559  19.124  0.00  0.00    +0.000 A 
ATOM     12  C   UNL     1       0.423  10.743  18.664  0.00  0.00    +0.000 A 
ATOM     13  C   UNL     1      -0.480  11.425  19.490  0.00  0.00    +0.000 A 
ATOM     14  C   UNL     1      -0.778  10.946  20.762  0.00  0.00    +0.000 A 
ATOM     15  C   UNL     1      -0.166   9.790  21.248  0.00  0.00    +0.000 A 
ATOM     16  C   UNL     1       0.744   9.124  20.414  0.00  0.00    +0.000 A 
ATOM     17  S   UNL     1       1.666   7.728  20.743  0.00  0.00    +0.000 S 
ATOM     18  N   UNL     1       2.375   4.968  20.103  0.00  0.00    +0.000 NA
ATOM     19  H   UNL     1       3.226   6.757  17.600  0.00  0.00    +0.000 HD
ENDROOT
TORSDOF 0
ENDMDL
MODEL 7
REMARK VINA RESULT:      -6.1      1.948      3.194
REMARK  Name = 
REMARK  2 active torsions:
REMARK  status: ('A' for Active; 'I' for Inactive)
REMARK    1  A    between atoms: C_1  and  C_2
REMARK    2  A    between atoms: C_4  and  C_5
REMARK                            x       y       z     vdW  Elec       q    Type
REMARK                         _______ _______ _______ _____ _____    ______ ____
ROOT
ATOM      1  C   UNL     1       7.519   6.715  17.319  0.00  0.00    +0.000 C 
ATOM      2  C   UNL     1       6.833   5.840  16.320  0.00  0.00    +0.000 A 
ATOM      3  C   UNL     1       7.421   5.454  15.142  0.00  0.00    +0.000 A 
ATOM      4  C   UNL     1       6.673   4.624  14.330  0.00  0.00    +0.000 A 
ATOM      5  C   UNL     1       7.226   4.144  13.021  0.00  0.00    +0.000 C 
ATOM      6  N   UNL     1       5.437   4.188  14.668  0.00  0.00    +0.000 NA
ATOM      7  C   UNL     1       4.938   4.595  15.845  0.00  0.00    +0.000 A 
ATOM      8  N   UNL     1       3.697   4.079  16.221  0.00  0.00    +0.000 N 
ATOM      9  C   UNL     1       3.221   4.007  17.486  0.00  0.00    +0.000 A 
ATOM     10  N   UNL     1       2.389   3.052  17.861  0.00  0.00    +0.000 NA
ATOM     11  C   UNL     1       2.155   3.110  19.229  0.00  0.00    +0.000 A 
ATOM     12  C   UNL     1       1.379   2.208  19.986  0.00  0.00    +0.000 A 
ATOM     13  C   UNL     1       1.280   2.370  21.373  0.00  0.00    +0.000 A 
ATOM     14  C   UNL     1       1.940   3.414  22.014  0.00  0.00    +0.000 A 
ATOM     15  C   UNL     1       2.695   4.333  21.284  0.00  0.00    +0.000 A 
ATOM     16  C   UNL     1       2.777   4.164  19.894  0.00  0.00    +0.000 A 
ATOM     17  S   UNL     1       3.581   5.137  18.748  0.00  0.00    +0.000 S 
ATOM     18  N   UNL     1       5.604   5.421  16.661  0.00  0.00    +0.000 NA
ATOM     19  H   UNL     1       3.438   3.338  15.586  0.00  0.00    +0.000 HD
ENDROOT
TORSDOF 0
ENDMDL
MODEL 8
REMARK VINA RESULT:      -6.0      4.702      6.978
REMARK  Name = 
REMARK  2 active torsions:
REMARK  status: ('A' for Active; 'I' for Inactive)
REMARK    1  A    between atoms: C_1  and  C_2
REMARK    2  A    between atoms: C_4  and  C_5
REMARK                            x       y       z     vdW  Elec       q    Type
REMARK                         _______ _______ _______ _____ _____    ______ ____
ROOT
ATOM      1  C   UNL     1       2.095   4.363  21.212  0.00  0.00    +0.000 C 
ATOM      2  C   UNL     1       2.628   4.813  19.891  0.00  0.00    +0.000 A 
ATOM      3  C   UNL     1       3.141   3.943  18.961  0.00  0.00    +0.000 A 
ATOM      4  C   UNL     1       3.574   4.503  17.775  0.00  0.00    +0.000 A 
ATOM      5  C   UNL     1       4.149   3.637  16.693  0.00  0.00    +0.000 C 
ATOM      6  N   UNL     1       3.488   5.828  17.516  0.00  0.00    +0.000 NA
ATOM      7  C   UNL     1       2.958   6.612  18.468  0.00  0.00    +0.000 A 
ATOM      8  N   UNL     1       2.799   7.964  18.162  0.00  0.00    +0.000 N 
ATOM      9  C   UNL     1       1.936   8.815  18.764  0.00  0.00    +0.000 A 
ATOM     10  N   UNL     1       1.409   9.840  18.120  0.00  0.00    +0.000 NA
ATOM     11  C   UNL     1       0.456  10.478  18.902  0.00  0.00    +0.000 A 
ATOM     12  C   UNL     1      -0.359  11.562  18.514  0.00  0.00    +0.000 A 
ATOM     13  C   UNL     1      -1.316  12.067  19.403  0.00  0.00    +0.000 A 
ATOM     14  C   UNL     1      -1.473  11.508  20.668  0.00  0.00    +0.000 A 
ATOM     15  C   UNL     1      -0.664  10.450  21.083  0.00  0.00    +0.000 A 
ATOM     16  C   UNL     1       0.298   9.962  20.186  0.00  0.00    +0.000 A 
ATOM     17  S   UNL     1       1.443   8.721  20.422  0.00  0.00    +0.000 S 
ATOM     18  N   UNL     1       2.545   6.130  19.647  0.00  0.00    +0.000 NA
ATOM     19  H   UNL     1       2.981   8.107  17.179  0.00  0.00    +0.000 HD
ENDROOT
TORSDOF 0
ENDMDL
MODEL 9
REMARK VINA RESULT:      -6.0      7.825     10.133
REMARK  Name = 
REMARK  2 active torsions:
REMARK  status: ('A' for Active; 'I' for Inactive)
REMARK    1  A    between atoms: C_1  and  C_2
REMARK    2  A    between atoms: C_4  and  C_5
REMARK                            x       y       z     vdW  Elec       q    Type
REMARK                         _______ _______ _______ _____ _____    ______ ____
ROOT
ATOM      1  C   UNL     1       0.602   9.239  22.104  0.00  0.00    +0.000 C 
ATOM      2  C   UNL     1       0.917   9.086  20.651  0.00  0.00    +0.000 A 
ATOM      3  C   UNL     1       1.846   8.191  20.183  0.00  0.00    +0.000 A 
ATOM      4  C   UNL     1       2.012   8.145  18.813  0.00  0.00    +0.000 A 
ATOM      5  C   UNL     1       3.002   7.199  18.199  0.00  0.00    +0.000 C 
ATOM      6  N   UNL     1       1.294   8.914  17.961  0.00  0.00    +0.000 NA
ATOM      7  C   UNL     1       0.391   9.751  18.495  0.00  0.00    +0.000 A 
ATOM      8  N   UNL     1      -0.400  10.482  17.608  0.00  0.00    +0.000 N 
ATOM      9  C   UNL     1      -1.604  11.031  17.890  0.00  0.00    +0.000 A 
ATOM     10  N   UNL     1      -2.533  11.181  16.963  0.00  0.00    +0.000 NA
ATOM     11  C   UNL     1      -3.720  11.634  17.522  0.00  0.00    +0.000 A 
ATOM     12  C   UNL     1      -4.942  11.837  16.846  0.00  0.00    +0.000 A 
ATOM     13  C   UNL     1      -6.072  12.251  17.562  0.00  0.00    +0.000 A 
ATOM     14  C   UNL     1      -6.003  12.464  18.935  0.00  0.00    +0.000 A 
ATOM     15  C   UNL     1      -4.801  12.292  19.622  0.00  0.00    +0.000 A 
ATOM     16  C   UNL     1      -3.674  11.888  18.890  0.00  0.00    +0.000 A 
ATOM     17  S   UNL     1      -2.080  11.638  19.440  0.00  0.00    +0.000 S 
ATOM     18  N   UNL     1       0.205   9.859  19.817  0.00  0.00    +0.000 NA
ATOM     19  H   UNL     1      -0.256  10.136  16.671  0.00  0.00    +0.000 HD
ENDROOT
TORSDOF 0
ENDMDL
