MODEL 1
REMARK VINA RESULT:      -8.1      0.000      0.000
REMARK  Name = 
REMARK  3 active torsions:
REMARK  status: ('A' for Active; 'I' for Inactive)
REMARK    1  A    between atoms: C_2  and  C_3
REMARK    2  A    between atoms: C_2  and  C_13
REMARK    3  A    between atoms: C_4  and  C_5
REMARK                            x       y       z     vdW  Elec       q    Type
REMARK                         _______ _______ _______ _____ _____    ______ ____
ROOT
ATOM      1  O   UNL     1       3.475   3.364  18.848  0.00  0.00    +0.000 OA
ATOM      2  C   UNL     1       3.877   4.520  18.825  0.00  0.00    +0.000 C 
ENDROOT
BRANCH   2   3
ATOM      3  C   UNL     1       5.251   4.864  18.347  0.00  0.00    +0.000 A 
ATOM      4  C   UNL     1       6.190   5.275  19.299  0.00  0.00    +0.000 A 
ATOM      5  C   UNL     1       7.462   5.576  18.868  0.00  0.00    +0.000 A 
ATOM      6  N   UNL     1       7.852   5.483  17.585  0.00  0.00    +0.000 NA
ATOM      7  C   UNL     1       6.966   5.063  16.669  0.00  0.00    +0.000 A 
ATOM      8  C   UNL     1       7.406   4.949  15.358  0.00  0.00    +0.000 A 
ATOM      9  C   UNL     1       6.569   4.518  14.329  0.00  0.00    +0.000 A 
ATOM     10  C   UNL     1       5.251   4.198  14.613  0.00  0.00    +0.000 A 
ATOM     11  C   UNL     1       4.783   4.311  15.922  0.00  0.00    +0.000 A 
ATOM     12  C   UNL     1       5.628   4.732  16.983  0.00  0.00    +0.000 A 
ENDBRANCH   2   3
BRANCH   2  13
ATOM     13  C   UNL     1       3.020   5.649  19.295  0.00  0.00    +0.000 C 
ATOM     14  C   UNL     1       2.936   6.773  18.566  0.00  0.00    +0.000 C 
BRANCH  14  15
ATOM     15  C   UNL     1       2.098   7.931  18.918  0.00  0.00    +0.000 A 
ATOM     16  C   UNL     1       1.685   8.874  17.969  0.00  0.00    +0.000 A 
ATOM     17  C   UNL     1       0.864   9.945  18.337  0.00  0.00    +0.000 A 
ATOM     18  C   UNL     1       0.434  10.081  19.657  0.00  0.00    +0.000 A 
ATOM     19 CL   UNL     1      -0.586  11.422  20.037  0.00  0.00    +0.000 Cl
ATOM     20  C   UNL     1       0.829   9.139  20.612  0.00  0.00    +0.000 A 
ATOM     21 CL   UNL     1       0.331   9.236  22.265  0.00  0.00    +0.000 Cl
ATOM     22  C   UNL     1       1.653   8.069  20.241  0.00  0.00    +0.000 A 
ENDBRANCH  14  15
ENDBRANCH   2  13
TORSDOF 3
ENDMDL
MODEL 2
REMARK VINA RESULT:      -7.6      4.243      8.083
REMARK  Name = 
REMARK  3 active torsions:
REMARK  status: ('A' for Active; 'I' for Inactive)
REMARK    1  A    between atoms: C_2  and  C_3
REMARK    2  A    between atoms: C_2  and  C_13
REMARK    3  A    between atoms: C_4  and  C_5
REMARK                            x       y       z     vdW  Elec       q    Type
REMARK                         _______ _______ _______ _____ _____    ______ ____
ROOT
ATOM      1  O   UNL     1       2.457  10.569  17.611  0.00  0.00    +0.000 OA
ATOM      2  C   UNL     1       1.620   9.870  18.169  0.00  0.00    +0.000 C 
ENDROOT
BRANCH   2   3
ATOM      3  C   UNL     1       0.560  10.460  19.041  0.00  0.00    +0.000 A 
ATOM      4  C   UNL     1      -0.376  11.312  18.446  0.00  0.00    +0.000 A 
ATOM      5  C   UNL     1      -1.367  11.844  19.240  0.00  0.00    +0.000 A 
ATOM      6  N   UNL     1      -1.489  11.579  20.552  0.00  0.00    +0.000 NA
ATOM      7  C   UNL     1      -0.612  10.741  21.126  0.00  0.00    +0.000 A 
ATOM      8  C   UNL     1      -0.782  10.462  22.474  0.00  0.00    +0.000 A 
ATOM      9  C   UNL     1       0.070   9.602  23.168  0.00  0.00    +0.000 A 
ATOM     10  C   UNL     1       1.127   9.006  22.499  0.00  0.00    +0.000 A 
ATOM     11  C   UNL     1       1.322   9.275  21.143  0.00  0.00    +0.000 A 
ATOM     12  C   UNL     1       0.454  10.136  20.422  0.00  0.00    +0.000 A 
ENDBRANCH   2   3
BRANCH   2  13
ATOM     13  C   UNL     1       1.628   8.384  18.023  0.00  0.00    +0.000 C 
ATOM     14  C   UNL     1       2.767   7.700  18.213  0.00  0.00    +0.000 C 
BRANCH  14  15
ATOM     15  C   UNL     1       2.881   6.235  18.128  0.00  0.00    +0.000 A 
ATOM     16  C   UNL     1       3.894   5.602  17.396  0.00  0.00    +0.000 A 
ATOM     17  C   UNL     1       3.986   4.208  17.363  0.00  0.00    +0.000 A 
ATOM     18  C   UNL     1       3.074   3.425  18.072  0.00  0.00    +0.000 A 
ATOM     19 CL   UNL     1       3.254   1.709  17.993  0.00  0.00    +0.000 Cl
ATOM     20  C   UNL     1       2.065   4.044  18.816  0.00  0.00    +0.000 A 
ATOM     21 CL   UNL     1       0.903   3.142  19.724  0.00  0.00    +0.000 Cl
ATOM     22  C   UNL     1       1.974   5.441  18.844  0.00  0.00    +0.000 A 
ENDBRANCH  14  15
ENDBRANCH   2  13
TORSDOF 3
ENDMDL
MODEL 3
REMARK VINA RESULT:      -7.6      4.282      8.136
REMARK  Name = 
REMARK  3 active torsions:
REMARK  status: ('A' for Active; 'I' for Inactive)
REMARK    1  A    between atoms: C_2  and  C_3
REMARK    2  A    between atoms: C_2  and  C_13
REMARK    3  A    between atoms: C_4  and  C_5
REMARK                            x       y       z     vdW  Elec       q    Type
REMARK                         _______ _______ _______ _____ _____    ______ ____
ROOT
ATOM      1  O   UNL     1       2.360  10.421  17.560  0.00  0.00    +0.000 OA
ATOM      2  C   UNL     1       1.502   9.818  18.192  0.00  0.00    +0.000 C 
ENDROOT
BRANCH   2   3
ATOM      3  C   UNL     1       0.379  10.532  18.871  0.00  0.00    +0.000 A 
ATOM      4  C   UNL     1       0.664  11.223  20.053  0.00  0.00    +0.000 A 
ATOM      5  C   UNL     1      -0.362  11.899  20.673  0.00  0.00    +0.000 A 
ATOM      6  N   UNL     1      -1.618  11.940  20.197  0.00  0.00    +0.000 NA
ATOM      7  C   UNL     1      -1.895  11.303  19.050  0.00  0.00    +0.000 A 
ATOM      8  C   UNL     1      -3.194  11.388  18.568  0.00  0.00    +0.000 A 
ATOM      9  C   UNL     1      -3.588  10.767  17.383  0.00  0.00    +0.000 A 
ATOM     10  C   UNL     1      -2.662  10.032  16.659  0.00  0.00    +0.000 A 
ATOM     11  C   UNL     1      -1.351   9.927  17.126  0.00  0.00    +0.000 A 
ATOM     12  C   UNL     1      -0.932  10.567  18.322  0.00  0.00    +0.000 A 
ENDBRANCH   2   3
BRANCH   2  13
ATOM     13  C   UNL     1       1.545   8.332  18.334  0.00  0.00    +0.000 C 
ATOM     14  C   UNL     1       2.669   7.664  18.030  0.00  0.00    +0.000 C 
BRANCH  14  15
ATOM     15  C   UNL     1       2.831   6.207  18.164  0.00  0.00    +0.000 A 
ATOM     16  C   UNL     1       3.806   5.492  17.456  0.00  0.00    +0.000 A 
ATOM     17  C   UNL     1       3.948   4.112  17.633  0.00  0.00    +0.000 A 
ATOM     18  C   UNL     1       3.127   3.429  18.530  0.00  0.00    +0.000 A 
ATOM     19 CL   UNL     1       3.367   1.728  18.705  0.00  0.00    +0.000 Cl
ATOM     20  C   UNL     1       2.159   4.133  19.253  0.00  0.00    +0.000 A 
ATOM     21 CL   UNL     1       1.110   3.358  20.387  0.00  0.00    +0.000 Cl
ATOM     22  C   UNL     1       2.017   5.514  19.071  0.00  0.00    +0.000 A 
ENDBRANCH  14  15
ENDBRANCH   2  13
TORSDOF 3
ENDMDL
MODEL 4
REMARK VINA RESULT:      -7.6      4.965      6.408
REMARK  Name = 
REMARK  3 active torsions:
REMARK  status: ('A' for Active; 'I' for Inactive)
REMARK    1  A    between atoms: C_2  and  C_3
REMARK    2  A    between atoms: C_2  and  C_13
REMARK    3  A    between atoms: C_4  and  C_5
REMARK                            x       y       z     vdW  Elec       q    Type
REMARK                         _______ _______ _______ _____ _____    ______ ____
ROOT
ATOM      1  O   UNL     1       8.347   5.808  19.062  0.00  0.00    +0.000 OA
ATOM      2  C   UNL     1       7.672   6.386  18.219  0.00  0.00    +0.000 C 
ENDROOT
BRANCH   2   3
ATOM      3  C   UNL     1       6.717   5.648  17.338  0.00  0.00    +0.000 A 
ATOM      4  C   UNL     1       7.118   5.371  16.027  0.00  0.00    +0.000 A 
ATOM      5  C   UNL     1       6.250   4.676  15.216  0.00  0.00    +0.000 A 
ATOM      6  N   UNL     1       5.046   4.238  15.621  0.00  0.00    +0.000 NA
ATOM      7  C   UNL     1       4.664   4.474  16.885  0.00  0.00    +0.000 A 
ATOM      8  C   UNL     1       3.428   3.984  17.283  0.00  0.00    +0.000 A 
ATOM      9  C   UNL     1       2.936   4.170  18.575  0.00  0.00    +0.000 A 
ATOM     10  C   UNL     1       3.696   4.872  19.498  0.00  0.00    +0.000 A 
ATOM     11  C   UNL     1       4.940   5.380  19.120  0.00  0.00    +0.000 A 
ATOM     12  C   UNL     1       5.459   5.184  17.813  0.00  0.00    +0.000 A 
ENDBRANCH   2   3
BRANCH   2  13
ATOM     13  C   UNL     1       7.784   7.860  18.013  0.00  0.00    +0.000 C 
ATOM     14  C   UNL     1       8.643   8.576  18.757  0.00  0.00    +0.000 C 
BRANCH  14  15
ATOM     15  C   UNL     1       8.857  10.025  18.615  0.00  0.00    +0.000 A 
ATOM     16  C   UNL     1       8.250  10.778  17.601  0.00  0.00    +0.000 A 
ATOM     17  C   UNL     1       8.455  12.158  17.517  0.00  0.00    +0.000 A 
ATOM     18  C   UNL     1       9.260  12.809  18.453  0.00  0.00    +0.000 A 
ATOM     19 CL   UNL     1       9.460  14.517  18.293  0.00  0.00    +0.000 Cl
ATOM     20  C   UNL     1       9.861  12.071  19.477  0.00  0.00    +0.000 A 
ATOM     21 CL   UNL     1      10.865  12.807  20.677  0.00  0.00    +0.000 Cl
ATOM     22  C   UNL     1       9.656  10.688  19.557  0.00  0.00    +0.000 A 
ENDBRANCH  14  15
ENDBRANCH   2  13
TORSDOF 3
ENDMDL
MODEL 5
REMARK VINA RESULT:      -7.5      0.872      1.584
REMARK  Name = 
REMARK  3 active torsions:
REMARK  status: ('A' for Active; 'I' for Inactive)
REMARK    1  A    between atoms: C_2  and  C_3
REMARK    2  A    between atoms: C_2  and  C_13
REMARK    3  A    between atoms: C_4  and  C_5
REMARK                            x       y       z     vdW  Elec       q    Type
REMARK                         _______ _______ _______ _____ _____    ______ ____
ROOT
ATOM      1  O   UNL     1       4.246   3.021  19.483  0.00  0.00    +0.000 OA
ATOM      2  C   UNL     1       4.393   4.228  19.339  0.00  0.00    +0.000 C 
ENDROOT
BRANCH   2   3
ATOM      3  C   UNL     1       5.570   4.794  18.614  0.00  0.00    +0.000 A 
ATOM      4  C   UNL     1       6.565   5.421  19.371  0.00  0.00    +0.000 A 
ATOM      5  C   UNL     1       7.661   5.928  18.710  0.00  0.00    +0.000 A 
ATOM      6  N   UNL     1       7.831   5.841  17.380  0.00  0.00    +0.000 NA
ATOM      7  C   UNL     1       6.895   5.218  16.648  0.00  0.00    +0.000 A 
ATOM      8  C   UNL     1       7.113   5.118  15.282  0.00  0.00    +0.000 A 
ATOM      9  C   UNL     1       6.207   4.487  14.429  0.00  0.00    +0.000 A 
ATOM     10  C   UNL     1       5.044   3.944  14.954  0.00  0.00    +0.000 A 
ATOM     11  C   UNL     1       4.799   4.037  16.324  0.00  0.00    +0.000 A 
ATOM     12  C   UNL     1       5.720   4.663  17.206  0.00  0.00    +0.000 A 
ENDBRANCH   2   3
BRANCH   2  13
ATOM     13  C   UNL     1       3.410   5.201  19.900  0.00  0.00    +0.000 C 
ATOM     14  C   UNL     1       3.181   6.362  19.265  0.00  0.00    +0.000 C 
BRANCH  14  15
ATOM     15  C   UNL     1       2.212   7.376  19.710  0.00  0.00    +0.000 A 
ATOM     16  C   UNL     1       1.585   7.316  20.962  0.00  0.00    +0.000 A 
ATOM     17  C   UNL     1       0.692   8.315  21.361  0.00  0.00    +0.000 A 
ATOM     18  C   UNL     1       0.422   9.395  20.520  0.00  0.00    +0.000 A 
ATOM     19 CL   UNL     1      -0.684  10.597  21.083  0.00  0.00    +0.000 Cl
ATOM     20  C   UNL     1       1.050   9.473  19.273  0.00  0.00    +0.000 A 
ATOM     21 CL   UNL     1       0.772  10.783  18.180  0.00  0.00    +0.000 Cl
ATOM     22  C   UNL     1       1.942   8.470  18.876  0.00  0.00    +0.000 A 
ENDBRANCH  14  15
ENDBRANCH   2  13
TORSDOF 3
ENDMDL
MODEL 6
REMARK VINA RESULT:      -7.5      2.463      3.411
REMARK  Name = 
REMARK  3 active torsions:
REMARK  status: ('A' for Active; 'I' for Inactive)
REMARK    1  A    between atoms: C_2  and  C_3
REMARK    2  A    between atoms: C_2  and  C_13
REMARK    3  A    between atoms: C_4  and  C_5
REMARK                            x       y       z     vdW  Elec       q    Type
REMARK                         _______ _______ _______ _____ _____    ______ ____
ROOT
ATOM      1  O   UNL     1       3.286   7.591  16.740  0.00  0.00    +0.000 OA
ATOM      2  C   UNL     1       3.176   7.150  17.877  0.00  0.00    +0.000 C 
ENDROOT
BRANCH   2   3
ATOM      3  C   UNL     1       3.866   5.894  18.302  0.00  0.00    +0.000 A 
ATOM      4  C   UNL     1       5.220   5.975  18.642  0.00  0.00    +0.000 A 
ATOM      5  C   UNL     1       5.857   4.825  19.052  0.00  0.00    +0.000 A 
ATOM      6  N   UNL     1       5.243   3.634  19.156  0.00  0.00    +0.000 NA
ATOM      7  C   UNL     1       3.937   3.552  18.859  0.00  0.00    +0.000 A 
ATOM      8  C   UNL     1       3.324   2.316  19.004  0.00  0.00    +0.000 A 
ATOM      9  C   UNL     1       1.971   2.121  18.727  0.00  0.00    +0.000 A 
ATOM     10  C   UNL     1       1.206   3.189  18.285  0.00  0.00    +0.000 A 
ATOM     11  C   UNL     1       1.801   4.441  18.125  0.00  0.00    +0.000 A 
ATOM     12  C   UNL     1       3.173   4.658  18.418  0.00  0.00    +0.000 A 
ENDBRANCH   2   3
BRANCH   2  13
ATOM     13  C   UNL     1       2.328   7.836  18.897  0.00  0.00    +0.000 C 
ATOM     14  C   UNL     1       1.727   8.997  18.594  0.00  0.00    +0.000 C 
BRANCH  14  15
ATOM     15  C   UNL     1       0.844   9.739  19.508  0.00  0.00    +0.000 A 
ATOM     16  C   UNL     1       0.003  10.769  19.069  0.00  0.00    +0.000 A 
ATOM     17  C   UNL     1      -0.843  11.431  19.964  0.00  0.00    +0.000 A 
ATOM     18  C   UNL     1      -0.869  11.064  21.310  0.00  0.00    +0.000 A 
ATOM     19 CL   UNL     1      -1.945  11.919  22.356  0.00  0.00    +0.000 Cl
ATOM     20  C   UNL     1      -0.043  10.029  21.759  0.00  0.00    +0.000 A 
ATOM     21 CL   UNL     1      -0.025   9.514  23.409  0.00  0.00    +0.000 Cl
ATOM     22  C   UNL     1       0.804   9.370  20.861  0.00  0.00    +0.000 A 
ENDBRANCH  14  15
ENDBRANCH   2  13
TORSDOF 3
ENDMDL
MODEL 7
REMARK VINA RESULT:      -7.5      2.660      3.711
REMARK  Name = 
REMARK  3 active torsions:
REMARK  status: ('A' for Active; 'I' for Inactive)
REMARK    1  A    between atoms: C_2  and  C_3
REMARK    2  A    between atoms: C_2  and  C_13
REMARK    3  A    between atoms: C_4  and  C_5
REMARK                            x       y       z     vdW  Elec       q    Type
REMARK                         _______ _______ _______ _____ _____    ______ ____
ROOT
ATOM      1  O   UNL     1       4.199   7.424  16.493  0.00  0.00    +0.000 OA
ATOM      2  C   UNL     1       3.667   6.993  17.509  0.00  0.00    +0.000 C 
ENDROOT
BRANCH   2   3
ATOM      3  C   UNL     1       4.121   5.726  18.157  0.00  0.00    +0.000 A 
ATOM      4  C   UNL     1       5.440   5.665  18.619  0.00  0.00    +0.000 A 
ATOM      5  C   UNL     1       5.859   4.507  19.233  0.00  0.00    +0.000 A 
ATOM      6  N   UNL     1       5.066   3.439  19.424  0.00  0.00    +0.000 NA
ATOM      7  C   UNL     1       3.792   3.498  19.009  0.00  0.00    +0.000 A 
ATOM      8  C   UNL     1       2.990   2.391  19.246  0.00  0.00    +0.000 A 
ATOM      9  C   UNL     1       1.650   2.349  18.859  0.00  0.00    +0.000 A 
ATOM     10  C   UNL     1       1.094   3.440  18.210  0.00  0.00    +0.000 A 
ATOM     11  C   UNL     1       1.882   4.563  17.955  0.00  0.00    +0.000 A 
ATOM     12  C   UNL     1       3.243   4.626  18.357  0.00  0.00    +0.000 A 
ENDBRANCH   2   3
BRANCH   2  13
ATOM     13  C   UNL     1       2.517   7.704  18.143  0.00  0.00    +0.000 C 
ATOM     14  C   UNL     1       2.187   8.940  17.734  0.00  0.00    +0.000 C 
BRANCH  14  15
ATOM     15  C   UNL     1       1.056   9.717  18.265  0.00  0.00    +0.000 A 
ATOM     16  C   UNL     1       1.222  10.729  19.219  0.00  0.00    +0.000 A 
ATOM     17  C   UNL     1       0.126  11.465  19.678  0.00  0.00    +0.000 A 
ATOM     18  C   UNL     1      -1.152  11.209  19.179  0.00  0.00    +0.000 A 
ATOM     19 CL   UNL     1      -2.458  12.164  19.784  0.00  0.00    +0.000 Cl
ATOM     20  C   UNL     1      -1.331  10.209  18.218  0.00  0.00    +0.000 A 
ATOM     21 CL   UNL     1      -2.881   9.839  17.549  0.00  0.00    +0.000 Cl
ATOM     22  C   UNL     1      -0.230   9.472  17.763  0.00  0.00    +0.000 A 
ENDBRANCH  14  15
ENDBRANCH   2  13
TORSDOF 3
ENDMDL
MODEL 8
REMARK VINA RESULT:      -7.4      4.757      8.383
REMARK  Name = 
REMARK  3 active torsions:
REMARK  status: ('A' for Active; 'I' for Inactive)
REMARK    1  A    between atoms: C_2  and  C_3
REMARK    2  A    between atoms: C_2  and  C_13
REMARK    3  A    between atoms: C_4  and  C_5
REMARK                            x       y       z     vdW  Elec       q    Type
REMARK                         _______ _______ _______ _____ _____    ______ ____
ROOT
ATOM      1  O   UNL     1       2.048  10.680  17.503  0.00  0.00    +0.000 OA
ATOM      2  C   UNL     1       1.333  10.190  18.368  0.00  0.00    +0.000 C 
ENDROOT
BRANCH   2   3
ATOM      3  C   UNL     1       0.128  10.905  18.888  0.00  0.00    +0.000 A 
ATOM      4  C   UNL     1       0.305  11.794  19.953  0.00  0.00    +0.000 A 
ATOM      5  C   UNL     1      -0.798  12.470  20.424  0.00  0.00    +0.000 A 
ATOM      6  N   UNL     1      -2.031  12.330  19.908  0.00  0.00    +0.000 NA
ATOM      7  C   UNL     1      -2.205  11.500  18.868  0.00  0.00    +0.000 A 
ATOM      8  C   UNL     1      -3.483  11.400  18.337  0.00  0.00    +0.000 A 
ATOM      9  C   UNL     1      -3.774  10.570  17.254  0.00  0.00    +0.000 A 
ATOM     10  C   UNL     1      -2.762   9.812  16.686  0.00  0.00    +0.000 A 
ATOM     11  C   UNL     1      -1.469   9.891  17.206  0.00  0.00    +0.000 A 
ATOM     12  C   UNL     1      -1.156  10.743  18.298  0.00  0.00    +0.000 A 
ENDBRANCH   2   3
BRANCH   2  13
ATOM     13  C   UNL     1       1.640   8.857  18.966  0.00  0.00    +0.000 C 
ATOM     14  C   UNL     1       2.199   7.898  18.210  0.00  0.00    +0.000 C 
BRANCH  14  15
ATOM     15  C   UNL     1       2.573   6.563  18.703  0.00  0.00    +0.000 A 
ATOM     16  C   UNL     1       2.236   6.116  19.987  0.00  0.00    +0.000 A 
ATOM     17  C   UNL     1       2.584   4.829  20.409  0.00  0.00    +0.000 A 
ATOM     18  C   UNL     1       3.263   3.966  19.548  0.00  0.00    +0.000 A 
ATOM     19 CL   UNL     1       3.652   2.388  20.133  0.00  0.00    +0.000 Cl
ATOM     20  C   UNL     1       3.595   4.395  18.260  0.00  0.00    +0.000 A 
ATOM     21 CL   UNL     1       4.429   3.381  17.135  0.00  0.00    +0.000 Cl
ATOM     22  C   UNL     1       3.247   5.686  17.841  0.00  0.00    +0.000 A 
ENDBRANCH  14  15
ENDBRANCH   2  13
TORSDOF 3
ENDMDL
MODEL 9
REMARK VINA RESULT:      -7.3      2.707      4.328
REMARK  Name = 
REMARK  3 active torsions:
REMARK  status: ('A' for Active; 'I' for Inactive)
REMARK    1  A    between atoms: C_2  and  C_3
REMARK    2  A    between atoms: C_2  and  C_13
REMARK    3  A    between atoms: C_4  and  C_5
REMARK                            x       y       z     vdW  Elec       q    Type
REMARK                         _______ _______ _______ _____ _____    ______ ____
ROOT
ATOM      1  O   UNL     1       4.588   7.498  17.223  0.00  0.00    +0.000 OA
ATOM      2  C   UNL     1       3.621   6.917  17.699  0.00  0.00    +0.000 C 
ENDROOT
BRANCH   2   3
ATOM      3  C   UNL     1       3.553   5.426  17.762  0.00  0.00    +0.000 A 
ATOM      4  C   UNL     1       4.327   4.697  16.854  0.00  0.00    +0.000 A 
ATOM      5  C   UNL     1       4.284   3.323  16.919  0.00  0.00    +0.000 A 
ATOM      6  N   UNL     1       3.548   2.646  17.817  0.00  0.00    +0.000 NA
ATOM      7  C   UNL     1       2.824   3.336  18.711  0.00  0.00    +0.000 A 
ATOM      8  C   UNL     1       2.098   2.610  19.645  0.00  0.00    +0.000 A 
ATOM      9  C   UNL     1       1.316   3.228  20.621  0.00  0.00    +0.000 A 
ATOM     10  C   UNL     1       1.248   4.611  20.663  0.00  0.00    +0.000 A 
ATOM     11  C   UNL     1       1.964   5.364  19.732  0.00  0.00    +0.000 A 
ATOM     12  C   UNL     1       2.777   4.749  18.743  0.00  0.00    +0.000 A 
ENDBRANCH   2   3
BRANCH   2  13
ATOM     13  C   UNL     1       2.445   7.672  18.224  0.00  0.00    +0.000 C 
ATOM     14  C   UNL     1       2.211   8.925  17.801  0.00  0.00    +0.000 C 
BRANCH  14  15
ATOM     15  C   UNL     1       1.067   9.746  18.227  0.00  0.00    +0.000 A 
ATOM     16  C   UNL     1       1.214  10.871  19.048  0.00  0.00    +0.000 A 
ATOM     17  C   UNL     1       0.105  11.643  19.407  0.00  0.00    +0.000 A 
ATOM     18  C   UNL     1      -1.167  11.309  18.939  0.00  0.00    +0.000 A 
ATOM     19 CL   UNL     1      -2.489  12.313  19.415  0.00  0.00    +0.000 Cl
ATOM     20  C   UNL     1      -1.326  10.195  18.109  0.00  0.00    +0.000 A 
ATOM     21 CL   UNL     1      -2.867   9.722  17.485  0.00  0.00    +0.000 Cl
ATOM     22  C   UNL     1      -0.213   9.423  17.754  0.00  0.00    +0.000 A 
ENDBRANCH  14  15
ENDBRANCH   2  13
TORSDOF 3
ENDMDL
