MODEL 1
REMARK VINA RESULT:      -8.1      0.000      0.000
REMARK  Name = 
REMARK  8 active torsions:
REMARK  status: ('A' for Active; 'I' for Inactive)
REMARK    1  A    between atoms: C_1  and  C_2
REMARK    2  A    between atoms: C_5  and  N_6
REMARK    3  A    between atoms: N_6  and  C_7
REMARK    4  A    between atoms: C_7  and  C_8
REMARK    5  A    between atoms: C_7  and  C_18
REMARK    6  A    between atoms: C_8  and  C_10
REMARK    7  A    between atoms: C_10  and  C_11
REMARK    8  A    between atoms: C_11  and  C_12
REMARK                            x       y       z     vdW  Elec       q    Type
REMARK                         _______ _______ _______ _____ _____    ______ ____
ROOT
ATOM      1  C   UNL     1       4.028   5.352  18.151  0.00  0.00    +0.000 C 
ENDROOT
BRANCH   1   2
ATOM      2  C   UNL     1       5.421   5.936  18.121  0.00  0.00    +0.000 A 
ATOM      3  C   UNL     1       5.776   7.024  17.307  0.00  0.00    +0.000 A 
ATOM      4  C   UNL     1       7.056   7.579  17.379  0.00  0.00    +0.000 A 
ATOM      5  C   UNL     1       8.004   7.044  18.251  0.00  0.00    +0.000 A 
ATOM      6  C   UNL     1       7.678   5.941  19.038  0.00  0.00    +0.000 A 
ATOM      7  C   UNL     1       6.399   5.397  18.962  0.00  0.00    +0.000 A 
ATOM      8  F   UNL     1       6.099   4.341  19.734  0.00  0.00    +0.000 F 
ENDBRANCH   1   2
BRANCH   1   9
ATOM      9  N   UNL     1       3.010   6.394  18.011  0.00  0.00    +0.000 N 
ATOM     10  H   UNL     1       2.720   6.611  17.057  0.00  0.00    +0.000 HD
BRANCH   9  15
ATOM     11  C   UNL     1      -0.057   8.957  22.106  0.00  0.00    +0.000 C 
ATOM     12  C   UNL     1       0.809   8.308  21.071  0.00  0.00    +0.000 A 
ATOM     13  C   UNL     1       1.278   7.005  21.246  0.00  0.00    +0.000 A 
ATOM     14  C   UNL     1       2.038   6.381  20.252  0.00  0.00    +0.000 A 
ATOM     15  C   UNL     1       2.336   7.023  19.044  0.00  0.00    +0.000 A 
ATOM     16  C   UNL     1       1.925   8.366  18.918  0.00  0.00    +0.000 A 
ATOM     17 CL   UNL     1       2.334   9.284  17.504  0.00  0.00    +0.000 Cl
ATOM     18  C   UNL     1       1.174   9.002  19.915  0.00  0.00    +0.000 A 
ENDBRANCH   9  15
ENDBRANCH   1   9
BRANCH   1  19
ATOM     19  C   UNL     1       3.800   4.294  17.057  0.00  0.00    +0.000 C 
ATOM     20  O   UNL     1       4.708   3.960  16.285  0.00  0.00    +0.000 OA
BRANCH  19  21
ATOM     21  C   UNL     1       2.443   3.604  16.972  0.00  0.00    +0.000 C 
BRANCH  21  22
ATOM     22  C   UNL     1       2.359   2.280  17.723  0.00  0.00    +0.000 C 
BRANCH  22  23
ATOM     23  C   UNL     1       2.314   2.461  19.218  0.00  0.00    +0.000 A 
ATOM     24  C   UNL     1       1.117   2.816  19.849  0.00  0.00    +0.000 A 
ATOM     25  C   UNL     1       1.114   2.969  21.226  0.00  0.00    +0.000 A 
ATOM     26  N   UNL     1       2.203   2.796  22.003  0.00  0.00    +0.000 NA
ATOM     27  C   UNL     1       3.349   2.460  21.373  0.00  0.00    +0.000 A 
ATOM     28  C   UNL     1       3.455   2.284  20.002  0.00  0.00    +0.000 A 
ENDBRANCH  22  23
ENDBRANCH  21  22
ENDBRANCH  19  21
ENDBRANCH   1  19
TORSDOF 7
ENDMDL
MODEL 2
REMARK VINA RESULT:      -7.9      1.090      1.730
REMARK  Name = 
REMARK  8 active torsions:
REMARK  status: ('A' for Active; 'I' for Inactive)
REMARK    1  A    between atoms: C_1  and  C_2
REMARK    2  A    between atoms: C_5  and  N_6
REMARK    3  A    between atoms: N_6  and  C_7
REMARK    4  A    between atoms: C_7  and  C_8
REMARK    5  A    between atoms: C_7  and  C_18
REMARK    6  A    between atoms: C_8  and  C_10
REMARK    7  A    between atoms: C_10  and  C_11
REMARK    8  A    between atoms: C_11  and  C_12
REMARK                            x       y       z     vdW  Elec       q    Type
REMARK                         _______ _______ _______ _____ _____    ______ ____
ROOT
ATOM      1  C   UNL     1       4.048   5.619  17.890  0.00  0.00    +0.000 C 
ENDROOT
BRANCH   1   2
ATOM      2  C   UNL     1       5.493   6.037  18.038  0.00  0.00    +0.000 A 
ATOM      3  C   UNL     1       6.076   7.054  17.264  0.00  0.00    +0.000 A 
ATOM      4  C   UNL     1       7.392   7.459  17.498  0.00  0.00    +0.000 A 
ATOM      5  C   UNL     1       8.149   6.842  18.494  0.00  0.00    +0.000 A 
ATOM      6  C   UNL     1       7.596   5.807  19.244  0.00  0.00    +0.000 A 
ATOM      7  C   UNL     1       6.283   5.412  19.006  0.00  0.00    +0.000 A 
ATOM      8  F   UNL     1       5.762   4.419  19.745  0.00  0.00    +0.000 F 
ENDBRANCH   1   2
BRANCH   1   9
ATOM      9  N   UNL     1       3.218   6.726  17.414  0.00  0.00    +0.000 N 
ATOM     10  H   UNL     1       3.115   6.805  16.403  0.00  0.00    +0.000 HD
BRANCH   9  15
ATOM     11  C   UNL     1       0.461  10.408  20.819  0.00  0.00    +0.000 C 
ATOM     12  C   UNL     1       1.114   9.415  19.908  0.00  0.00    +0.000 A 
ATOM     13  C   UNL     1       1.297   9.702  18.553  0.00  0.00    +0.000 A 
ATOM     14  C   UNL     1       1.960   8.798  17.717  0.00  0.00    +0.000 A 
ATOM     15  C   UNL     1       2.482   7.594  18.203  0.00  0.00    +0.000 A 
ATOM     16  C   UNL     1       2.216   7.284  19.553  0.00  0.00    +0.000 A 
ATOM     17 CL   UNL     1       2.729   5.770  20.228  0.00  0.00    +0.000 Cl
ATOM     18  C   UNL     1       1.543   8.178  20.394  0.00  0.00    +0.000 A 
ENDBRANCH   9  15
ENDBRANCH   1   9
BRANCH   1  19
ATOM     19  C   UNL     1       3.866   4.424  16.936  0.00  0.00    +0.000 C 
ATOM     20  O   UNL     1       4.766   4.077  16.160  0.00  0.00    +0.000 OA
BRANCH  19  21
ATOM     21  C   UNL     1       2.571   3.622  17.000  0.00  0.00    +0.000 C 
BRANCH  21  22
ATOM     22  C   UNL     1       2.686   2.296  17.742  0.00  0.00    +0.000 C 
BRANCH  22  23
ATOM     23  C   UNL     1       2.419   2.431  19.219  0.00  0.00    +0.000 A 
ATOM     24  C   UNL     1       3.451   2.238  20.143  0.00  0.00    +0.000 A 
ATOM     25  C   UNL     1       3.168   2.375  21.492  0.00  0.00    +0.000 A 
ATOM     26  N   UNL     1       1.947   2.685  21.974  0.00  0.00    +0.000 NA
ATOM     27  C   UNL     1       0.963   2.860  21.066  0.00  0.00    +0.000 A 
ATOM     28  C   UNL     1       1.146   2.744  19.697  0.00  0.00    +0.000 A 
ENDBRANCH  22  23
ENDBRANCH  21  22
ENDBRANCH  19  21
ENDBRANCH   1  19
TORSDOF 7
ENDMDL
MODEL 3
REMARK VINA RESULT:      -7.8      2.318      5.023
REMARK  Name = 
REMARK  8 active torsions:
REMARK  status: ('A' for Active; 'I' for Inactive)
REMARK    1  A    between atoms: C_1  and  C_2
REMARK    2  A    between atoms: C_5  and  N_6
REMARK    3  A    between atoms: N_6  and  C_7
REMARK    4  A    between atoms: C_7  and  C_8
REMARK    5  A    between atoms: C_7  and  C_18
REMARK    6  A    between atoms: C_8  and  C_10
REMARK    7  A    between atoms: C_10  and  C_11
REMARK    8  A    between atoms: C_11  and  C_12
REMARK                            x       y       z     vdW  Elec       q    Type
REMARK                         _______ _______ _______ _____ _____    ______ ____
ROOT
ATOM      1  C   UNL     1       2.448   6.361  18.989  0.00  0.00    +0.000 C 
ENDROOT
BRANCH   1   2
ATOM      2  C   UNL     1       2.029   5.024  19.556  0.00  0.00    +0.000 A 
ATOM      3  C   UNL     1       2.149   4.700  20.917  0.00  0.00    +0.000 A 
ATOM      4  C   UNL     1       1.669   3.482  21.403  0.00  0.00    +0.000 A 
ATOM      5  C   UNL     1       1.081   2.564  20.535  0.00  0.00    +0.000 A 
ATOM      6  C   UNL     1       0.988   2.856  19.176  0.00  0.00    +0.000 A 
ATOM      7  C   UNL     1       1.466   4.073  18.700  0.00  0.00    +0.000 A 
ATOM      8  F   UNL     1       1.360   4.343  17.390  0.00  0.00    +0.000 F 
ENDBRANCH   1   2
BRANCH   1   9
ATOM      9  N   UNL     1       2.552   7.376  20.038  0.00  0.00    +0.000 N 
ATOM     10  H   UNL     1       3.429   7.396  20.556  0.00  0.00    +0.000 HD
BRANCH   9  15
ATOM     11  C   UNL     1      -1.500  11.307  20.978  0.00  0.00    +0.000 C 
ATOM     12  C   UNL     1      -0.389  10.326  20.764  0.00  0.00    +0.000 A 
ATOM     13  C   UNL     1      -0.027   9.425  21.768  0.00  0.00    +0.000 A 
ATOM     14  C   UNL     1       0.971   8.472  21.544  0.00  0.00    +0.000 A 
ATOM     15  C   UNL     1       1.624   8.368  20.310  0.00  0.00    +0.000 A 
ATOM     16  C   UNL     1       1.305   9.337  19.337  0.00  0.00    +0.000 A 
ATOM     17 CL   UNL     1       2.132   9.360  17.812  0.00  0.00    +0.000 Cl
ATOM     18  C   UNL     1       0.315  10.302  19.558  0.00  0.00    +0.000 A 
ENDBRANCH   9  15
ENDBRANCH   1   9
BRANCH   1  19
ATOM     19  C   UNL     1       3.788   6.297  18.235  0.00  0.00    +0.000 C 
ATOM     20  O   UNL     1       3.988   6.974  17.218  0.00  0.00    +0.000 OA
BRANCH  19  21
ATOM     21  C   UNL     1       4.907   5.426  18.795  0.00  0.00    +0.000 C 
BRANCH  21  22
ATOM     22  C   UNL     1       5.118   4.112  18.052  0.00  0.00    +0.000 C 
BRANCH  22  23
ATOM     23  C   UNL     1       5.722   4.307  16.686  0.00  0.00    +0.000 A 
ATOM     24  C   UNL     1       4.994   3.978  15.539  0.00  0.00    +0.000 A 
ATOM     25  C   UNL     1       5.581   4.175  14.300  0.00  0.00    +0.000 A 
ATOM     26  N   UNL     1       6.825   4.669  14.130  0.00  0.00    +0.000 NA
ATOM     27  C   UNL     1       7.514   4.973  15.251  0.00  0.00    +0.000 A 
ATOM     28  C   UNL     1       7.014   4.811  16.534  0.00  0.00    +0.000 A 
ENDBRANCH  22  23
ENDBRANCH  21  22
ENDBRANCH  19  21
ENDBRANCH   1  19
TORSDOF 7
ENDMDL
MODEL 4
REMARK VINA RESULT:      -7.8      2.571      5.196
REMARK  Name = 
REMARK  8 active torsions:
REMARK  status: ('A' for Active; 'I' for Inactive)
REMARK    1  A    between atoms: C_1  and  C_2
REMARK    2  A    between atoms: C_5  and  N_6
REMARK    3  A    between atoms: N_6  and  C_7
REMARK    4  A    between atoms: C_7  and  C_8
REMARK    5  A    between atoms: C_7  and  C_18
REMARK    6  A    between atoms: C_8  and  C_10
REMARK    7  A    between atoms: C_10  and  C_11
REMARK    8  A    between atoms: C_11  and  C_12
REMARK                            x       y       z     vdW  Elec       q    Type
REMARK                         _______ _______ _______ _____ _____    ______ ____
ROOT
ATOM      1  C   UNL     1       2.452   6.318  18.890  0.00  0.00    +0.000 C 
ENDROOT
BRANCH   1   2
ATOM      2  C   UNL     1       2.075   4.992  19.509  0.00  0.00    +0.000 A 
ATOM      3  C   UNL     1       2.167   4.739  20.887  0.00  0.00    +0.000 A 
ATOM      4  C   UNL     1       1.726   3.525  21.419  0.00  0.00    +0.000 A 
ATOM      5  C   UNL     1       1.204   2.541  20.580  0.00  0.00    +0.000 A 
ATOM      6  C   UNL     1       1.140   2.763  19.206  0.00  0.00    +0.000 A 
ATOM      7  C   UNL     1       1.580   3.977  18.685  0.00  0.00    +0.000 A 
ATOM      8  F   UNL     1       1.502   4.179  17.361  0.00  0.00    +0.000 F 
ENDBRANCH   1   2
BRANCH   1   9
ATOM      9  N   UNL     1       2.255   7.421  19.831  0.00  0.00    +0.000 N 
ATOM     10  H   UNL     1       2.731   7.334  20.728  0.00  0.00    +0.000 HD
BRANCH   9  15
ATOM     11  C   UNL     1      -0.254  12.475  18.873  0.00  0.00    +0.000 C 
ATOM     12  C   UNL     1       0.335  11.119  19.112  0.00  0.00    +0.000 A 
ATOM     13  C   UNL     1       0.797  10.343  18.047  0.00  0.00    +0.000 A 
ATOM     14  C   UNL     1       1.399   9.102  18.278  0.00  0.00    +0.000 A 
ATOM     15  C   UNL     1       1.583   8.604  19.574  0.00  0.00    +0.000 A 
ATOM     16  C   UNL     1       1.037   9.362  20.630  0.00  0.00    +0.000 A 
ATOM     17 CL   UNL     1       1.119   8.784  22.264  0.00  0.00    +0.000 Cl
ATOM     18  C   UNL     1       0.422  10.600  20.406  0.00  0.00    +0.000 A 
ENDBRANCH   9  15
ENDBRANCH   1   9
BRANCH   1  19
ATOM     19  C   UNL     1       3.909   6.352  18.393  0.00  0.00    +0.000 C 
ATOM     20  O   UNL     1       4.267   7.132  17.500  0.00  0.00    +0.000 OA
BRANCH  19  21
ATOM     21  C   UNL     1       4.937   5.448  19.064  0.00  0.00    +0.000 C 
BRANCH  21  22
ATOM     22  C   UNL     1       5.194   4.134  18.334  0.00  0.00    +0.000 C 
BRANCH  22  23
ATOM     23  C   UNL     1       5.747   4.337  16.948  0.00  0.00    +0.000 A 
ATOM     24  C   UNL     1       4.952   4.080  15.826  0.00  0.00    +0.000 A 
ATOM     25  C   UNL     1       5.494   4.283  14.568  0.00  0.00    +0.000 A 
ATOM     26  N   UNL     1       6.753   4.717  14.355  0.00  0.00    +0.000 NA
ATOM     27  C   UNL     1       7.506   4.952  15.450  0.00  0.00    +0.000 A 
ATOM     28  C   UNL     1       7.056   4.779  16.750  0.00  0.00    +0.000 A 
ENDBRANCH  22  23
ENDBRANCH  21  22
ENDBRANCH  19  21
ENDBRANCH   1  19
TORSDOF 7
ENDMDL
MODEL 5
REMARK VINA RESULT:      -7.7      2.998      5.663
REMARK  Name = 
REMARK  8 active torsions:
REMARK  status: ('A' for Active; 'I' for Inactive)
REMARK    1  A    between atoms: C_1  and  C_2
REMARK    2  A    between atoms: C_5  and  N_6
REMARK    3  A    between atoms: N_6  and  C_7
REMARK    4  A    between atoms: C_7  and  C_8
REMARK    5  A    between atoms: C_7  and  C_18
REMARK    6  A    between atoms: C_8  and  C_10
REMARK    7  A    between atoms: C_10  and  C_11
REMARK    8  A    between atoms: C_11  and  C_12
REMARK                            x       y       z     vdW  Elec       q    Type
REMARK                         _______ _______ _______ _____ _____    ______ ____
ROOT
ATOM      1  C   UNL     1       2.967   5.961  18.396  0.00  0.00    +0.000 C 
ENDROOT
BRANCH   1   2
ATOM      2  C   UNL     1       2.316   4.779  19.075  0.00  0.00    +0.000 A 
ATOM      3  C   UNL     1       2.196   4.670  20.470  0.00  0.00    +0.000 A 
ATOM      4  C   UNL     1       1.512   3.597  21.044  0.00  0.00    +0.000 A 
ATOM      5  C   UNL     1       0.954   2.607  20.234  0.00  0.00    +0.000 A 
ATOM      6  C   UNL     1       1.097   2.682  18.850  0.00  0.00    +0.000 A 
ATOM      7  C   UNL     1       1.778   3.757  18.287  0.00  0.00    +0.000 A 
ATOM      8  F   UNL     1       1.898   3.819  16.951  0.00  0.00    +0.000 F 
ENDBRANCH   1   2
BRANCH   1   9
ATOM      9  N   UNL     1       2.885   7.164  19.224  0.00  0.00    +0.000 N 
ATOM     10  H   UNL     1       3.602   7.262  19.942  0.00  0.00    +0.000 HD
BRANCH   9  15
ATOM     11  C   UNL     1      -0.539  11.715  18.658  0.00  0.00    +0.000 C 
ATOM     12  C   UNL     1       0.298  10.480  18.784  0.00  0.00    +0.000 A 
ATOM     13  C   UNL     1       0.976   9.960  17.680  0.00  0.00    +0.000 A 
ATOM     14  C   UNL     1       1.804   8.840  17.814  0.00  0.00    +0.000 A 
ATOM     15  C   UNL     1       2.003   8.217  19.052  0.00  0.00    +0.000 A 
ATOM     16  C   UNL     1       1.247   8.704  20.138  0.00  0.00    +0.000 A 
ATOM     17 CL   UNL     1       1.341   7.938  21.691  0.00  0.00    +0.000 Cl
ATOM     18  C   UNL     1       0.407   9.817  20.010  0.00  0.00    +0.000 A 
ENDBRANCH   9  15
ENDBRANCH   1   9
BRANCH   1  19
ATOM     19  C   UNL     1       4.444   5.709  18.042  0.00  0.00    +0.000 C 
ATOM     20  O   UNL     1       5.283   5.465  18.919  0.00  0.00    +0.000 OA
BRANCH  19  21
ATOM     21  C   UNL     1       4.858   5.702  16.575  0.00  0.00    +0.000 C 
BRANCH  21  22
ATOM     22  C   UNL     1       5.009   4.312  15.968  0.00  0.00    +0.000 C 
BRANCH  22  23
ATOM     23  C   UNL     1       5.805   4.319  14.688  0.00  0.00    +0.000 A 
ATOM     24  C   UNL     1       5.386   3.557  13.593  0.00  0.00    +0.000 A 
ATOM     25  C   UNL     1       6.142   3.593  12.432  0.00  0.00    +0.000 A 
ATOM     26  N   UNL     1       7.267   4.324  12.292  0.00  0.00    +0.000 NA
ATOM     27  C   UNL     1       7.657   5.046  13.364  0.00  0.00    +0.000 A 
ATOM     28  C   UNL     1       6.971   5.076  14.568  0.00  0.00    +0.000 A 
ENDBRANCH  22  23
ENDBRANCH  21  22
ENDBRANCH  19  21
ENDBRANCH   1  19
TORSDOF 7
ENDMDL
MODEL 6
REMARK VINA RESULT:      -7.5      3.593      7.192
REMARK  Name = 
REMARK  8 active torsions:
REMARK  status: ('A' for Active; 'I' for Inactive)
REMARK    1  A    between atoms: C_1  and  C_2
REMARK    2  A    between atoms: C_5  and  N_6
REMARK    3  A    between atoms: N_6  and  C_7
REMARK    4  A    between atoms: C_7  and  C_8
REMARK    5  A    between atoms: C_7  and  C_18
REMARK    6  A    between atoms: C_8  and  C_10
REMARK    7  A    between atoms: C_10  and  C_11
REMARK    8  A    between atoms: C_11  and  C_12
REMARK                            x       y       z     vdW  Elec       q    Type
REMARK                         _______ _______ _______ _____ _____    ______ ____
ROOT
ATOM      1  C   UNL     1       6.159   6.608  17.818  0.00  0.00    +0.000 C 
ENDROOT
BRANCH   1   2
ATOM      2  C   UNL     1       6.169   5.708  16.604  0.00  0.00    +0.000 A 
ATOM      3  C   UNL     1       6.929   4.529  16.534  0.00  0.00    +0.000 A 
ATOM      4  C   UNL     1       6.838   3.689  15.422  0.00  0.00    +0.000 A 
ATOM      5  C   UNL     1       6.001   4.023  14.358  0.00  0.00    +0.000 A 
ATOM      6  C   UNL     1       5.269   5.208  14.397  0.00  0.00    +0.000 A 
ATOM      7  C   UNL     1       5.364   6.038  15.511  0.00  0.00    +0.000 A 
ATOM      8  F   UNL     1       4.644   7.171  15.536  0.00  0.00    +0.000 F 
ENDBRANCH   1   2
BRANCH   1   9
ATOM      9  N   UNL     1       5.559   5.940  18.973  0.00  0.00    +0.000 N 
ATOM     10  H   UNL     1       5.953   6.179  19.883  0.00  0.00    +0.000 HD
BRANCH   9  15
ATOM     11  C   UNL     1       0.991   2.518  18.558  0.00  0.00    +0.000 C 
ATOM     12  C   UNL     1       2.171   3.422  18.741  0.00  0.00    +0.000 A 
ATOM     13  C   UNL     1       3.404   2.912  19.153  0.00  0.00    +0.000 A 
ATOM     14  C   UNL     1       4.519   3.750  19.267  0.00  0.00    +0.000 A 
ATOM     15  C   UNL     1       4.450   5.112  18.953  0.00  0.00    +0.000 A 
ATOM     16  C   UNL     1       3.179   5.625  18.619  0.00  0.00    +0.000 A 
ATOM     17 CL   UNL     1       2.964   7.319  18.314  0.00  0.00    +0.000 Cl
ATOM     18  C   UNL     1       2.055   4.795  18.515  0.00  0.00    +0.000 A 
ENDBRANCH   9  15
ENDBRANCH   1   9
BRANCH   1  19
ATOM     19  C   UNL     1       7.565   7.097  18.211  0.00  0.00    +0.000 C 
ATOM     20  O   UNL     1       8.345   6.373  18.845  0.00  0.00    +0.000 OA
BRANCH  19  21
ATOM     21  C   UNL     1       8.019   8.477  17.751  0.00  0.00    +0.000 C 
BRANCH  21  22
ATOM     22  C   UNL     1       8.826   9.254  18.785  0.00  0.00    +0.000 C 
BRANCH  22  23
ATOM     23  C   UNL     1       9.157  10.654  18.334  0.00  0.00    +0.000 A 
ATOM     24  C   UNL     1       8.153  11.487  17.830  0.00  0.00    +0.000 A 
ATOM     25  C   UNL     1       8.494  12.769  17.429  0.00  0.00    +0.000 A 
ATOM     26  N   UNL     1       9.746  13.266  17.494  0.00  0.00    +0.000 NA
ATOM     27  C   UNL     1      10.701  12.442  17.977  0.00  0.00    +0.000 A 
ATOM     28  C   UNL     1      10.460  11.145  18.402  0.00  0.00    +0.000 A 
ENDBRANCH  22  23
ENDBRANCH  21  22
ENDBRANCH  19  21
ENDBRANCH   1  19
TORSDOF 7
ENDMDL
MODEL 7
REMARK VINA RESULT:      -7.4      0.974      1.349
REMARK  Name = 
REMARK  8 active torsions:
REMARK  status: ('A' for Active; 'I' for Inactive)
REMARK    1  A    between atoms: C_1  and  C_2
REMARK    2  A    between atoms: C_5  and  N_6
REMARK    3  A    between atoms: N_6  and  C_7
REMARK    4  A    between atoms: C_7  and  C_8
REMARK    5  A    between atoms: C_7  and  C_18
REMARK    6  A    between atoms: C_8  and  C_10
REMARK    7  A    between atoms: C_10  and  C_11
REMARK    8  A    between atoms: C_11  and  C_12
REMARK                            x       y       z     vdW  Elec       q    Type
REMARK                         _______ _______ _______ _____ _____    ______ ____
ROOT
ATOM      1  C   UNL     1       4.270   5.084  18.153  0.00  0.00    +0.000 C 
ENDROOT
BRANCH   1   2
ATOM      2  C   UNL     1       5.612   5.765  18.287  0.00  0.00    +0.000 A 
ATOM      3  C   UNL     1       6.565   5.391  19.248  0.00  0.00    +0.000 A 
ATOM      4  C   UNL     1       7.823   5.997  19.276  0.00  0.00    +0.000 A 
ATOM      5  C   UNL     1       8.140   6.997  18.357  0.00  0.00    +0.000 A 
ATOM      6  C   UNL     1       7.191   7.404  17.421  0.00  0.00    +0.000 A 
ATOM      7  C   UNL     1       5.941   6.792  17.399  0.00  0.00    +0.000 A 
ATOM      8  F   UNL     1       5.043   7.190  16.484  0.00  0.00    +0.000 F 
ENDBRANCH   1   2
BRANCH   1   9
ATOM      9  N   UNL     1       3.193   6.057  17.966  0.00  0.00    +0.000 N 
ATOM     10  H   UNL     1       2.860   6.177  17.010  0.00  0.00    +0.000 HD
BRANCH   9  15
ATOM     11  C   UNL     1       0.142   8.826  21.937  0.00  0.00    +0.000 C 
ATOM     12  C   UNL     1       1.004   8.124  20.934  0.00  0.00    +0.000 A 
ATOM     13  C   UNL     1       1.457   6.824  21.166  0.00  0.00    +0.000 A 
ATOM     14  C   UNL     1       2.213   6.150  20.202  0.00  0.00    +0.000 A 
ATOM     15  C   UNL     1       2.523   6.737  18.969  0.00  0.00    +0.000 A 
ATOM     16  C   UNL     1       2.129   8.078  18.785  0.00  0.00    +0.000 A 
ATOM     17 CL   UNL     1       2.553   8.931  17.336  0.00  0.00    +0.000 Cl
ATOM     18  C   UNL     1       1.381   8.764  19.751  0.00  0.00    +0.000 A 
ENDBRANCH   9  15
ENDBRANCH   1   9
BRANCH   1  19
ATOM     19  C   UNL     1       4.225   4.075  16.990  0.00  0.00    +0.000 C 
ATOM     20  O   UNL     1       4.438   4.429  15.822  0.00  0.00    +0.000 OA
BRANCH  19  21
ATOM     21  C   UNL     1       3.975   2.604  17.301  0.00  0.00    +0.000 C 
BRANCH  21  22
ATOM     22  C   UNL     1       2.541   2.279  17.705  0.00  0.00    +0.000 C 
BRANCH  22  23
ATOM     23  C   UNL     1       2.296   2.465  19.180  0.00  0.00    +0.000 A 
ATOM     24  C   UNL     1       1.021   2.801  19.647  0.00  0.00    +0.000 A 
ATOM     25  C   UNL     1       0.834   2.959  21.010  0.00  0.00    +0.000 A 
ATOM     26  N   UNL     1       1.814   2.808  21.924  0.00  0.00    +0.000 NA
ATOM     27  C   UNL     1       3.038   2.490  21.452  0.00  0.00    +0.000 A 
ATOM     28  C   UNL     1       3.327   2.312  20.108  0.00  0.00    +0.000 A 
ENDBRANCH  22  23
ENDBRANCH  21  22
ENDBRANCH  19  21
ENDBRANCH   1  19
TORSDOF 7
ENDMDL
MODEL 8
REMARK VINA RESULT:      -7.4      1.430      1.966
REMARK  Name = 
REMARK  8 active torsions:
REMARK  status: ('A' for Active; 'I' for Inactive)
REMARK    1  A    between atoms: C_1  and  C_2
REMARK    2  A    between atoms: C_5  and  N_6
REMARK    3  A    between atoms: N_6  and  C_7
REMARK    4  A    between atoms: C_7  and  C_8
REMARK    5  A    between atoms: C_7  and  C_18
REMARK    6  A    between atoms: C_8  and  C_10
REMARK    7  A    between atoms: C_10  and  C_11
REMARK    8  A    between atoms: C_11  and  C_12
REMARK                            x       y       z     vdW  Elec       q    Type
REMARK                         _______ _______ _______ _____ _____    ______ ____
ROOT
ATOM      1  C   UNL     1       3.951   5.455  18.087  0.00  0.00    +0.000 C 
ENDROOT
BRANCH   1   2
ATOM      2  C   UNL     1       5.387   5.887  18.268  0.00  0.00    +0.000 A 
ATOM      3  C   UNL     1       6.184   5.458  19.342  0.00  0.00    +0.000 A 
ATOM      4  C   UNL     1       7.531   5.821  19.417  0.00  0.00    +0.000 A 
ATOM      5  C   UNL     1       8.095   6.631  18.433  0.00  0.00    +0.000 A 
ATOM      6  C   UNL     1       7.308   7.094  17.381  0.00  0.00    +0.000 A 
ATOM      7  C   UNL     1       5.967   6.726  17.312  0.00  0.00    +0.000 A 
ATOM      8  F   UNL     1       5.225   7.173  16.287  0.00  0.00    +0.000 F 
ENDBRANCH   1   2
BRANCH   1   9
ATOM      9  N   UNL     1       3.133   6.536  17.536  0.00  0.00    +0.000 N 
ATOM     10  H   UNL     1       2.989   6.518  16.527  0.00  0.00    +0.000 HD
BRANCH   9  15
ATOM     11  C   UNL     1       0.627  10.604  20.686  0.00  0.00    +0.000 C 
ATOM     12  C   UNL     1       1.213   9.515  19.841  0.00  0.00    +0.000 A 
ATOM     13  C   UNL     1       1.447   9.715  18.479  0.00  0.00    +0.000 A 
ATOM     14  C   UNL     1       2.048   8.718  17.705  0.00  0.00    +0.000 A 
ATOM     15  C   UNL     1       2.457   7.501  18.263  0.00  0.00    +0.000 A 
ATOM     16  C   UNL     1       2.139   7.284  19.620  0.00  0.00    +0.000 A 
ATOM     17 CL   UNL     1       2.510   5.770  20.381  0.00  0.00    +0.000 Cl
ATOM     18  C   UNL     1       1.527   8.274  20.399  0.00  0.00    +0.000 A 
ENDBRANCH   9  15
ENDBRANCH   1   9
BRANCH   1  19
ATOM     19  C   UNL     1       3.809   4.221  17.177  0.00  0.00    +0.000 C 
ATOM     20  O   UNL     1       4.789   3.727  16.605  0.00  0.00    +0.000 OA
BRANCH  19  21
ATOM     21  C   UNL     1       2.440   3.566  17.035  0.00  0.00    +0.000 C 
BRANCH  21  22
ATOM     22  C   UNL     1       2.305   2.222  17.744  0.00  0.00    +0.000 C 
BRANCH  22  23
ATOM     23  C   UNL     1       2.362   2.348  19.244  0.00  0.00    +0.000 A 
ATOM     24  C   UNL     1       1.192   2.568  19.978  0.00  0.00    +0.000 A 
ATOM     25  C   UNL     1       1.283   2.674  21.356  0.00  0.00    +0.000 A 
ATOM     26  N   UNL     1       2.441   2.578  22.040  0.00  0.00    +0.000 NA
ATOM     27  C   UNL     1       3.560   2.373  21.312  0.00  0.00    +0.000 A 
ATOM     28  C   UNL     1       3.572   2.254  19.931  0.00  0.00    +0.000 A 
ENDBRANCH  22  23
ENDBRANCH  21  22
ENDBRANCH  19  21
ENDBRANCH   1  19
TORSDOF 7
ENDMDL
MODEL 9
REMARK VINA RESULT:      -7.4      3.061      5.827
REMARK  Name = 
REMARK  8 active torsions:
REMARK  status: ('A' for Active; 'I' for Inactive)
REMARK    1  A    between atoms: C_1  and  C_2
REMARK    2  A    between atoms: C_5  and  N_6
REMARK    3  A    between atoms: N_6  and  C_7
REMARK    4  A    between atoms: C_7  and  C_8
REMARK    5  A    between atoms: C_7  and  C_18
REMARK    6  A    between atoms: C_8  and  C_10
REMARK    7  A    between atoms: C_10  and  C_11
REMARK    8  A    between atoms: C_11  and  C_12
REMARK                            x       y       z     vdW  Elec       q    Type
REMARK                         _______ _______ _______ _____ _____    ______ ____
ROOT
ATOM      1  C   UNL     1       3.069   5.236  17.934  0.00  0.00    +0.000 C 
ENDROOT
BRANCH   1   2
ATOM      2  C   UNL     1       2.542   4.232  18.934  0.00  0.00    +0.000 A 
ATOM      3  C   UNL     1       3.217   3.914  20.124  0.00  0.00    +0.000 A 
ATOM      4  C   UNL     1       2.646   3.043  21.054  0.00  0.00    +0.000 A 
ATOM      5  C   UNL     1       1.404   2.462  20.800  0.00  0.00    +0.000 A 
ATOM      6  C   UNL     1       0.739   2.739  19.607  0.00  0.00    +0.000 A 
ATOM      7  C   UNL     1       1.314   3.612  18.687  0.00  0.00    +0.000 A 
ATOM      8  F   UNL     1       0.656   3.876  17.547  0.00  0.00    +0.000 F 
ENDBRANCH   1   2
BRANCH   1   9
ATOM      9  N   UNL     1       3.416   6.501  18.581  0.00  0.00    +0.000 N 
ATOM     10  H   UNL     1       4.372   6.579  18.928  0.00  0.00    +0.000 HD
BRANCH   9  15
ATOM     11  C   UNL     1       0.311  11.277  19.133  0.00  0.00    +0.000 C 
ATOM     12  C   UNL     1       1.064   9.995  18.952  0.00  0.00    +0.000 A 
ATOM     13  C   UNL     1       1.792   9.753  17.785  0.00  0.00    +0.000 A 
ATOM     14  C   UNL     1       2.542   8.581  17.643  0.00  0.00    +0.000 A 
ATOM     15  C   UNL     1       2.611   7.625  18.663  0.00  0.00    +0.000 A 
ATOM     16  C   UNL     1       1.805   7.847  19.800  0.00  0.00    +0.000 A 
ATOM     17 CL   UNL     1       1.739   6.673  21.075  0.00  0.00    +0.000 Cl
ATOM     18  C   UNL     1       1.043   9.012  19.944  0.00  0.00    +0.000 A 
ENDBRANCH   9  15
ENDBRANCH   1   9
BRANCH   1  19
ATOM     19  C   UNL     1       4.300   4.724  17.165  0.00  0.00    +0.000 C 
ATOM     20  O   UNL     1       4.636   3.532  17.207  0.00  0.00    +0.000 OA
BRANCH  19  21
ATOM     21  C   UNL     1       5.079   5.699  16.290  0.00  0.00    +0.000 C 
BRANCH  21  22
ATOM     22  C   UNL     1       6.505   5.263  15.973  0.00  0.00    +0.000 C 
BRANCH  22  23
ATOM     23  C   UNL     1       6.674   4.822  14.542  0.00  0.00    +0.000 A 
ATOM     24  C   UNL     1       7.656   5.406  13.735  0.00  0.00    +0.000 A 
ATOM     25  C   UNL     1       7.784   4.971  12.426  0.00  0.00    +0.000 A 
ATOM     26  N   UNL     1       7.012   4.012  11.876  0.00  0.00    +0.000 NA
ATOM     27  C   UNL     1       6.065   3.466  12.670  0.00  0.00    +0.000 A 
ATOM     28  C   UNL     1       5.858   3.833  13.990  0.00  0.00    +0.000 A 
ENDBRANCH  22  23
ENDBRANCH  21  22
ENDBRANCH  19  21
ENDBRANCH   1  19
TORSDOF 7
ENDMDL
