MODEL 1
REMARK VINA RESULT:      -8.3      0.000      0.000
REMARK  Name = 
REMARK  9 active torsions:
REMARK  status: ('A' for Active; 'I' for Inactive)
REMARK    1  A    between atoms: C_1  and  C_2
REMARK    2  A    between atoms: C_7  and  O_8
REMARK    3  A    between atoms: O_8  and  C_9
REMARK    4  A    between atoms: C_9  and  C_10
REMARK    5  A    between atoms: C_10  and  N_11
REMARK    6  A    between atoms: N_11  and  C_12
REMARK    7  A    between atoms: C_12  and  C_13
REMARK    8  A    between atoms: C_16  and  C_17
REMARK    9  A    between atoms: C_16  and  C_23
REMARK                            x       y       z     vdW  Elec       q    Type
REMARK                         _______ _______ _______ _____ _____    ______ ____
ROOT
ATOM      1  C   UNL     1       6.484   5.878  17.840  0.00  0.00    +0.000 C 
ATOM      2  C   UNL     1       5.767   6.164  16.549  0.00  0.00    +0.000 C 
ATOM      3  O   UNL     1       4.555   5.434  16.665  0.00  0.00    +0.000 OA
ATOM      4  C   UNL     1       4.224   5.481  18.072  0.00  0.00    +0.000 C 
ATOM      5  O   UNL     1       5.454   5.679  18.819  0.00  0.00    +0.000 OA
ENDROOT
BRANCH   4   6
ATOM      6  C   UNL     1       3.505   4.158  18.372  0.00  0.00    +0.000 A 
ATOM      7  C   UNL     1       2.556   3.580  17.517  0.00  0.00    +0.000 A 
ATOM      8  C   UNL     1       1.968   2.344  17.837  0.00  0.00    +0.000 A 
ATOM      9  C   UNL     1       2.319   1.673  19.009  0.00  0.00    +0.000 A 
ATOM     10  C   UNL     1       3.253   2.233  19.869  0.00  0.00    +0.000 A 
ATOM     11  C   UNL     1       3.837   3.461  19.557  0.00  0.00    +0.000 A 
ENDBRANCH   4   6
BRANCH   4  12
ATOM     12  C   UNL     1       3.314   6.678  18.391  0.00  0.00    +0.000 A 
ATOM     13  C   UNL     1       3.121   7.726  17.473  0.00  0.00    +0.000 A 
ATOM     14  C   UNL     1       2.345   8.835  17.798  0.00  0.00    +0.000 A 
ATOM     15  C   UNL     1       1.715   8.905  19.037  0.00  0.00    +0.000 A 
ATOM     16  C   UNL     1       1.862   7.864  19.952  0.00  0.00    +0.000 A 
ATOM     17  C   UNL     1       2.658   6.760  19.634  0.00  0.00    +0.000 A 
ENDBRANCH   4  12
BRANCH   1  18
ATOM     18  C   UNL     1       7.527   6.968  18.167  0.00  0.00    +0.000 C 
BRANCH  18  19
ATOM     19  N   UNL     1       7.772   8.017  17.154  0.00  0.00    +0.000 NA
ATOM     20  H   UNL     1       8.614   7.772  16.631  0.00  0.00    +0.000 HD
BRANCH  19  21
ATOM     21  C   UNL     1       7.962   9.370  17.712  0.00  0.00    +0.000 C 
BRANCH  21  22
ATOM     22  C   UNL     1       8.943   9.413  18.886  0.00  0.00    +0.000 C 
BRANCH  22  23
ATOM     23  O   UNL     1       9.072  10.705  19.454  0.00  0.00    +0.000 OA
BRANCH  23  30
ATOM     24  C   UNL     1       8.213  13.015  17.419  0.00  0.00    +0.000 C 
ATOM     25  C   UNL     1       9.584  12.647  17.922  0.00  0.00    +0.000 A 
ATOM     26  C   UNL     1      10.637  13.450  17.429  0.00  0.00    +0.000 A 
ATOM     27  C   UNL     1      11.961  13.236  17.803  0.00  0.00    +0.000 A 
ATOM     28  C   UNL     1      12.267  12.205  18.678  0.00  0.00    +0.000 A 
ATOM     29  C   UNL     1      11.243  11.399  19.177  0.00  0.00    +0.000 A 
ATOM     30  C   UNL     1       9.899  11.603  18.818  0.00  0.00    +0.000 A 
ENDBRANCH  23  30
ENDBRANCH  22  23
ENDBRANCH  21  22
ENDBRANCH  19  21
ENDBRANCH  18  19
ENDBRANCH   1  18
TORSDOF 8
ENDMDL
MODEL 2
REMARK VINA RESULT:      -8.2      0.952      1.731
REMARK  Name = 
REMARK  9 active torsions:
REMARK  status: ('A' for Active; 'I' for Inactive)
REMARK    1  A    between atoms: C_1  and  C_2
REMARK    2  A    between atoms: C_7  and  O_8
REMARK    3  A    between atoms: O_8  and  C_9
REMARK    4  A    between atoms: C_9  and  C_10
REMARK    5  A    between atoms: C_10  and  N_11
REMARK    6  A    between atoms: N_11  and  C_12
REMARK    7  A    between atoms: C_12  and  C_13
REMARK    8  A    between atoms: C_16  and  C_17
REMARK    9  A    between atoms: C_16  and  C_23
REMARK                            x       y       z     vdW  Elec       q    Type
REMARK                         _______ _______ _______ _____ _____    ______ ____
ROOT
ATOM      1  C   UNL     1       6.263   5.878  17.788  0.00  0.00    +0.000 C 
ATOM      2  C   UNL     1       5.494   6.204  16.538  0.00  0.00    +0.000 C 
ATOM      3  O   UNL     1       4.264   5.515  16.707  0.00  0.00    +0.000 OA
ATOM      4  C   UNL     1       4.005   5.557  18.129  0.00  0.00    +0.000 C 
ATOM      5  O   UNL     1       5.276   5.704  18.816  0.00  0.00    +0.000 OA
ENDROOT
BRANCH   4   6
ATOM      6  C   UNL     1       3.255   4.256  18.451  0.00  0.00    +0.000 A 
ATOM      7  C   UNL     1       3.838   3.167  19.113  0.00  0.00    +0.000 A 
ATOM      8  C   UNL     1       3.078   2.023  19.412  0.00  0.00    +0.000 A 
ATOM      9  C   UNL     1       1.731   1.954  19.054  0.00  0.00    +0.000 A 
ATOM     10  C   UNL     1       1.138   3.021  18.394  0.00  0.00    +0.000 A 
ATOM     11  C   UNL     1       1.890   4.156  18.093  0.00  0.00    +0.000 A 
ENDBRANCH   4   6
BRANCH   4  12
ATOM     12  C   UNL     1       3.154   6.781  18.505  0.00  0.00    +0.000 A 
ATOM     13  C   UNL     1       2.566   6.911  19.776  0.00  0.00    +0.000 A 
ATOM     14  C   UNL     1       1.746   7.994  20.083  0.00  0.00    +0.000 A 
ATOM     15  C   UNL     1       1.525   8.990  19.137  0.00  0.00    +0.000 A 
ATOM     16  C   UNL     1       2.123   8.903  17.882  0.00  0.00    +0.000 A 
ATOM     17  C   UNL     1       2.930   7.806  17.566  0.00  0.00    +0.000 A 
ENDBRANCH   4  12
BRANCH   1  18
ATOM     18  C   UNL     1       7.359   6.928  18.075  0.00  0.00    +0.000 C 
BRANCH  18  19
ATOM     19  N   UNL     1       7.494   8.059  17.132  0.00  0.00    +0.000 NA
ATOM     20  H   UNL     1       8.256   7.852  16.485  0.00  0.00    +0.000 HD
BRANCH  19  21
ATOM     21  C   UNL     1       7.785   9.355  17.775  0.00  0.00    +0.000 C 
BRANCH  21  22
ATOM     22  C   UNL     1       8.996   9.314  18.710  0.00  0.00    +0.000 C 
BRANCH  22  23
ATOM     23  O   UNL     1       8.974  10.337  19.691  0.00  0.00    +0.000 OA
BRANCH  23  30
ATOM     24  C   UNL     1       9.543  12.663  21.809  0.00  0.00    +0.000 C 
ATOM     25  C   UNL     1      10.245  12.362  20.511  0.00  0.00    +0.000 A 
ATOM     26  C   UNL     1      11.315  13.227  20.194  0.00  0.00    +0.000 A 
ATOM     27  C   UNL     1      12.063  13.076  19.029  0.00  0.00    +0.000 A 
ATOM     28  C   UNL     1      11.752  12.055  18.144  0.00  0.00    +0.000 A 
ATOM     29  C   UNL     1      10.699  11.188  18.436  0.00  0.00    +0.000 A 
ATOM     30  C   UNL     1       9.936  11.319  19.610  0.00  0.00    +0.000 A 
ENDBRANCH  23  30
ENDBRANCH  22  23
ENDBRANCH  21  22
ENDBRANCH  19  21
ENDBRANCH  18  19
ENDBRANCH   1  18
TORSDOF 8
ENDMDL
MODEL 3
REMARK VINA RESULT:      -8.2      1.130      1.455
REMARK  Name = 
REMARK  9 active torsions:
REMARK  status: ('A' for Active; 'I' for Inactive)
REMARK    1  A    between atoms: C_1  and  C_2
REMARK    2  A    between atoms: C_7  and  O_8
REMARK    3  A    between atoms: O_8  and  C_9
REMARK    4  A    between atoms: C_9  and  C_10
REMARK    5  A    between atoms: C_10  and  N_11
REMARK    6  A    between atoms: N_11  and  C_12
REMARK    7  A    between atoms: C_12  and  C_13
REMARK    8  A    between atoms: C_16  and  C_17
REMARK    9  A    between atoms: C_16  and  C_23
REMARK                            x       y       z     vdW  Elec       q    Type
REMARK                         _______ _______ _______ _____ _____    ______ ____
ROOT
ATOM      1  C   UNL     1       6.257   5.583  17.829  0.00  0.00    +0.000 C 
ATOM      2  C   UNL     1       5.579   5.964  16.541  0.00  0.00    +0.000 C 
ATOM      3  O   UNL     1       4.311   5.332  16.626  0.00  0.00    +0.000 OA
ATOM      4  C   UNL     1       3.971   5.366  18.031  0.00  0.00    +0.000 C 
ATOM      5  O   UNL     1       5.205   5.441  18.794  0.00  0.00    +0.000 OA
ENDROOT
BRANCH   4   6
ATOM      6  C   UNL     1       3.142   4.098  18.285  0.00  0.00    +0.000 A 
ATOM      7  C   UNL     1       1.743   4.058  18.213  0.00  0.00    +0.000 A 
ATOM      8  C   UNL     1       1.053   2.850  18.417  0.00  0.00    +0.000 A 
ATOM      9  C   UNL     1       1.749   1.674  18.695  0.00  0.00    +0.000 A 
ATOM     10  C   UNL     1       3.135   1.696  18.775  0.00  0.00    +0.000 A 
ATOM     11  C   UNL     1       3.823   2.893  18.577  0.00  0.00    +0.000 A 
ENDBRANCH   4   6
BRANCH   4  12
ATOM     12  C   UNL     1       3.158   6.624  18.379  0.00  0.00    +0.000 A 
ATOM     13  C   UNL     1       2.933   7.643  17.436  0.00  0.00    +0.000 A 
ATOM     14  C   UNL     1       2.250   8.807  17.781  0.00  0.00    +0.000 A 
ATOM     15  C   UNL     1       1.744   8.961  19.068  0.00  0.00    +0.000 A 
ATOM     16  C   UNL     1       1.922   7.951  20.011  0.00  0.00    +0.000 A 
ATOM     17  C   UNL     1       2.626   6.792  19.672  0.00  0.00    +0.000 A 
ENDBRANCH   4  12
BRANCH   1  18
ATOM     18  C   UNL     1       7.383   6.574  18.197  0.00  0.00    +0.000 C 
BRANCH  18  19
ATOM     19  N   UNL     1       7.685   7.661  17.242  0.00  0.00    +0.000 NA
ATOM     20  H   UNL     1       8.668   7.593  16.974  0.00  0.00    +0.000 HD
BRANCH  19  21
ATOM     21  C   UNL     1       7.452   9.019  17.771  0.00  0.00    +0.000 C 
BRANCH  21  22
ATOM     22  C   UNL     1       8.737   9.834  17.946  0.00  0.00    +0.000 C 
BRANCH  22  23
ATOM     23  O   UNL     1       9.138   9.952  19.300  0.00  0.00    +0.000 OA
BRANCH  23  30
ATOM     24  C   UNL     1       8.628  11.652  21.959  0.00  0.00    +0.000 C 
ATOM     25  C   UNL     1       9.601  11.903  20.837  0.00  0.00    +0.000 A 
ATOM     26  C   UNL     1      10.411  13.051  20.993  0.00  0.00    +0.000 A 
ATOM     27  C   UNL     1      11.361  13.415  20.042  0.00  0.00    +0.000 A 
ATOM     28  C   UNL     1      11.519  12.642  18.903  0.00  0.00    +0.000 A 
ATOM     29  C   UNL     1      10.730  11.504  18.727  0.00  0.00    +0.000 A 
ATOM     30  C   UNL     1       9.771  11.115  19.678  0.00  0.00    +0.000 A 
ENDBRANCH  23  30
ENDBRANCH  22  23
ENDBRANCH  21  22
ENDBRANCH  19  21
ENDBRANCH  18  19
ENDBRANCH   1  18
TORSDOF 8
ENDMDL
MODEL 4
REMARK VINA RESULT:      -8.2      1.234      1.834
REMARK  Name = 
REMARK  9 active torsions:
REMARK  status: ('A' for Active; 'I' for Inactive)
REMARK    1  A    between atoms: C_1  and  C_2
REMARK    2  A    between atoms: C_7  and  O_8
REMARK    3  A    between atoms: O_8  and  C_9
REMARK    4  A    between atoms: C_9  and  C_10
REMARK    5  A    between atoms: C_10  and  N_11
REMARK    6  A    between atoms: N_11  and  C_12
REMARK    7  A    between atoms: C_12  and  C_13
REMARK    8  A    between atoms: C_16  and  C_17
REMARK    9  A    between atoms: C_16  and  C_23
REMARK                            x       y       z     vdW  Elec       q    Type
REMARK                         _______ _______ _______ _____ _____    ______ ____
ROOT
ATOM      1  C   UNL     1       6.034   5.090  18.573  0.00  0.00    +0.000 C 
ATOM      2  C   UNL     1       5.437   5.203  17.198  0.00  0.00    +0.000 C 
ATOM      3  O   UNL     1       4.111   4.723  17.363  0.00  0.00    +0.000 OA
ATOM      4  C   UNL     1       3.732   5.127  18.699  0.00  0.00    +0.000 C 
ATOM      5  O   UNL     1       4.943   5.279  19.486  0.00  0.00    +0.000 OA
ENDROOT
BRANCH   4   6
ATOM      6  C   UNL     1       2.777   4.037  19.205  0.00  0.00    +0.000 A 
ATOM      7  C   UNL     1       2.801   3.529  20.512  0.00  0.00    +0.000 A 
ATOM      8  C   UNL     1       1.868   2.559  20.918  0.00  0.00    +0.000 A 
ATOM      9  C   UNL     1       0.904   2.087  20.027  0.00  0.00    +0.000 A 
ATOM     10  C   UNL     1       0.868   2.575  18.728  0.00  0.00    +0.000 A 
ATOM     11  C   UNL     1       1.795   3.534  18.321  0.00  0.00    +0.000 A 
ENDBRANCH   4   6
BRANCH   4  12
ATOM     12  C   UNL     1       3.035   6.498  18.691  0.00  0.00    +0.000 A 
ATOM     13  C   UNL     1       3.178   7.394  17.616  0.00  0.00    +0.000 A 
ATOM     14  C   UNL     1       2.594   8.657  17.649  0.00  0.00    +0.000 A 
ATOM     15  C   UNL     1       1.821   9.039  18.742  0.00  0.00    +0.000 A 
ATOM     16  C   UNL     1       1.634   8.156  19.804  0.00  0.00    +0.000 A 
ATOM     17  C   UNL     1       2.238   6.896  19.781  0.00  0.00    +0.000 A 
ENDBRANCH   4  12
BRANCH   1  18
ATOM     18  C   UNL     1       7.239   6.040  18.752  0.00  0.00    +0.000 C 
BRANCH  18  19
ATOM     19  N   UNL     1       7.674   6.831  17.582  0.00  0.00    +0.000 NA
ATOM     20  H   UNL     1       8.692   6.779  17.516  0.00  0.00    +0.000 HD
BRANCH  19  21
ATOM     21  C   UNL     1       7.295   8.257  17.636  0.00  0.00    +0.000 C 
BRANCH  21  22
ATOM     22  C   UNL     1       8.495   9.202  17.738  0.00  0.00    +0.000 C 
BRANCH  22  23
ATOM     23  O   UNL     1       8.346  10.179  18.754  0.00  0.00    +0.000 OA
BRANCH  23  30
ATOM     24  C   UNL     1       9.055  11.326  21.652  0.00  0.00    +0.000 C 
ATOM     25  C   UNL     1       9.838  11.424  20.370  0.00  0.00    +0.000 A 
ATOM     26  C   UNL     1      11.068  12.112  20.470  0.00  0.00    +0.000 A 
ATOM     27  C   UNL     1      11.907  12.283  19.372  0.00  0.00    +0.000 A 
ATOM     28  C   UNL     1      11.530  11.774  18.139  0.00  0.00    +0.000 A 
ATOM     29  C   UNL     1      10.320  11.091  18.015  0.00  0.00    +0.000 A 
ATOM     30  C   UNL     1       9.462  10.901  19.113  0.00  0.00    +0.000 A 
ENDBRANCH  23  30
ENDBRANCH  22  23
ENDBRANCH  21  22
ENDBRANCH  19  21
ENDBRANCH  18  19
ENDBRANCH   1  18
TORSDOF 8
ENDMDL
MODEL 5
REMARK VINA RESULT:      -8.2      1.366      2.125
REMARK  Name = 
REMARK  9 active torsions:
REMARK  status: ('A' for Active; 'I' for Inactive)
REMARK    1  A    between atoms: C_1  and  C_2
REMARK    2  A    between atoms: C_7  and  O_8
REMARK    3  A    between atoms: O_8  and  C_9
REMARK    4  A    between atoms: C_9  and  C_10
REMARK    5  A    between atoms: C_10  and  N_11
REMARK    6  A    between atoms: N_11  and  C_12
REMARK    7  A    between atoms: C_12  and  C_13
REMARK    8  A    between atoms: C_16  and  C_17
REMARK    9  A    between atoms: C_16  and  C_23
REMARK                            x       y       z     vdW  Elec       q    Type
REMARK                         _______ _______ _______ _____ _____    ______ ____
ROOT
ATOM      1  C   UNL     1       5.479   5.244  17.716  0.00  0.00    +0.000 C 
ATOM      2  C   UNL     1       4.432   5.269  16.636  0.00  0.00    +0.000 C 
ATOM      3  O   UNL     1       3.240   4.897  17.311  0.00  0.00    +0.000 OA
ATOM      4  C   UNL     1       3.377   5.447  18.642  0.00  0.00    +0.000 C 
ATOM      5  O   UNL     1       4.794   5.589  18.929  0.00  0.00    +0.000 OA
ENDROOT
BRANCH   4   6
ATOM      6  C   UNL     1       2.635   4.473  19.569  0.00  0.00    +0.000 A 
ATOM      7  C   UNL     1       2.944   4.307  20.927  0.00  0.00    +0.000 A 
ATOM      8  C   UNL     1       2.193   3.427  21.726  0.00  0.00    +0.000 A 
ATOM      9  C   UNL     1       1.131   2.705  21.181  0.00  0.00    +0.000 A 
ATOM     10  C   UNL     1       0.814   2.855  19.838  0.00  0.00    +0.000 A 
ATOM     11  C   UNL     1       1.558   3.724  19.041  0.00  0.00    +0.000 A 
ENDBRANCH   4   6
BRANCH   4  12
ATOM     12  C   UNL     1       2.764   6.854  18.730  0.00  0.00    +0.000 A 
ATOM     13  C   UNL     1       2.113   7.306  19.892  0.00  0.00    +0.000 A 
ATOM     14  C   UNL     1       1.506   8.558  19.937  0.00  0.00    +0.000 A 
ATOM     15  C   UNL     1       1.569   9.402  18.832  0.00  0.00    +0.000 A 
ATOM     16  C   UNL     1       2.238   8.993  17.681  0.00  0.00    +0.000 A 
ATOM     17  C   UNL     1       2.829   7.727  17.627  0.00  0.00    +0.000 A 
ENDBRANCH   4  12
BRANCH   1  18
ATOM     18  C   UNL     1       6.695   6.124  17.353  0.00  0.00    +0.000 C 
BRANCH  18  19
ATOM     19  N   UNL     1       6.847   7.415  18.056  0.00  0.00    +0.000 NA
ATOM     20  H   UNL     1       5.978   7.942  17.956  0.00  0.00    +0.000 HD
BRANCH  19  21
ATOM     21  C   UNL     1       7.949   8.257  17.551  0.00  0.00    +0.000 C 
BRANCH  21  22
ATOM     22  C   UNL     1       8.590   9.134  18.629  0.00  0.00    +0.000 C 
BRANCH  22  23
ATOM     23  O   UNL     1       8.754  10.482  18.224  0.00  0.00    +0.000 OA
BRANCH  23  30
ATOM     24  C   UNL     1       9.248  11.319  21.269  0.00  0.00    +0.000 C 
ATOM     25  C   UNL     1      10.112  11.564  20.060  0.00  0.00    +0.000 A 
ATOM     26  C   UNL     1      11.318  12.252  20.316  0.00  0.00    +0.000 A 
ATOM     27  C   UNL     1      12.224  12.551  19.301  0.00  0.00    +0.000 A 
ATOM     28  C   UNL     1      11.940  12.174  17.998  0.00  0.00    +0.000 A 
ATOM     29  C   UNL     1      10.753  11.492  17.721  0.00  0.00    +0.000 A 
ATOM     30  C   UNL     1       9.829  11.175  18.732  0.00  0.00    +0.000 A 
ENDBRANCH  23  30
ENDBRANCH  22  23
ENDBRANCH  21  22
ENDBRANCH  19  21
ENDBRANCH  18  19
ENDBRANCH   1  18
TORSDOF 8
ENDMDL
MODEL 6
REMARK VINA RESULT:      -8.2      0.859      1.250
REMARK  Name = 
REMARK  9 active torsions:
REMARK  status: ('A' for Active; 'I' for Inactive)
REMARK    1  A    between atoms: C_1  and  C_2
REMARK    2  A    between atoms: C_7  and  O_8
REMARK    3  A    between atoms: O_8  and  C_9
REMARK    4  A    between atoms: C_9  and  C_10
REMARK    5  A    between atoms: C_10  and  N_11
REMARK    6  A    between atoms: N_11  and  C_12
REMARK    7  A    between atoms: C_12  and  C_13
REMARK    8  A    between atoms: C_16  and  C_17
REMARK    9  A    between atoms: C_16  and  C_23
REMARK                            x       y       z     vdW  Elec       q    Type
REMARK                         _______ _______ _______ _____ _____    ______ ____
ROOT
ATOM      1  C   UNL     1       6.312   5.629  17.948  0.00  0.00    +0.000 C 
ATOM      2  C   UNL     1       5.613   5.871  16.639  0.00  0.00    +0.000 C 
ATOM      3  O   UNL     1       4.359   5.226  16.799  0.00  0.00    +0.000 OA
ATOM      4  C   UNL     1       4.032   5.388  18.198  0.00  0.00    +0.000 C 
ATOM      5  O   UNL     1       5.272   5.559  18.935  0.00  0.00    +0.000 OA
ENDROOT
BRANCH   4   6
ATOM      6  C   UNL     1       3.232   4.134  18.582  0.00  0.00    +0.000 A 
ATOM      7  C   UNL     1       3.655   3.209  19.547  0.00  0.00    +0.000 A 
ATOM      8  C   UNL     1       2.850   2.105  19.878  0.00  0.00    +0.000 A 
ATOM      9  C   UNL     1       1.618   1.913  19.251  0.00  0.00    +0.000 A 
ATOM     10  C   UNL     1       1.186   2.817  18.290  0.00  0.00    +0.000 A 
ATOM     11  C   UNL     1       1.983   3.911  17.957  0.00  0.00    +0.000 A 
ENDBRANCH   4   6
BRANCH   4  12
ATOM     12  C   UNL     1       3.197   6.657  18.434  0.00  0.00    +0.000 A 
ATOM     13  C   UNL     1       3.083   7.659  17.453  0.00  0.00    +0.000 A 
ATOM     14  C   UNL     1       2.377   8.833  17.702  0.00  0.00    +0.000 A 
ATOM     15  C   UNL     1       1.738   9.015  18.925  0.00  0.00    +0.000 A 
ATOM     16  C   UNL     1       1.806   8.023  19.900  0.00  0.00    +0.000 A 
ATOM     17  C   UNL     1       2.533   6.853  19.659  0.00  0.00    +0.000 A 
ENDBRANCH   4  12
BRANCH   1  18
ATOM     18  C   UNL     1       7.420   6.672  18.207  0.00  0.00    +0.000 C 
BRANCH  18  19
ATOM     19  N   UNL     1       7.686   7.673  17.152  0.00  0.00    +0.000 NA
ATOM     20  H   UNL     1       8.644   7.548  16.821  0.00  0.00    +0.000 HD
BRANCH  19  21
ATOM     21  C   UNL     1       7.536   9.074  17.591  0.00  0.00    +0.000 C 
BRANCH  21  22
ATOM     22  C   UNL     1       8.700   9.572  18.451  0.00  0.00    +0.000 C 
BRANCH  22  23
ATOM     23  O   UNL     1       9.479  10.566  17.809  0.00  0.00    +0.000 OA
BRANCH  23  30
ATOM     24  C   UNL     1       8.124  13.461  17.843  0.00  0.00    +0.000 C 
ATOM     25  C   UNL     1       9.305  12.951  18.626  0.00  0.00    +0.000 A 
ATOM     26  C   UNL     1       9.887  13.887  19.509  0.00  0.00    +0.000 A 
ATOM     27  C   UNL     1      10.984  13.565  20.304  0.00  0.00    +0.000 A 
ATOM     28  C   UNL     1      11.534  12.295  20.228  0.00  0.00    +0.000 A 
ATOM     29  C   UNL     1      10.976  11.353  19.362  0.00  0.00    +0.000 A 
ATOM     30  C   UNL     1       9.864  11.656  18.556  0.00  0.00    +0.000 A 
ENDBRANCH  23  30
ENDBRANCH  22  23
ENDBRANCH  21  22
ENDBRANCH  19  21
ENDBRANCH  18  19
ENDBRANCH   1  18
TORSDOF 8
ENDMDL
MODEL 7
REMARK VINA RESULT:      -8.1      4.359      8.595
REMARK  Name = 
REMARK  9 active torsions:
REMARK  status: ('A' for Active; 'I' for Inactive)
REMARK    1  A    between atoms: C_1  and  C_2
REMARK    2  A    between atoms: C_7  and  O_8
REMARK    3  A    between atoms: O_8  and  C_9
REMARK    4  A    between atoms: C_9  and  C_10
REMARK    5  A    between atoms: C_10  and  N_11
REMARK    6  A    between atoms: N_11  and  C_12
REMARK    7  A    between atoms: C_12  and  C_13
REMARK    8  A    between atoms: C_16  and  C_17
REMARK    9  A    between atoms: C_16  and  C_23
REMARK                            x       y       z     vdW  Elec       q    Type
REMARK                         _______ _______ _______ _____ _____    ______ ____
ROOT
ATOM      1  C   UNL     1       1.721   7.984  18.425  0.00  0.00    +0.000 C 
ATOM      2  C   UNL     1       2.325   7.885  19.799  0.00  0.00    +0.000 C 
ATOM      3  O   UNL     1       2.549   6.493  19.971  0.00  0.00    +0.000 OA
ATOM      4  C   UNL     1       2.879   6.002  18.651  0.00  0.00    +0.000 C 
ATOM      5  O   UNL     1       2.286   6.899  17.674  0.00  0.00    +0.000 OA
ENDROOT
BRANCH   4   6
ATOM      6  C   UNL     1       2.345   4.564  18.601  0.00  0.00    +0.000 A 
ATOM      7  C   UNL     1       2.763   3.613  17.659  0.00  0.00    +0.000 A 
ATOM      8  C   UNL     1       2.261   2.300  17.699  0.00  0.00    +0.000 A 
ATOM      9  C   UNL     1       1.339   1.924  18.676  0.00  0.00    +0.000 A 
ATOM     10  C   UNL     1       0.910   2.853  19.614  0.00  0.00    +0.000 A 
ATOM     11  C   UNL     1       1.403   4.157  19.575  0.00  0.00    +0.000 A 
ENDBRANCH   4   6
BRANCH   4  12
ATOM     12  C   UNL     1       4.397   6.027  18.410  0.00  0.00    +0.000 A 
ATOM     13  C   UNL     1       5.295   5.386  19.283  0.00  0.00    +0.000 A 
ATOM     14  C   UNL     1       6.671   5.469  19.089  0.00  0.00    +0.000 A 
ATOM     15  C   UNL     1       7.180   6.164  17.996  0.00  0.00    +0.000 A 
ATOM     16  C   UNL     1       6.311   6.777  17.096  0.00  0.00    +0.000 A 
ATOM     17  C   UNL     1       4.930   6.713  17.302  0.00  0.00    +0.000 A 
ENDBRANCH   4  12
BRANCH   1  18
ATOM     18  C   UNL     1       1.906   9.393  17.820  0.00  0.00    +0.000 C 
BRANCH  18  19
ATOM     19  N   UNL     1       0.783  10.347  17.938  0.00  0.00    +0.000 NA
ATOM     20  H   UNL     1       1.166  11.288  18.038  0.00  0.00    +0.000 HD
BRANCH  19  21
ATOM     21  C   UNL     1      -0.112  10.096  19.084  0.00  0.00    +0.000 C 
BRANCH  21  22
ATOM     22  C   UNL     1      -0.935  11.320  19.494  0.00  0.00    +0.000 C 
BRANCH  22  23
ATOM     23  O   UNL     1      -1.498  12.005  18.388  0.00  0.00    +0.000 OA
BRANCH  23  30
ATOM     24  C   UNL     1      -2.726  10.816  15.688  0.00  0.00    +0.000 C 
ATOM     25  C   UNL     1      -3.430  11.250  16.946  0.00  0.00    +0.000 A 
ATOM     26  C   UNL     1      -4.835  11.097  16.930  0.00  0.00    +0.000 A 
ATOM     27  C   UNL     1      -5.626  11.451  18.020  0.00  0.00    +0.000 A 
ATOM     28  C   UNL     1      -5.030  11.977  19.155  0.00  0.00    +0.000 A 
ATOM     29  C   UNL     1      -3.644  12.138  19.194  0.00  0.00    +0.000 A 
ATOM     30  C   UNL     1      -2.826  11.780  18.107  0.00  0.00    +0.000 A 
ENDBRANCH  23  30
ENDBRANCH  22  23
ENDBRANCH  21  22
ENDBRANCH  19  21
ENDBRANCH  18  19
ENDBRANCH   1  18
TORSDOF 8
ENDMDL
MODEL 8
REMARK VINA RESULT:      -8.0      4.397      8.645
REMARK  Name = 
REMARK  9 active torsions:
REMARK  status: ('A' for Active; 'I' for Inactive)
REMARK    1  A    between atoms: C_1  and  C_2
REMARK    2  A    between atoms: C_7  and  O_8
REMARK    3  A    between atoms: O_8  and  C_9
REMARK    4  A    between atoms: C_9  and  C_10
REMARK    5  A    between atoms: C_10  and  N_11
REMARK    6  A    between atoms: N_11  and  C_12
REMARK    7  A    between atoms: C_12  and  C_13
REMARK    8  A    between atoms: C_16  and  C_17
REMARK    9  A    between atoms: C_16  and  C_23
REMARK                            x       y       z     vdW  Elec       q    Type
REMARK                         _______ _______ _______ _____ _____    ______ ____
ROOT
ATOM      1  C   UNL     1       1.662   7.945  18.481  0.00  0.00    +0.000 C 
ATOM      2  C   UNL     1       2.303   7.895  19.841  0.00  0.00    +0.000 C 
ATOM      3  O   UNL     1       2.539   6.512  20.053  0.00  0.00    +0.000 OA
ATOM      4  C   UNL     1       2.837   5.979  18.743  0.00  0.00    +0.000 C 
ATOM      5  O   UNL     1       2.213   6.839  17.752  0.00  0.00    +0.000 OA
ENDROOT
BRANCH   4   6
ATOM      6  C   UNL     1       2.310   4.537  18.755  0.00  0.00    +0.000 A 
ATOM      7  C   UNL     1       1.382   4.057  19.689  0.00  0.00    +0.000 A 
ATOM      8  C   UNL     1       0.912   2.734  19.613  0.00  0.00    +0.000 A 
ATOM      9  C   UNL     1       1.363   1.878  18.608  0.00  0.00    +0.000 A 
ATOM     10  C   UNL     1       2.285   2.335  17.676  0.00  0.00    +0.000 A 
ATOM     11  C   UNL     1       2.756   3.646  17.750  0.00  0.00    +0.000 A 
ENDBRANCH   4   6
BRANCH   4  12
ATOM     12  C   UNL     1       4.348   6.002  18.460  0.00  0.00    +0.000 A 
ATOM     13  C   UNL     1       5.271   5.380  19.320  0.00  0.00    +0.000 A 
ATOM     14  C   UNL     1       6.642   5.463  19.088  0.00  0.00    +0.000 A 
ATOM     15  C   UNL     1       7.118   6.139  17.969  0.00  0.00    +0.000 A 
ATOM     16  C   UNL     1       6.224   6.735  17.082  0.00  0.00    +0.000 A 
ATOM     17  C   UNL     1       4.849   6.670  17.326  0.00  0.00    +0.000 A 
ENDBRANCH   4  12
BRANCH   1  18
ATOM     18  C   UNL     1       1.822   9.334  17.825  0.00  0.00    +0.000 C 
BRANCH  18  19
ATOM     19  N   UNL     1       0.626  10.198  17.738  0.00  0.00    +0.000 NA
ATOM     20  H   UNL     1       0.625  10.659  16.826  0.00  0.00    +0.000 HD
BRANCH  19  21
ATOM     21  C   UNL     1       0.553  11.245  18.776  0.00  0.00    +0.000 C 
BRANCH  21  22
ATOM     22  C   UNL     1      -0.740  12.062  18.728  0.00  0.00    +0.000 C 
BRANCH  22  23
ATOM     23  O   UNL     1      -1.876  11.329  19.156  0.00  0.00    +0.000 OA
BRANCH  23  30
ATOM     24  C   UNL     1      -2.575  10.670  16.107  0.00  0.00    +0.000 C 
ATOM     25  C   UNL     1      -3.442  11.286  17.174  0.00  0.00    +0.000 A 
ATOM     26  C   UNL     1      -4.756  11.607  16.766  0.00  0.00    +0.000 A 
ATOM     27  C   UNL     1      -5.678  12.180  17.638  0.00  0.00    +0.000 A 
ATOM     28  C   UNL     1      -5.303  12.456  18.944  0.00  0.00    +0.000 A 
ATOM     29  C   UNL     1      -4.010  12.148  19.370  0.00  0.00    +0.000 A 
ATOM     30  C   UNL     1      -3.067  11.562  18.507  0.00  0.00    +0.000 A 
ENDBRANCH  23  30
ENDBRANCH  22  23
ENDBRANCH  21  22
ENDBRANCH  19  21
ENDBRANCH  18  19
ENDBRANCH   1  18
TORSDOF 8
ENDMDL
MODEL 9
REMARK VINA RESULT:      -7.9      4.513      8.546
REMARK  Name = 
REMARK  9 active torsions:
REMARK  status: ('A' for Active; 'I' for Inactive)
REMARK    1  A    between atoms: C_1  and  C_2
REMARK    2  A    between atoms: C_7  and  O_8
REMARK    3  A    between atoms: O_8  and  C_9
REMARK    4  A    between atoms: C_9  and  C_10
REMARK    5  A    between atoms: C_10  and  N_11
REMARK    6  A    between atoms: N_11  and  C_12
REMARK    7  A    between atoms: C_12  and  C_13
REMARK    8  A    between atoms: C_16  and  C_17
REMARK    9  A    between atoms: C_16  and  C_23
REMARK                            x       y       z     vdW  Elec       q    Type
REMARK                         _______ _______ _______ _____ _____    ______ ____
ROOT
ATOM      1  C   UNL     1       1.914   8.381  19.547  0.00  0.00    +0.000 C 
ATOM      2  C   UNL     1       1.447   8.063  18.153  0.00  0.00    +0.000 C 
ATOM      3  O   UNL     1       2.476   7.235  17.632  0.00  0.00    +0.000 OA
ATOM      4  C   UNL     1       2.957   6.479  18.766  0.00  0.00    +0.000 C 
ATOM      5  O   UNL     1       2.676   7.241  19.970  0.00  0.00    +0.000 OA
ENDROOT
BRANCH   4   6
ATOM      6  C   UNL     1       4.450   6.240  18.499  0.00  0.00    +0.000 A 
ATOM      7  C   UNL     1       5.270   5.452  19.319  0.00  0.00    +0.000 A 
ATOM      8  C   UNL     1       6.620   5.243  18.989  0.00  0.00    +0.000 A 
ATOM      9  C   UNL     1       7.166   5.816  17.841  0.00  0.00    +0.000 A 
ATOM     10  C   UNL     1       6.371   6.603  17.019  0.00  0.00    +0.000 A 
ATOM     11  C   UNL     1       5.031   6.815  17.345  0.00  0.00    +0.000 A 
ENDBRANCH   4   6
BRANCH   4  12
ATOM     12  C   UNL     1       2.210   5.142  18.903  0.00  0.00    +0.000 A 
ATOM     13  C   UNL     1       1.611   4.751  20.114  0.00  0.00    +0.000 A 
ATOM     14  C   UNL     1       0.992   3.510  20.244  0.00  0.00    +0.000 A 
ATOM     15  C   UNL     1       0.926   2.648  19.154  0.00  0.00    +0.000 A 
ATOM     16  C   UNL     1       1.480   3.026  17.933  0.00  0.00    +0.000 A 
ATOM     17  C   UNL     1       2.121   4.262  17.808  0.00  0.00    +0.000 A 
ENDBRANCH   4  12
BRANCH   1  18
ATOM     18  C   UNL     1       0.740   8.788  20.464  0.00  0.00    +0.000 C 
BRANCH  18  19
ATOM     19  N   UNL     1       0.694  10.184  20.949  0.00  0.00    +0.000 NA
ATOM     20  H   UNL     1      -0.251  10.380  21.282  0.00  0.00    +0.000 HD
BRANCH  19  21
ATOM     21  C   UNL     1       1.036  11.194  19.929  0.00  0.00    +0.000 C 
BRANCH  21  22
ATOM     22  C   UNL     1       0.006  11.293  18.801  0.00  0.00    +0.000 C 
BRANCH  22  23
ATOM     23  O   UNL     1      -1.254  10.748  19.150  0.00  0.00    +0.000 OA
BRANCH  23  30
ATOM     24  C   UNL     1      -4.036  12.301  19.422  0.00  0.00    +0.000 C 
ATOM     25  C   UNL     1      -3.502  11.494  18.268  0.00  0.00    +0.000 A 
ATOM     26  C   UNL     1      -4.351  11.426  17.141  0.00  0.00    +0.000 A 
ATOM     27  C   UNL     1      -3.997  10.720  15.994  0.00  0.00    +0.000 A 
ATOM     28  C   UNL     1      -2.782  10.054  15.949  0.00  0.00    +0.000 A 
ATOM     29  C   UNL     1      -1.926  10.107  17.051  0.00  0.00    +0.000 A 
ATOM     30  C   UNL     1      -2.262  10.820  18.215  0.00  0.00    +0.000 A 
ENDBRANCH  23  30
ENDBRANCH  22  23
ENDBRANCH  21  22
ENDBRANCH  19  21
ENDBRANCH  18  19
ENDBRANCH   1  18
TORSDOF 8
ENDMDL
