MODEL 1
REMARK VINA RESULT:      -7.5      0.000      0.000
REMARK  Name = 
REMARK  9 active torsions:
REMARK  status: ('A' for Active; 'I' for Inactive)
REMARK    1  A    between atoms: C_1  and  O_2
REMARK    2  A    between atoms: O_2  and  C_3
REMARK    3  A    between atoms: C_6  and  C_7
REMARK    4  A    between atoms: C_7  and  C_8
REMARK    5  A    between atoms: C_7  and  C_17
REMARK    6  A    between atoms: C_12  and  S_13
REMARK    7  A    between atoms: C_15  and  O_16
REMARK    8  A    between atoms: C_21  and  S_22
REMARK    9  A    between atoms: C_24  and  O_25
REMARK                            x       y       z     vdW  Elec       q    Type
REMARK                         _______ _______ _______ _____ _____    ______ ____
ROOT
ATOM      1  C   UNL     1       6.099   5.004  17.609  0.00  0.00    +0.000 C 
ENDROOT
BRANCH   1   2
ATOM      2  C   UNL     1       6.909   6.272  17.878  0.00  0.00    +0.000 A 
ATOM      3  C   UNL     1       7.876   6.359  18.866  0.00  0.00    +0.000 A 
ATOM      4  N   UNL     1       8.254   5.272  19.650  0.00  0.00    +0.000 N 
ATOM      5  N   UNL     1       8.565   7.484  19.120  0.00  0.00    +0.000 NA
ATOM      6  C   UNL     1       8.285   8.551  18.361  0.00  0.00    +0.000 A 
ATOM      7  N   UNL     1       7.412   8.577  17.350  0.00  0.00    +0.000 NA
ATOM      8  C   UNL     1       6.766   7.429  17.146  0.00  0.00    +0.000 A 
ATOM      9  H   UNL     1       7.476   4.843  20.137  0.00  0.00    +0.000 HD
ATOM     10  H   UNL     1       8.965   5.592  20.307  0.00  0.00    +0.000 HD
BRANCH   6  11
ATOM     11  S   UNL     1       9.133  10.052  18.749  0.00  0.00    +0.000 S 
ATOM     12  H   UNL     1       8.843   9.980  20.053  0.00  0.00    +0.000 HD
ENDBRANCH   6  11
BRANCH   8  13
ATOM     13  O   UNL     1       5.914   7.504  16.087  0.00  0.00    +0.000 OA
ATOM     14  H   UNL     1       6.545   7.422  15.347  0.00  0.00    +0.000 HD
ENDBRANCH   8  13
ENDBRANCH   1   2
BRANCH   1  15
ATOM     15  C   UNL     1       4.774   4.910  18.372  0.00  0.00    +0.000 A 
ATOM     16  C   UNL     1       3.692   5.775  18.338  0.00  0.00    +0.000 A 
ATOM     17  N   UNL     1       3.627   6.930  17.576  0.00  0.00    +0.000 N 
ATOM     18  N   UNL     1       2.551   5.561  19.023  0.00  0.00    +0.000 NA
ATOM     19  C   UNL     1       2.478   4.463  19.782  0.00  0.00    +0.000 A 
ATOM     20  N   UNL     1       3.443   3.557  19.909  0.00  0.00    +0.000 NA
ATOM     21  C   UNL     1       4.539   3.811  19.189  0.00  0.00    +0.000 A 
ATOM     22  H   UNL     1       4.390   7.564  17.770  0.00  0.00    +0.000 HD
ATOM     23  H   UNL     1       2.733   7.377  17.761  0.00  0.00    +0.000 HD
BRANCH  19  24
ATOM     24  S   UNL     1       0.968   4.197  20.657  0.00  0.00    +0.000 S 
ATOM     25  H   UNL     1       0.209   4.658  19.656  0.00  0.00    +0.000 HD
ENDBRANCH  19  24
BRANCH  21  26
ATOM     26  O   UNL     1       5.467   2.826  19.335  0.00  0.00    +0.000 OA
ATOM     27  H   UNL     1       4.900   2.037  19.259  0.00  0.00    +0.000 HD
ENDBRANCH  21  26
ENDBRANCH   1  15
BRANCH   1  31
ATOM     28  C   UNL     1       6.187   3.904  13.388  0.00  0.00    +0.000 A 
ATOM     29  C   UNL     1       5.028   3.740  14.146  0.00  0.00    +0.000 A 
ATOM     30  C   UNL     1       4.994   4.124  15.491  0.00  0.00    +0.000 A 
ATOM     31  C   UNL     1       6.135   4.653  16.114  0.00  0.00    +0.000 A 
ATOM     32  C   UNL     1       7.305   4.784  15.347  0.00  0.00    +0.000 A 
ATOM     33  C   UNL     1       7.326   4.428  13.993  0.00  0.00    +0.000 A 
BRANCH  28  35
ATOM     34  C   UNL     1       4.795   3.206  11.608  0.00  0.00    +0.000 C 
ATOM     35  O   UNL     1       6.106   3.472  12.093  0.00  0.00    +0.000 OA
ENDBRANCH  28  35
ENDBRANCH   1  31
TORSDOF 8
ENDMDL
MODEL 2
REMARK VINA RESULT:      -6.7      6.685      9.005
REMARK  Name = 
REMARK  9 active torsions:
REMARK  status: ('A' for Active; 'I' for Inactive)
REMARK    1  A    between atoms: C_1  and  O_2
REMARK    2  A    between atoms: O_2  and  C_3
REMARK    3  A    between atoms: C_6  and  C_7
REMARK    4  A    between atoms: C_7  and  C_8
REMARK    5  A    between atoms: C_7  and  C_17
REMARK    6  A    between atoms: C_12  and  S_13
REMARK    7  A    between atoms: C_15  and  O_16
REMARK    8  A    between atoms: C_21  and  S_22
REMARK    9  A    between atoms: C_24  and  O_25
REMARK                            x       y       z     vdW  Elec       q    Type
REMARK                         _______ _______ _______ _____ _____    ______ ____
ROOT
ATOM      1  C   UNL     1       0.373  10.718  19.506  0.00  0.00    +0.000 C 
ENDROOT
BRANCH   1   2
ATOM      2  C   UNL     1       1.114   9.380  19.506  0.00  0.00    +0.000 A 
ATOM      3  C   UNL     1       1.102   8.506  20.581  0.00  0.00    +0.000 A 
ATOM      4  N   UNL     1       0.345   8.731  21.728  0.00  0.00    +0.000 N 
ATOM      5  N   UNL     1       1.779   7.346  20.589  0.00  0.00    +0.000 NA
ATOM      6  C   UNL     1       2.483   7.046  19.491  0.00  0.00    +0.000 A 
ATOM      7  N   UNL     1       2.535   7.783  18.377  0.00  0.00    +0.000 NA
ATOM      8  C   UNL     1       1.837   8.918  18.430  0.00  0.00    +0.000 A 
ATOM      9  H   UNL     1       0.544   9.622  22.168  0.00  0.00    +0.000 HD
ATOM     10  H   UNL     1       0.515   7.959  22.372  0.00  0.00    +0.000 HD
BRANCH   6  11
ATOM     11  S   UNL     1       3.439   5.560  19.535  0.00  0.00    +0.000 S 
ATOM     12  H   UNL     1       4.330   6.057  20.399  0.00  0.00    +0.000 HD
ENDBRANCH   6  11
BRANCH   8  13
ATOM     13  O   UNL     1       1.900   9.610  17.260  0.00  0.00    +0.000 OA
ATOM     14  H   UNL     1       1.940   8.874  16.621  0.00  0.00    +0.000 HD
ENDBRANCH   8  13
ENDBRANCH   1   2
BRANCH   1  15
ATOM     15  C   UNL     1       1.255  11.945  19.755  0.00  0.00    +0.000 A 
ATOM     16  C   UNL     1       2.079  12.613  18.866  0.00  0.00    +0.000 A 
ATOM     17  N   UNL     1       2.258  12.263  17.538  0.00  0.00    +0.000 N 
ATOM     18  N   UNL     1       2.777  13.720  19.191  0.00  0.00    +0.000 NA
ATOM     19  C   UNL     1       2.671  14.176  20.443  0.00  0.00    +0.000 A 
ATOM     20  N   UNL     1       1.923  13.627  21.395  0.00  0.00    +0.000 NA
ATOM     21  C   UNL     1       1.238  12.549  21.007  0.00  0.00    +0.000 A 
ATOM     22  H   UNL     1       2.572  11.308  17.428  0.00  0.00    +0.000 HD
ATOM     23  H   UNL     1       2.929  12.909  17.130  0.00  0.00    +0.000 HD
BRANCH  19  24
ATOM     24  S   UNL     1       3.581  15.636  20.839  0.00  0.00    +0.000 S 
ATOM     25  H   UNL     1       2.777  15.962  21.859  0.00  0.00    +0.000 HD
ENDBRANCH  19  24
BRANCH  21  26
ATOM     26  O   UNL     1       0.466  12.063  22.017  0.00  0.00    +0.000 OA
ATOM     27  H   UNL     1      -0.424  12.232  21.655  0.00  0.00    +0.000 HD
ENDBRANCH  21  26
ENDBRANCH   1  15
BRANCH   1  31
ATOM     28  C   UNL     1      -2.657  10.839  16.371  0.00  0.00    +0.000 A 
ATOM     29  C   UNL     1      -2.329  11.986  17.092  0.00  0.00    +0.000 A 
ATOM     30  C   UNL     1      -1.333  11.950  18.074  0.00  0.00    +0.000 A 
ATOM     31  C   UNL     1      -0.667  10.752  18.377  0.00  0.00    +0.000 A 
ATOM     32  C   UNL     1      -1.031   9.598  17.664  0.00  0.00    +0.000 A 
ATOM     33  C   UNL     1      -2.005   9.643  16.659  0.00  0.00    +0.000 A 
BRANCH  28  35
ATOM     34  C   UNL     1      -3.621  10.110  14.337  0.00  0.00    +0.000 C 
ATOM     35  O   UNL     1      -3.661  10.992  15.453  0.00  0.00    +0.000 OA
ENDBRANCH  28  35
ENDBRANCH   1  31
TORSDOF 8
ENDMDL
MODEL 3
REMARK VINA RESULT:      -6.5      0.979      1.600
REMARK  Name = 
REMARK  9 active torsions:
REMARK  status: ('A' for Active; 'I' for Inactive)
REMARK    1  A    between atoms: C_1  and  O_2
REMARK    2  A    between atoms: O_2  and  C_3
REMARK    3  A    between atoms: C_6  and  C_7
REMARK    4  A    between atoms: C_7  and  C_8
REMARK    5  A    between atoms: C_7  and  C_17
REMARK    6  A    between atoms: C_12  and  S_13
REMARK    7  A    between atoms: C_15  and  O_16
REMARK    8  A    between atoms: C_21  and  S_22
REMARK    9  A    between atoms: C_24  and  O_25
REMARK                            x       y       z     vdW  Elec       q    Type
REMARK                         _______ _______ _______ _____ _____    ______ ____
ROOT
ATOM      1  C   UNL     1       6.146   4.815  17.537  0.00  0.00    +0.000 C 
ENDROOT
BRANCH   1   2
ATOM      2  C   UNL     1       6.916   6.105  17.820  0.00  0.00    +0.000 A 
ATOM      3  C   UNL     1       7.841   6.229  18.844  0.00  0.00    +0.000 A 
ATOM      4  N   UNL     1       8.213   5.161  19.657  0.00  0.00    +0.000 N 
ATOM      5  N   UNL     1       8.492   7.373  19.109  0.00  0.00    +0.000 NA
ATOM      6  C   UNL     1       8.218   8.423  18.324  0.00  0.00    +0.000 A 
ATOM      7  N   UNL     1       7.385   8.415  17.280  0.00  0.00    +0.000 NA
ATOM      8  C   UNL     1       6.774   7.249  17.067  0.00  0.00    +0.000 A 
ATOM      9  H   UNL     1       7.426   4.720  20.120  0.00  0.00    +0.000 HD
ATOM     10  H   UNL     1       8.890   5.506  20.336  0.00  0.00    +0.000 HD
BRANCH   6  11
ATOM     11  S   UNL     1       9.015   9.949  18.725  0.00  0.00    +0.000 S 
ATOM     12  H   UNL     1      10.148   9.622  18.094  0.00  0.00    +0.000 HD
ENDBRANCH   6  11
BRANCH   8  13
ATOM     13  O   UNL     1       5.964   7.290  15.975  0.00  0.00    +0.000 OA
ATOM     14  H   UNL     1       6.368   6.591  15.427  0.00  0.00    +0.000 HD
ENDBRANCH   8  13
ENDBRANCH   1   2
BRANCH   1  15
ATOM     15  C   UNL     1       4.855   4.644  18.343  0.00  0.00    +0.000 A 
ATOM     16  C   UNL     1       4.529   3.656  19.258  0.00  0.00    +0.000 A 
ATOM     17  N   UNL     1       5.355   2.600  19.609  0.00  0.00    +0.000 N 
ATOM     18  N   UNL     1       3.371   3.637  19.947  0.00  0.00    +0.000 NA
ATOM     19  C   UNL     1       2.494   4.619  19.715  0.00  0.00    +0.000 A 
ATOM     20  N   UNL     1       2.678   5.621  18.861  0.00  0.00    +0.000 NA
ATOM     21  C   UNL     1       3.852   5.599  18.227  0.00  0.00    +0.000 A 
ATOM     22  H   UNL     1       5.643   2.052  18.810  0.00  0.00    +0.000 HD
ATOM     23  H   UNL     1       4.856   2.022  20.280  0.00  0.00    +0.000 HD
BRANCH  19  24
ATOM     24  S   UNL     1       0.991   4.581  20.641  0.00  0.00    +0.000 S 
ATOM     25  H   UNL     1       1.117   5.847  21.057  0.00  0.00    +0.000 HD
ENDBRANCH  19  24
BRANCH  21  26
ATOM     26  O   UNL     1       3.989   6.672  17.401  0.00  0.00    +0.000 OA
ATOM     27  H   UNL     1       4.463   6.260  16.655  0.00  0.00    +0.000 HD
ENDBRANCH  21  26
ENDBRANCH   1  15
BRANCH   1  31
ATOM     28  C   UNL     1       6.122   3.856  13.282  0.00  0.00    +0.000 A 
ATOM     29  C   UNL     1       4.990   3.646  14.069  0.00  0.00    +0.000 A 
ATOM     30  C   UNL     1       4.991   3.985  15.426  0.00  0.00    +0.000 A 
ATOM     31  C   UNL     1       6.143   4.514  16.032  0.00  0.00    +0.000 A 
ATOM     32  C   UNL     1       7.285   4.690  15.234  0.00  0.00    +0.000 A 
ATOM     33  C   UNL     1       7.271   4.379  13.868  0.00  0.00    +0.000 A 
BRANCH  28  35
ATOM     34  C   UNL     1       4.689   3.174  11.528  0.00  0.00    +0.000 C 
ATOM     35  O   UNL     1       6.008   3.464  11.976  0.00  0.00    +0.000 OA
ENDBRANCH  28  35
ENDBRANCH   1  31
TORSDOF 8
ENDMDL
MODEL 4
REMARK VINA RESULT:      -6.5      6.916      8.945
REMARK  Name = 
REMARK  9 active torsions:
REMARK  status: ('A' for Active; 'I' for Inactive)
REMARK    1  A    between atoms: C_1  and  O_2
REMARK    2  A    between atoms: O_2  and  C_3
REMARK    3  A    between atoms: C_6  and  C_7
REMARK    4  A    between atoms: C_7  and  C_8
REMARK    5  A    between atoms: C_7  and  C_17
REMARK    6  A    between atoms: C_12  and  S_13
REMARK    7  A    between atoms: C_15  and  O_16
REMARK    8  A    between atoms: C_21  and  S_22
REMARK    9  A    between atoms: C_24  and  O_25
REMARK                            x       y       z     vdW  Elec       q    Type
REMARK                         _______ _______ _______ _____ _____    ______ ____
ROOT
ATOM      1  C   UNL     1       0.717  10.702  18.778  0.00  0.00    +0.000 C 
ENDROOT
BRANCH   1   2
ATOM      2  C   UNL     1       1.454  11.896  19.385  0.00  0.00    +0.000 A 
ATOM      3  C   UNL     1       2.288  12.726  18.652  0.00  0.00    +0.000 A 
ATOM      4  N   UNL     1       2.464  12.594  17.277  0.00  0.00    +0.000 N 
ATOM      5  N   UNL     1       2.958  13.756  19.195  0.00  0.00    +0.000 NA
ATOM      6  C   UNL     1       2.785  13.969  20.506  0.00  0.00    +0.000 A 
ATOM      7  N   UNL     1       1.974  13.270  21.306  0.00  0.00    +0.000 NA
ATOM      8  C   UNL     1       1.334  12.266  20.706  0.00  0.00    +0.000 A 
ATOM      9  H   UNL     1       2.774  11.668  17.003  0.00  0.00    +0.000 HD
ATOM     10  H   UNL     1       3.130  13.305  16.978  0.00  0.00    +0.000 HD
BRANCH   6  11
ATOM     11  S   UNL     1       3.730  15.273  21.235  0.00  0.00    +0.000 S 
ATOM     12  H   UNL     1       4.789  15.062  20.445  0.00  0.00    +0.000 HD
ENDBRANCH   6  11
BRANCH   8  13
ATOM     13  O   UNL     1       0.501  11.611  21.559  0.00  0.00    +0.000 OA
ATOM     14  H   UNL     1       0.677  12.097  22.386  0.00  0.00    +0.000 HD
ENDBRANCH   8  13
ENDBRANCH   1   2
BRANCH   1  15
ATOM     15  C   UNL     1       1.240   9.331  19.217  0.00  0.00    +0.000 A 
ATOM     16  C   UNL     1       0.914   8.601  20.348  0.00  0.00    +0.000 A 
ATOM     17  N   UNL     1       0.022   9.013  21.325  0.00  0.00    +0.000 N 
ATOM     18  N   UNL     1       1.406   7.373  20.606  0.00  0.00    +0.000 NA
ATOM     19  C   UNL     1       2.265   6.850  19.724  0.00  0.00    +0.000 A 
ATOM     20  N   UNL     1       2.666   7.445  18.604  0.00  0.00    +0.000 NA
ATOM     21  C   UNL     1       2.126   8.648  18.392  0.00  0.00    +0.000 A 
ATOM     22  H   UNL     1       0.271   9.908  21.723  0.00  0.00    +0.000 HD
ATOM     23  H   UNL     1      -0.009   8.296  22.044  0.00  0.00    +0.000 HD
BRANCH  19  24
ATOM     24  S   UNL     1       2.884   5.235  20.075  0.00  0.00    +0.000 S 
ATOM     25  H   UNL     1       3.720   5.237  19.030  0.00  0.00    +0.000 HD
ENDBRANCH  19  24
BRANCH  21  26
ATOM     26  O   UNL     1       2.549   9.180  17.214  0.00  0.00    +0.000 OA
ATOM     27  H   UNL     1       2.298   8.467  16.599  0.00  0.00    +0.000 HD
ENDBRANCH  21  26
ENDBRANCH   1  15
BRANCH   1  31
ATOM     28  C   UNL     1      -3.576  11.456  18.613  0.00  0.00    +0.000 A 
ATOM     29  C   UNL     1      -3.020  10.348  17.975  0.00  0.00    +0.000 A 
ATOM     30  C   UNL     1      -1.647  10.092  18.058  0.00  0.00    +0.000 A 
ATOM     31  C   UNL     1      -0.796  10.962  18.758  0.00  0.00    +0.000 A 
ATOM     32  C   UNL     1      -1.366  12.091  19.369  0.00  0.00    +0.000 A 
ATOM     33  C   UNL     1      -2.745  12.328  19.310  0.00  0.00    +0.000 A 
BRANCH  28  35
ATOM     34  C   UNL     1      -5.342  12.020  17.143  0.00  0.00    +0.000 C 
ATOM     35  O   UNL     1      -4.924  11.614  18.442  0.00  0.00    +0.000 OA
ENDBRANCH  28  35
ENDBRANCH   1  31
TORSDOF 8
ENDMDL
MODEL 5
REMARK VINA RESULT:      -6.3      1.020      1.596
REMARK  Name = 
REMARK  9 active torsions:
REMARK  status: ('A' for Active; 'I' for Inactive)
REMARK    1  A    between atoms: C_1  and  O_2
REMARK    2  A    between atoms: O_2  and  C_3
REMARK    3  A    between atoms: C_6  and  C_7
REMARK    4  A    between atoms: C_7  and  C_8
REMARK    5  A    between atoms: C_7  and  C_17
REMARK    6  A    between atoms: C_12  and  S_13
REMARK    7  A    between atoms: C_15  and  O_16
REMARK    8  A    between atoms: C_21  and  S_22
REMARK    9  A    between atoms: C_24  and  O_25
REMARK                            x       y       z     vdW  Elec       q    Type
REMARK                         _______ _______ _______ _____ _____    ______ ____
ROOT
ATOM      1  C   UNL     1       6.103   4.965  17.608  0.00  0.00    +0.000 C 
ENDROOT
BRANCH   1   2
ATOM      2  C   UNL     1       6.868   6.261  17.876  0.00  0.00    +0.000 A 
ATOM      3  C   UNL     1       6.665   7.426  17.152  0.00  0.00    +0.000 A 
ATOM      4  N   UNL     1       5.686   7.542  16.169  0.00  0.00    +0.000 N 
ATOM      5  N   UNL     1       7.361   8.553  17.370  0.00  0.00    +0.000 NA
ATOM      6  C   UNL     1       8.281   8.521  18.342  0.00  0.00    +0.000 A 
ATOM      7  N   UNL     1       8.534   7.477  19.137  0.00  0.00    +0.000 NA
ATOM      8  C   UNL     1       7.807   6.391  18.874  0.00  0.00    +0.000 A 
ATOM      9  H   UNL     1       5.765   6.839  15.443  0.00  0.00    +0.000 HD
ATOM     10  H   UNL     1       5.745   8.481  15.778  0.00  0.00    +0.000 HD
BRANCH   6  11
ATOM     11  S   UNL     1       9.252   9.980  18.572  0.00  0.00    +0.000 S 
ATOM     12  H   UNL     1       9.130  10.366  17.298  0.00  0.00    +0.000 HD
ENDBRANCH   6  11
BRANCH   8  13
ATOM     13  O   UNL     1       8.084   5.372  19.732  0.00  0.00    +0.000 OA
ATOM     14  H   UNL     1       8.917   5.039  19.348  0.00  0.00    +0.000 HD
ENDBRANCH   8  13
ENDBRANCH   1   2
BRANCH   1  15
ATOM     15  C   UNL     1       4.788   4.820  18.381  0.00  0.00    +0.000 A 
ATOM     16  C   UNL     1       3.663   5.626  18.334  0.00  0.00    +0.000 A 
ATOM     17  N   UNL     1       3.534   6.759  17.547  0.00  0.00    +0.000 N 
ATOM     18  N   UNL     1       2.538   5.368  19.030  0.00  0.00    +0.000 NA
ATOM     19  C   UNL     1       2.525   4.285  19.813  0.00  0.00    +0.000 A 
ATOM     20  N   UNL     1       3.537   3.434  19.955  0.00  0.00    +0.000 NA
ATOM     21  C   UNL     1       4.614   3.728  19.223  0.00  0.00    +0.000 A 
ATOM     22  H   UNL     1       4.264   7.436  17.722  0.00  0.00    +0.000 HD
ATOM     23  H   UNL     1       2.619   7.163  17.727  0.00  0.00    +0.000 HD
BRANCH  19  24
ATOM     24  S   UNL     1       1.035   3.961  20.702  0.00  0.00    +0.000 S 
ATOM     25  H   UNL     1       1.637   3.150  21.581  0.00  0.00    +0.000 HD
ENDBRANCH  19  24
BRANCH  21  26
ATOM     26  O   UNL     1       5.593   2.797  19.385  0.00  0.00    +0.000 OA
ATOM     27  H   UNL     1       5.451   2.252  18.590  0.00  0.00    +0.000 HD
ENDBRANCH  21  26
ENDBRANCH   1  15
BRANCH   1  31
ATOM     28  C   UNL     1       6.199   3.884  13.383  0.00  0.00    +0.000 A 
ATOM     29  C   UNL     1       5.052   3.678  14.147  0.00  0.00    +0.000 A 
ATOM     30  C   UNL     1       5.014   4.056  15.494  0.00  0.00    +0.000 A 
ATOM     31  C   UNL     1       6.141   4.621  16.112  0.00  0.00    +0.000 A 
ATOM     32  C   UNL     1       7.300   4.794  15.337  0.00  0.00    +0.000 A 
ATOM     33  C   UNL     1       7.325   4.443  13.982  0.00  0.00    +0.000 A 
BRANCH  28  35
ATOM     34  C   UNL     1       4.816   3.186  11.596  0.00  0.00    +0.000 C 
ATOM     35  O   UNL     1       6.124   3.454  12.086  0.00  0.00    +0.000 OA
ENDBRANCH  28  35
ENDBRANCH   1  31
TORSDOF 8
ENDMDL
MODEL 6
REMARK VINA RESULT:      -6.1      7.436      9.632
REMARK  Name = 
REMARK  9 active torsions:
REMARK  status: ('A' for Active; 'I' for Inactive)
REMARK    1  A    between atoms: C_1  and  O_2
REMARK    2  A    between atoms: O_2  and  C_3
REMARK    3  A    between atoms: C_6  and  C_7
REMARK    4  A    between atoms: C_7  and  C_8
REMARK    5  A    between atoms: C_7  and  C_17
REMARK    6  A    between atoms: C_12  and  S_13
REMARK    7  A    between atoms: C_15  and  O_16
REMARK    8  A    between atoms: C_21  and  S_22
REMARK    9  A    between atoms: C_24  and  O_25
REMARK                            x       y       z     vdW  Elec       q    Type
REMARK                         _______ _______ _______ _____ _____    ______ ____
ROOT
ATOM      1  C   UNL     1      -0.551  10.868  19.939  0.00  0.00    +0.000 C 
ENDROOT
BRANCH   1   2
ATOM      2  C   UNL     1       0.393   9.666  19.898  0.00  0.00    +0.000 A 
ATOM      3  C   UNL     1       1.324   9.466  18.892  0.00  0.00    +0.000 A 
ATOM      4  N   UNL     1       1.539  10.386  17.869  0.00  0.00    +0.000 N 
ATOM      5  N   UNL     1       2.131   8.393  18.843  0.00  0.00    +0.000 NA
ATOM      6  C   UNL     1       2.011   7.497  19.831  0.00  0.00    +0.000 A 
ATOM      7  N   UNL     1       1.187   7.602  20.877  0.00  0.00    +0.000 NA
ATOM      8  C   UNL     1       0.418   8.691  20.871  0.00  0.00    +0.000 A 
ATOM      9  H   UNL     1       0.696  10.611  17.352  0.00  0.00    +0.000 HD
ATOM     10  H   UNL     1       2.256  10.007  17.252  0.00  0.00    +0.000 HD
BRANCH   6  11
ATOM     11  S   UNL     1       3.015   6.047  19.721  0.00  0.00    +0.000 S 
ATOM     12  H   UNL     1       2.241   5.477  18.790  0.00  0.00    +0.000 HD
ENDBRANCH   6  11
BRANCH   8  13
ATOM     13  O   UNL     1      -0.376   8.762  21.973  0.00  0.00    +0.000 OA
ATOM     14  H   UNL     1      -1.169   8.292  21.651  0.00  0.00    +0.000 HD
ENDBRANCH   8  13
ENDBRANCH   1   2
BRANCH   1  15
ATOM     15  C   UNL     1       0.119  12.204  20.273  0.00  0.00    +0.000 A 
ATOM     16  C   UNL     1       0.563  13.190  19.409  0.00  0.00    +0.000 A 
ATOM     17  N   UNL     1       0.478  13.127  18.027  0.00  0.00    +0.000 N 
ATOM     18  N   UNL     1       1.098  14.355  19.825  0.00  0.00    +0.000 NA
ATOM     19  C   UNL     1       1.214  14.550  21.143  0.00  0.00    +0.000 A 
ATOM     20  N   UNL     1       0.835  13.685  22.079  0.00  0.00    +0.000 NA
ATOM     21  C   UNL     1       0.292  12.561  21.605  0.00  0.00    +0.000 A 
ATOM     22  H   UNL     1       0.929  12.306  17.649  0.00  0.00    +0.000 HD
ATOM     23  H   UNL     1       0.896  13.973  17.649  0.00  0.00    +0.000 HD
BRANCH  19  24
ATOM     24  S   UNL     1       1.903  16.090  21.664  0.00  0.00    +0.000 S 
ATOM     25  H   UNL     1       3.104  15.828  21.134  0.00  0.00    +0.000 HD
ENDBRANCH  19  24
BRANCH  21  26
ATOM     26  O   UNL     1      -0.108  11.741  22.615  0.00  0.00    +0.000 OA
ATOM     27  H   UNL     1      -0.969  11.442  22.269  0.00  0.00    +0.000 HD
ENDBRANCH  21  26
ENDBRANCH   1  15
BRANCH   1  31
ATOM     28  C   UNL     1      -3.332  10.699  16.582  0.00  0.00    +0.000 A 
ATOM     29  C   UNL     1      -2.205   9.878  16.619  0.00  0.00    +0.000 A 
ATOM     30  C   UNL     1      -1.333   9.912  17.713  0.00  0.00    +0.000 A 
ATOM     31  C   UNL     1      -1.557  10.796  18.781  0.00  0.00    +0.000 A 
ATOM     32  C   UNL     1      -2.679  11.639  18.715  0.00  0.00    +0.000 A 
ATOM     33  C   UNL     1      -3.566  11.581  17.634  0.00  0.00    +0.000 A 
BRANCH  28  35
ATOM     34  C   UNL     1      -3.422  10.133  14.287  0.00  0.00    +0.000 C 
ATOM     35  O   UNL     1      -4.096  10.594  15.452  0.00  0.00    +0.000 OA
ENDBRANCH  28  35
ENDBRANCH   1  31
TORSDOF 8
ENDMDL
MODEL 7
REMARK VINA RESULT:      -6.0      7.539      9.900
REMARK  Name = 
REMARK  9 active torsions:
REMARK  status: ('A' for Active; 'I' for Inactive)
REMARK    1  A    between atoms: C_1  and  O_2
REMARK    2  A    between atoms: O_2  and  C_3
REMARK    3  A    between atoms: C_6  and  C_7
REMARK    4  A    between atoms: C_7  and  C_8
REMARK    5  A    between atoms: C_7  and  C_17
REMARK    6  A    between atoms: C_12  and  S_13
REMARK    7  A    between atoms: C_15  and  O_16
REMARK    8  A    between atoms: C_21  and  S_22
REMARK    9  A    between atoms: C_24  and  O_25
REMARK                            x       y       z     vdW  Elec       q    Type
REMARK                         _______ _______ _______ _____ _____    ______ ____
ROOT
ATOM      1  C   UNL     1      -0.339  11.030  20.089  0.00  0.00    +0.000 C 
ENDROOT
BRANCH   1   2
ATOM      2  C   UNL     1       0.517   9.778  19.899  0.00  0.00    +0.000 A 
ATOM      3  C   UNL     1       0.682   8.815  20.882  0.00  0.00    +0.000 A 
ATOM      4  N   UNL     1       0.014   8.862  22.103  0.00  0.00    +0.000 N 
ATOM      5  N   UNL     1       1.459   7.731  20.723  0.00  0.00    +0.000 NA
ATOM      6  C   UNL     1       2.085   7.600  19.547  0.00  0.00    +0.000 A 
ATOM      7  N   UNL     1       1.969   8.434  18.509  0.00  0.00    +0.000 NA
ATOM      8  C   UNL     1       1.179   9.485  18.728  0.00  0.00    +0.000 A 
ATOM      9  H   UNL     1       0.171   9.726  22.610  0.00  0.00    +0.000 HD
ATOM     10  H   UNL     1       0.311   8.057  22.653  0.00  0.00    +0.000 HD
BRANCH   6  11
ATOM     11  S   UNL     1       3.171   6.218  19.369  0.00  0.00    +0.000 S 
ATOM     12  H   UNL     1       3.488   6.519  18.106  0.00  0.00    +0.000 HD
ENDBRANCH   6  11
BRANCH   8  13
ATOM     13  O   UNL     1       1.073  10.281  17.629  0.00  0.00    +0.000 OA
ATOM     14  H   UNL     1       2.008  10.532  17.501  0.00  0.00    +0.000 HD
ENDBRANCH   8  13
ENDBRANCH   1   2
BRANCH   1  15
ATOM     15  C   UNL     1       0.451  12.325  20.302  0.00  0.00    +0.000 A 
ATOM     16  C   UNL     1       1.044  13.145  19.356  0.00  0.00    +0.000 A 
ATOM     17  N   UNL     1       1.027  12.915  17.990  0.00  0.00    +0.000 N 
ATOM     18  N   UNL     1       1.676  14.294  19.663  0.00  0.00    +0.000 NA
ATOM     19  C   UNL     1       1.741  14.643  20.952  0.00  0.00    +0.000 A 
ATOM     20  N   UNL     1       1.222  13.946  21.959  0.00  0.00    +0.000 NA
ATOM     21  C   UNL     1       0.588  12.830  21.590  0.00  0.00    +0.000 A 
ATOM     22  H   UNL     1       1.408  12.011  17.745  0.00  0.00    +0.000 HD
ATOM     23  H   UNL     1       1.553  13.659  17.541  0.00  0.00    +0.000 HD
BRANCH  19  24
ATOM     24  S   UNL     1       2.561  16.161  21.328  0.00  0.00    +0.000 S 
ATOM     25  H   UNL     1       1.908  16.325  22.485  0.00  0.00    +0.000 HD
ENDBRANCH  19  24
BRANCH  21  26
ATOM     26  O   UNL     1       0.049  12.189  22.663  0.00  0.00    +0.000 OA
ATOM     27  H   UNL     1       0.828  12.139  23.247  0.00  0.00    +0.000 HD
ENDBRANCH  21  26
ENDBRANCH   1  15
BRANCH   1  31
ATOM     28  C   UNL     1      -3.771  10.997  17.396  0.00  0.00    +0.000 A 
ATOM     29  C   UNL     1      -3.569  12.053  18.284  0.00  0.00    +0.000 A 
ATOM     30  C   UNL     1      -2.450  12.076  19.123  0.00  0.00    +0.000 A 
ATOM     31  C   UNL     1      -1.523  11.020  19.111  0.00  0.00    +0.000 A 
ATOM     32  C   UNL     1      -1.756   9.949  18.233  0.00  0.00    +0.000 A 
ATOM     33  C   UNL     1      -2.861   9.944  17.373  0.00  0.00    +0.000 A 
BRANCH  28  35
ATOM     34  C   UNL     1      -5.880  12.020  17.081  0.00  0.00    +0.000 C 
ATOM     35  O   UNL     1      -4.911  11.074  16.644  0.00  0.00    +0.000 OA
ENDBRANCH  28  35
ENDBRANCH   1  31
TORSDOF 8
ENDMDL
MODEL 8
REMARK VINA RESULT:      -5.9      9.373     12.001
REMARK  Name = 
REMARK  9 active torsions:
REMARK  status: ('A' for Active; 'I' for Inactive)
REMARK    1  A    between atoms: C_1  and  O_2
REMARK    2  A    between atoms: O_2  and  C_3
REMARK    3  A    between atoms: C_6  and  C_7
REMARK    4  A    between atoms: C_7  and  C_8
REMARK    5  A    between atoms: C_7  and  C_17
REMARK    6  A    between atoms: C_12  and  S_13
REMARK    7  A    between atoms: C_15  and  O_16
REMARK    8  A    between atoms: C_21  and  S_22
REMARK    9  A    between atoms: C_24  and  O_25
REMARK                            x       y       z     vdW  Elec       q    Type
REMARK                         _______ _______ _______ _____ _____    ______ ____
ROOT
ATOM      1  C   UNL     1      -1.219  12.714  20.994  0.00  0.00    +0.000 C 
ENDROOT
BRANCH   1   2
ATOM      2  C   UNL     1      -2.744  12.613  21.031  0.00  0.00    +0.000 A 
ATOM      3  C   UNL     1      -3.479  12.650  22.205  0.00  0.00    +0.000 A 
ATOM      4  N   UNL     1      -2.898  12.865  23.453  0.00  0.00    +0.000 N 
ATOM      5  N   UNL     1      -4.816  12.530  22.236  0.00  0.00    +0.000 NA
ATOM      6  C   UNL     1      -5.440  12.377  21.061  0.00  0.00    +0.000 A 
ATOM      7  N   UNL     1      -4.847  12.374  19.863  0.00  0.00    +0.000 NA
ATOM      8  C   UNL     1      -3.521  12.502  19.900  0.00  0.00    +0.000 A 
ATOM      9  H   UNL     1      -2.164  12.200  23.670  0.00  0.00    +0.000 HD
ATOM     10  H   UNL     1      -3.638  12.833  24.152  0.00  0.00    +0.000 HD
BRANCH   6  11
ATOM     11  S   UNL     1      -7.190  12.138  21.110  0.00  0.00    +0.000 S 
ATOM     12  H   UNL     1      -7.410  13.261  21.802  0.00  0.00    +0.000 HD
ENDBRANCH   6  11
BRANCH   8  13
ATOM     13  O   UNL     1      -2.976  12.524  18.653  0.00  0.00    +0.000 OA
ATOM     14  H   UNL     1      -3.774  12.388  18.109  0.00  0.00    +0.000 HD
ENDBRANCH   8  13
ENDBRANCH   1   2
BRANCH   1  15
ATOM     15  C   UNL     1      -0.491  11.393  20.724  0.00  0.00    +0.000 A 
ATOM     16  C   UNL     1      -0.157  10.822  19.507  0.00  0.00    +0.000 A 
ATOM     17  N   UNL     1      -0.447  11.373  18.270  0.00  0.00    +0.000 N 
ATOM     18  N   UNL     1       0.532   9.669  19.394  0.00  0.00    +0.000 NA
ATOM     19  C   UNL     1       0.893   9.047  20.521  0.00  0.00    +0.000 A 
ATOM     20  N   UNL     1       0.631   9.482  21.750  0.00  0.00    +0.000 NA
ATOM     21  C   UNL     1      -0.033  10.640  21.798  0.00  0.00    +0.000 A 
ATOM     22  H   UNL     1      -1.434  11.552  18.147  0.00  0.00    +0.000 HD
ATOM     23  H   UNL     1      -0.107  10.734  17.555  0.00  0.00    +0.000 HD
BRANCH  19  24
ATOM     24  S   UNL     1       1.808   7.548  20.348  0.00  0.00    +0.000 S 
ATOM     25  H   UNL     1       2.916   8.062  20.896  0.00  0.00    +0.000 HD
ENDBRANCH  19  24
BRANCH  21  26
ATOM     26  O   UNL     1      -0.232  11.044  23.082  0.00  0.00    +0.000 OA
ATOM     27  H   UNL     1       0.593  10.729  23.495  0.00  0.00    +0.000 HD
ENDBRANCH  21  26
ENDBRANCH   1  15
BRANCH   1  31
ATOM     28  C   UNL     1       0.099  16.324  18.931  0.00  0.00    +0.000 A 
ATOM     29  C   UNL     1       0.864  15.159  18.892  0.00  0.00    +0.000 A 
ATOM     30  C   UNL     1       0.421  13.994  19.527  0.00  0.00    +0.000 A 
ATOM     31  C   UNL     1      -0.785  13.982  20.245  0.00  0.00    +0.000 A 
ATOM     32  C   UNL     1      -1.529  15.172  20.303  0.00  0.00    +0.000 A 
ATOM     33  C   UNL     1      -1.099  16.328  19.639  0.00  0.00    +0.000 A 
BRANCH  28  35
ATOM     34  C   UNL     1      -0.221  18.105  17.407  0.00  0.00    +0.000 C 
ATOM     35  O   UNL     1       0.645  17.405  18.293  0.00  0.00    +0.000 OA
ENDBRANCH  28  35
ENDBRANCH   1  31
TORSDOF 8
ENDMDL
MODEL 9
REMARK VINA RESULT:      -5.8      7.532     10.129
REMARK  Name = 
REMARK  9 active torsions:
REMARK  status: ('A' for Active; 'I' for Inactive)
REMARK    1  A    between atoms: C_1  and  O_2
REMARK    2  A    between atoms: O_2  and  C_3
REMARK    3  A    between atoms: C_6  and  C_7
REMARK    4  A    between atoms: C_7  and  C_8
REMARK    5  A    between atoms: C_7  and  C_17
REMARK    6  A    between atoms: C_12  and  S_13
REMARK    7  A    between atoms: C_15  and  O_16
REMARK    8  A    between atoms: C_21  and  S_22
REMARK    9  A    between atoms: C_24  and  O_25
REMARK                            x       y       z     vdW  Elec       q    Type
REMARK                         _______ _______ _______ _____ _____    ______ ____
ROOT
ATOM      1  C   UNL     1      -0.222  11.391  19.905  0.00  0.00    +0.000 C 
ENDROOT
BRANCH   1   2
ATOM      2  C   UNL     1       0.516  10.055  19.822  0.00  0.00    +0.000 A 
ATOM      3  C   UNL     1       0.484   9.106  20.832  0.00  0.00    +0.000 A 
ATOM      4  N   UNL     1      -0.292   9.252  21.979  0.00  0.00    +0.000 N 
ATOM      5  N   UNL     1       1.158   7.946  20.769  0.00  0.00    +0.000 NA
ATOM      6  C   UNL     1       1.880   7.723  19.664  0.00  0.00    +0.000 A 
ATOM      7  N   UNL     1       1.952   8.536  18.606  0.00  0.00    +0.000 NA
ATOM      8  C   UNL     1       1.256   9.667  18.728  0.00  0.00    +0.000 A 
ATOM      9  H   UNL     1      -0.098  10.109  22.485  0.00  0.00    +0.000 HD
ATOM     10  H   UNL     1      -0.135   8.436  22.569  0.00  0.00    +0.000 HD
BRANCH   6  11
ATOM     11  S   UNL     1       2.831   6.234  19.618  0.00  0.00    +0.000 S 
ATOM     12  H   UNL     1       3.984   6.875  19.397  0.00  0.00    +0.000 HD
ENDBRANCH   6  11
BRANCH   8  13
ATOM     13  O   UNL     1       1.341  10.440  17.612  0.00  0.00    +0.000 OA
ATOM     14  H   UNL     1       0.967   9.832  16.946  0.00  0.00    +0.000 HD
ENDBRANCH   8  13
ENDBRANCH   1   2
BRANCH   1  15
ATOM     15  C   UNL     1       0.628  12.619  19.562  0.00  0.00    +0.000 A 
ATOM     16  C   UNL     1       0.510  13.479  18.483  0.00  0.00    +0.000 A 
ATOM     17  N   UNL     1      -0.437  13.363  17.479  0.00  0.00    +0.000 N 
ATOM     18  N   UNL     1       1.292  14.564  18.312  0.00  0.00    +0.000 NA
ATOM     19  C   UNL     1       2.235  14.802  19.229  0.00  0.00    +0.000 A 
ATOM     20  N   UNL     1       2.458  14.054  20.306  0.00  0.00    +0.000 NA
ATOM     21  C   UNL     1       1.637  13.009  20.434  0.00  0.00    +0.000 A 
ATOM     22  H   UNL     1      -0.406  12.463  17.020  0.00  0.00    +0.000 HD
ATOM     23  H   UNL     1      -0.278  14.112  16.810  0.00  0.00    +0.000 HD
BRANCH  19  24
ATOM     24  S   UNL     1       3.235  16.237  18.992  0.00  0.00    +0.000 S 
ATOM     25  H   UNL     1       2.757  16.470  17.763  0.00  0.00    +0.000 HD
ENDBRANCH  19  24
BRANCH  21  26
ATOM     26  O   UNL     1       1.896  12.313  21.574  0.00  0.00    +0.000 OA
ATOM     27  H   UNL     1       0.991  12.059  21.834  0.00  0.00    +0.000 HD
ENDBRANCH  21  26
ENDBRANCH   1  15
BRANCH   1  31
ATOM     28  C   UNL     1      -4.191  11.047  18.129  0.00  0.00    +0.000 A 
ATOM     29  C   UNL     1      -3.151  10.212  17.722  0.00  0.00    +0.000 A 
ATOM     30  C   UNL     1      -1.889  10.303  18.318  0.00  0.00    +0.000 A 
ATOM     31  C   UNL     1      -1.633  11.260  19.314  0.00  0.00    +0.000 A 
ATOM     32  C   UNL     1      -2.681  12.115  19.691  0.00  0.00    +0.000 A 
ATOM     33  C   UNL     1      -3.953  12.000  19.115  0.00  0.00    +0.000 A 
BRANCH  28  35
ATOM     34  C   UNL     1      -6.552  11.175  18.198  0.00  0.00    +0.000 C 
ATOM     35  O   UNL     1      -5.373  10.879  17.459  0.00  0.00    +0.000 OA
ENDBRANCH  28  35
ENDBRANCH   1  31
TORSDOF 8
ENDMDL
