MODEL 1
REMARK VINA RESULT:      -7.7      0.000      0.000
REMARK  Name = 
REMARK  10 active torsions:
REMARK  status: ('A' for Active; 'I' for Inactive)
REMARK    1  A    between atoms: C_4  and  C_5
REMARK    2  A    between atoms: N_11  and  C_12
REMARK    3  A    between atoms: C_12  and  C_13
REMARK    4  A    between atoms: C_13  and  C_14
REMARK    5  A    between atoms: C_13  and  O_16
REMARK    6  A    between atoms: C_14  and  O_15
REMARK    7  A    between atoms: O_16  and  C_17
REMARK    8  A    between atoms: C_17  and  P_18
REMARK    9  A    between atoms: P_18  and  O_20
REMARK   10  A    between atoms: P_18  and  O_21
REMARK                            x       y       z     vdW  Elec       q    Type
REMARK                         _______ _______ _______ _____ _____    ______ ____
ROOT
ATOM      1  N   UNL     1       0.859   1.826  18.623  0.00  0.00    +0.000 N 
ATOM      2  C   UNL     1       1.878   2.653  18.956  0.00  0.00    +0.000 A 
ATOM      3  N   UNL     1       1.622   3.975  19.041  0.00  0.00    +0.000 NA
ATOM      4  C   UNL     1       2.634   4.791  19.112  0.00  0.00    +0.000 A 
ATOM      5  N   UNL     1       3.927   4.284  19.159  0.00  0.00    +0.000 N 
ATOM      6  C   UNL     1       4.027   2.973  19.569  0.00  0.00    +0.000 A 
ATOM      7  O   UNL     1       4.976   2.561  20.222  0.00  0.00    +0.000 OA
ATOM      8  N   UNL     1       3.024   2.134  19.216  0.00  0.00    +0.000 NA
ATOM      9  H   UNL     1      -0.044   2.183  18.904  0.00  0.00    +0.000 HD
ATOM     10  H   UNL     1       1.038   0.873  18.910  0.00  0.00    +0.000 HD
ENDROOT
BRANCH   4  11
ATOM     11  C   UNL     1       2.327   6.273  19.262  0.00  0.00    +0.000 A 
ATOM     12  C   UNL     1       2.426   7.077  18.111  0.00  0.00    +0.000 A 
ATOM     13  C   UNL     1       2.045   8.425  18.133  0.00  0.00    +0.000 A 
ATOM     14  C   UNL     1       1.531   8.990  19.297  0.00  0.00    +0.000 A 
ATOM     15  C   UNL     1       1.472   8.228  20.456  0.00  0.00    +0.000 A 
ATOM     16  C   UNL     1       1.920   6.902  20.447  0.00  0.00    +0.000 A 
ENDBRANCH   4  11
BRANCH   5  17
ATOM     17  C   UNL     1       5.087   5.146  19.292  0.00  0.00    +0.000 C 
BRANCH  17  18
ATOM     18  C   UNL     1       6.015   5.534  18.116  0.00  0.00    +0.000 C 
BRANCH  18  19
ATOM     19  C   UNL     1       7.498   5.261  18.427  0.00  0.00    +0.000 C 
BRANCH  19  20
ATOM     20  O   UNL     1       7.957   4.059  17.805  0.00  0.00    +0.000 OA
ATOM     21  H   UNL     1       8.680   4.292  17.199  0.00  0.00    +0.000 HD
ENDBRANCH  19  20
ENDBRANCH  18  19
BRANCH  18  22
ATOM     22  O   UNL     1       5.652   4.741  16.937  0.00  0.00    +0.000 OA
BRANCH  22  23
ATOM     23  C   UNL     1       5.807   5.521  15.751  0.00  0.00    +0.000 C 
BRANCH  23  24
ATOM     24  P   UNL     1       6.243   4.496  14.299  0.00  0.00    +0.000 P 
ATOM     25  O   UNL     1       7.616   5.166  14.207  0.00  0.00    +0.000 OA
BRANCH  24  26
ATOM     26  O   UNL     1       6.414   3.176  15.255  0.00  0.00    +0.000 OA
ATOM     27  H   UNL     1       6.515   2.351  14.739  0.00  0.00    +0.000 HD
ENDBRANCH  24  26
BRANCH  24  28
ATOM     28  O   UNL     1       6.653   3.527  12.925  0.00  0.00    +0.000 OA
ATOM     29  H   UNL     1       5.784   3.194  12.620  0.00  0.00    +0.000 HD
ENDBRANCH  24  28
ENDBRANCH  23  24
ENDBRANCH  22  23
ENDBRANCH  18  22
ENDBRANCH  17  18
ENDBRANCH   5  17
TORSDOF 10
ENDMDL
MODEL 2
REMARK VINA RESULT:      -7.0      0.903      1.478
REMARK  Name = 
REMARK  10 active torsions:
REMARK  status: ('A' for Active; 'I' for Inactive)
REMARK    1  A    between atoms: C_4  and  C_5
REMARK    2  A    between atoms: N_11  and  C_12
REMARK    3  A    between atoms: C_12  and  C_13
REMARK    4  A    between atoms: C_13  and  C_14
REMARK    5  A    between atoms: C_13  and  O_16
REMARK    6  A    between atoms: C_14  and  O_15
REMARK    7  A    between atoms: O_16  and  C_17
REMARK    8  A    between atoms: C_17  and  P_18
REMARK    9  A    between atoms: P_18  and  O_20
REMARK   10  A    between atoms: P_18  and  O_21
REMARK                            x       y       z     vdW  Elec       q    Type
REMARK                         _______ _______ _______ _____ _____    ______ ____
ROOT
ATOM      1  N   UNL     1       1.396   1.592  18.248  0.00  0.00    +0.000 N 
ATOM      2  C   UNL     1       2.293   2.498  18.705  0.00  0.00    +0.000 A 
ATOM      3  N   UNL     1       1.931   3.798  18.722  0.00  0.00    +0.000 NA
ATOM      4  C   UNL     1       2.859   4.689  18.917  0.00  0.00    +0.000 A 
ATOM      5  N   UNL     1       4.166   4.282  19.160  0.00  0.00    +0.000 N 
ATOM      6  C   UNL     1       4.302   2.987  19.610  0.00  0.00    +0.000 A 
ATOM      7  O   UNL     1       5.175   2.657  20.401  0.00  0.00    +0.000 OA
ATOM      8  N   UNL     1       3.424   2.071  19.137  0.00  0.00    +0.000 NA
ATOM      9  H   UNL     1       0.438   1.883  18.390  0.00  0.00    +0.000 HD
ATOM     10  H   UNL     1       1.601   0.659  18.580  0.00  0.00    +0.000 HD
ENDROOT
BRANCH   4  11
ATOM     11  C   UNL     1       2.426   6.145  18.988  0.00  0.00    +0.000 A 
ATOM     12  C   UNL     1       1.942   6.620  20.221  0.00  0.00    +0.000 A 
ATOM     13  C   UNL     1       1.636   7.974  20.407  0.00  0.00    +0.000 A 
ATOM     14  C   UNL     1       1.834   8.887  19.374  0.00  0.00    +0.000 A 
ATOM     15  C   UNL     1       2.264   8.431  18.136  0.00  0.00    +0.000 A 
ATOM     16  C   UNL     1       2.501   7.067  17.934  0.00  0.00    +0.000 A 
ENDBRANCH   4  11
BRANCH   5  17
ATOM     17  C   UNL     1       5.228   5.231  19.438  0.00  0.00    +0.000 C 
BRANCH  17  18
ATOM     18  C   UNL     1       6.301   5.654  18.405  0.00  0.00    +0.000 C 
BRANCH  18  19
ATOM     19  C   UNL     1       7.719   5.660  19.005  0.00  0.00    +0.000 C 
BRANCH  19  20
ATOM     20  O   UNL     1       8.321   6.954  18.928  0.00  0.00    +0.000 OA
ATOM     21  H   UNL     1       7.942   7.504  19.633  0.00  0.00    +0.000 HD
ENDBRANCH  19  20
ENDBRANCH  18  19
BRANCH  18  22
ATOM     22  O   UNL     1       6.292   4.704  17.289  0.00  0.00    +0.000 OA
BRANCH  22  23
ATOM     23  C   UNL     1       6.806   5.324  16.109  0.00  0.00    +0.000 C 
BRANCH  23  24
ATOM     24  P   UNL     1       6.567   4.287  14.620  0.00  0.00    +0.000 P 
ATOM     25  O   UNL     1       5.092   4.690  14.546  0.00  0.00    +0.000 OA
BRANCH  24  26
ATOM     26  O   UNL     1       7.405   5.362  13.711  0.00  0.00    +0.000 OA
ATOM     27  H   UNL     1       7.584   5.030  12.808  0.00  0.00    +0.000 HD
ENDBRANCH  24  26
BRANCH  24  28
ATOM     28  O   UNL     1       6.341   3.306  13.213  0.00  0.00    +0.000 OA
ATOM     29  H   UNL     1       6.439   2.394  13.559  0.00  0.00    +0.000 HD
ENDBRANCH  24  28
ENDBRANCH  23  24
ENDBRANCH  22  23
ENDBRANCH  18  22
ENDBRANCH  17  18
ENDBRANCH   5  17
TORSDOF 10
ENDMDL
MODEL 3
REMARK VINA RESULT:      -7.0      2.881      4.933
REMARK  Name = 
REMARK  10 active torsions:
REMARK  status: ('A' for Active; 'I' for Inactive)
REMARK    1  A    between atoms: C_4  and  C_5
REMARK    2  A    between atoms: N_11  and  C_12
REMARK    3  A    between atoms: C_12  and  C_13
REMARK    4  A    between atoms: C_13  and  C_14
REMARK    5  A    between atoms: C_13  and  O_16
REMARK    6  A    between atoms: C_14  and  O_15
REMARK    7  A    between atoms: O_16  and  C_17
REMARK    8  A    between atoms: C_17  and  P_18
REMARK    9  A    between atoms: P_18  and  O_20
REMARK   10  A    between atoms: P_18  and  O_21
REMARK                            x       y       z     vdW  Elec       q    Type
REMARK                         _______ _______ _______ _____ _____    ______ ____
ROOT
ATOM      1  N   UNL     1       1.099   9.374  21.781  0.00  0.00    +0.000 N 
ATOM      2  C   UNL     1       1.427   8.551  20.758  0.00  0.00    +0.000 A 
ATOM      3  N   UNL     1       1.373   7.219  20.971  0.00  0.00    +0.000 NA
ATOM      4  C   UNL     1       1.920   6.436  20.087  0.00  0.00    +0.000 A 
ATOM      5  N   UNL     1       2.482   6.979  18.938  0.00  0.00    +0.000 N 
ATOM      6  C   UNL     1       2.036   8.239  18.607  0.00  0.00    +0.000 A 
ATOM      7  O   UNL     1       1.916   8.608  17.446  0.00  0.00    +0.000 OA
ATOM      8  N   UNL     1       1.732   9.076  19.627  0.00  0.00    +0.000 NA
ATOM      9  H   UNL     1       0.439   8.957  22.424  0.00  0.00    +0.000 HD
ATOM     10  H   UNL     1       0.838  10.295  21.455  0.00  0.00    +0.000 HD
ENDROOT
BRANCH   4  11
ATOM     11  C   UNL     1       1.803   4.937  20.315  0.00  0.00    +0.000 A 
ATOM     12  C   UNL     1       1.111   4.185  19.347  0.00  0.00    +0.000 A 
ATOM     13  C   UNL     1       1.060   2.786  19.416  0.00  0.00    +0.000 A 
ATOM     14  C   UNL     1       1.722   2.109  20.436  0.00  0.00    +0.000 A 
ATOM     15  C   UNL     1       2.368   2.834  21.428  0.00  0.00    +0.000 A 
ATOM     16  C   UNL     1       2.357   4.233  21.394  0.00  0.00    +0.000 A 
ENDBRANCH   4  11
BRANCH   5  17
ATOM     17  C   UNL     1       3.057   6.147  17.896  0.00  0.00    +0.000 C 
BRANCH  17  18
ATOM     18  C   UNL     1       4.533   5.681  17.879  0.00  0.00    +0.000 C 
BRANCH  18  19
ATOM     19  C   UNL     1       4.771   4.534  16.880  0.00  0.00    +0.000 C 
BRANCH  19  20
ATOM     20  O   UNL     1       5.213   3.344  17.535  0.00  0.00    +0.000 OA
ATOM     21  H   UNL     1       6.179   3.291  17.444  0.00  0.00    +0.000 HD
ENDBRANCH  19  20
ENDBRANCH  18  19
BRANCH  18  22
ATOM     22  O   UNL     1       5.386   6.805  17.481  0.00  0.00    +0.000 OA
BRANCH  22  23
ATOM     23  C   UNL     1       6.750   6.388  17.410  0.00  0.00    +0.000 C 
BRANCH  23  24
ATOM     24  P   UNL     1       7.401   5.864  19.038  0.00  0.00    +0.000 P 
ATOM     25  O   UNL     1       8.011   4.605  18.416  0.00  0.00    +0.000 OA
BRANCH  24  26
ATOM     26  O   UNL     1       8.547   7.034  18.980  0.00  0.00    +0.000 OA
ATOM     27  H   UNL     1       8.609   7.539  19.815  0.00  0.00    +0.000 HD
ENDBRANCH  24  26
BRANCH  24  28
ATOM     28  O   UNL     1       8.015   5.368  20.577  0.00  0.00    +0.000 OA
ATOM     29  H   UNL     1       7.690   6.067  21.183  0.00  0.00    +0.000 HD
ENDBRANCH  24  28
ENDBRANCH  23  24
ENDBRANCH  22  23
ENDBRANCH  18  22
ENDBRANCH  17  18
ENDBRANCH   5  17
TORSDOF 10
ENDMDL
MODEL 4
REMARK VINA RESULT:      -7.0      3.591      6.729
REMARK  Name = 
REMARK  10 active torsions:
REMARK  status: ('A' for Active; 'I' for Inactive)
REMARK    1  A    between atoms: C_4  and  C_5
REMARK    2  A    between atoms: N_11  and  C_12
REMARK    3  A    between atoms: C_12  and  C_13
REMARK    4  A    between atoms: C_13  and  C_14
REMARK    5  A    between atoms: C_13  and  O_16
REMARK    6  A    between atoms: C_14  and  O_15
REMARK    7  A    between atoms: O_16  and  C_17
REMARK    8  A    between atoms: C_17  and  P_18
REMARK    9  A    between atoms: P_18  and  O_20
REMARK   10  A    between atoms: P_18  and  O_21
REMARK                            x       y       z     vdW  Elec       q    Type
REMARK                         _______ _______ _______ _____ _____    ______ ____
ROOT
ATOM      1  N   UNL     1       7.818   8.108  17.503  0.00  0.00    +0.000 N 
ATOM      2  C   UNL     1       7.258   6.889  17.322  0.00  0.00    +0.000 A 
ATOM      3  N   UNL     1       7.189   6.402  16.065  0.00  0.00    +0.000 NA
ATOM      4  C   UNL     1       6.437   5.361  15.853  0.00  0.00    +0.000 A 
ATOM      5  N   UNL     1       5.785   4.753  16.919  0.00  0.00    +0.000 N 
ATOM      6  C   UNL     1       6.321   5.014  18.160  0.00  0.00    +0.000 A 
ATOM      7  O   UNL     1       6.319   4.189  19.063  0.00  0.00    +0.000 OA
ATOM      8  N   UNL     1       6.860   6.242  18.357  0.00  0.00    +0.000 NA
ATOM      9  H   UNL     1       8.510   8.331  16.801  0.00  0.00    +0.000 HD
ATOM     10  H   UNL     1       8.134   8.240  18.455  0.00  0.00    +0.000 HD
ENDROOT
BRANCH   4  11
ATOM     11  C   UNL     1       6.414   4.792  14.443  0.00  0.00    +0.000 A 
ATOM     12  C   UNL     1       7.528   5.045  13.621  0.00  0.00    +0.000 A 
ATOM     13  C   UNL     1       7.642   4.459  12.354  0.00  0.00    +0.000 A 
ATOM     14  C   UNL     1       6.661   3.586  11.893  0.00  0.00    +0.000 A 
ATOM     15  C   UNL     1       5.531   3.362  12.667  0.00  0.00    +0.000 A 
ATOM     16  C   UNL     1       5.387   4.005  13.902  0.00  0.00    +0.000 A 
ENDBRANCH   4  11
BRANCH   5  17
ATOM     17  C   UNL     1       4.979   3.558  16.746  0.00  0.00    +0.000 C 
BRANCH  17  18
ATOM     18  C   UNL     1       3.477   3.469  17.110  0.00  0.00    +0.000 C 
BRANCH  18  19
ATOM     19  C   UNL     1       3.206   2.441  18.224  0.00  0.00    +0.000 C 
BRANCH  19  20
ATOM     20  O   UNL     1       4.167   2.535  19.277  0.00  0.00    +0.000 OA
ATOM     21  H   UNL     1       4.443   3.464  19.351  0.00  0.00    +0.000 HD
ENDBRANCH  19  20
ENDBRANCH  18  19
BRANCH  18  22
ATOM     22  O   UNL     1       3.022   4.778  17.590  0.00  0.00    +0.000 OA
BRANCH  22  23
ATOM     23  C   UNL     1       1.887   4.624  18.442  0.00  0.00    +0.000 C 
BRANCH  23  24
ATOM     24  P   UNL     1       1.916   5.787  19.854  0.00  0.00    +0.000 P 
ATOM     25  O   UNL     1       1.150   4.788  20.725  0.00  0.00    +0.000 OA
BRANCH  24  26
ATOM     26  O   UNL     1       3.513   5.502  20.084  0.00  0.00    +0.000 OA
ATOM     27  H   UNL     1       3.890   4.913  19.401  0.00  0.00    +0.000 HD
ENDBRANCH  24  26
BRANCH  24  28
ATOM     28  O   UNL     1       1.942   6.888  21.188  0.00  0.00    +0.000 OA
ATOM     29  H   UNL     1       2.373   7.684  20.812  0.00  0.00    +0.000 HD
ENDBRANCH  24  28
ENDBRANCH  23  24
ENDBRANCH  22  23
ENDBRANCH  18  22
ENDBRANCH  17  18
ENDBRANCH   5  17
TORSDOF 10
ENDMDL
MODEL 5
REMARK VINA RESULT:      -6.9      0.680      1.275
REMARK  Name = 
REMARK  10 active torsions:
REMARK  status: ('A' for Active; 'I' for Inactive)
REMARK    1  A    between atoms: C_4  and  C_5
REMARK    2  A    between atoms: N_11  and  C_12
REMARK    3  A    between atoms: C_12  and  C_13
REMARK    4  A    between atoms: C_13  and  C_14
REMARK    5  A    between atoms: C_13  and  O_16
REMARK    6  A    between atoms: C_14  and  O_15
REMARK    7  A    between atoms: O_16  and  C_17
REMARK    8  A    between atoms: C_17  and  P_18
REMARK    9  A    between atoms: P_18  and  O_20
REMARK   10  A    between atoms: P_18  and  O_21
REMARK                            x       y       z     vdW  Elec       q    Type
REMARK                         _______ _______ _______ _____ _____    ______ ____
ROOT
ATOM      1  N   UNL     1       0.693   1.591  18.714  0.00  0.00    +0.000 N 
ATOM      2  C   UNL     1       1.698   2.445  19.017  0.00  0.00    +0.000 A 
ATOM      3  N   UNL     1       1.419   3.765  19.062  0.00  0.00    +0.000 NA
ATOM      4  C   UNL     1       2.417   4.600  19.103  0.00  0.00    +0.000 A 
ATOM      5  N   UNL     1       3.718   4.117  19.158  0.00  0.00    +0.000 N 
ATOM      6  C   UNL     1       3.844   2.822  19.608  0.00  0.00    +0.000 A 
ATOM      7  O   UNL     1       4.803   2.447  20.269  0.00  0.00    +0.000 OA
ATOM      8  N   UNL     1       2.854   1.955  19.286  0.00  0.00    +0.000 NA
ATOM      9  H   UNL     1      -0.215   1.941  18.989  0.00  0.00    +0.000 HD
ATOM     10  H   UNL     1       0.889   0.651  19.029  0.00  0.00    +0.000 HD
ENDROOT
BRANCH   4  11
ATOM     11  C   UNL     1       2.084   6.080  19.209  0.00  0.00    +0.000 A 
ATOM     12  C   UNL     1       1.634   6.558  20.453  0.00  0.00    +0.000 A 
ATOM     13  C   UNL     1       1.421   7.925  20.672  0.00  0.00    +0.000 A 
ATOM     14  C   UNL     1       1.682   8.846  19.661  0.00  0.00    +0.000 A 
ATOM     15  C   UNL     1       2.079   8.392  18.411  0.00  0.00    +0.000 A 
ATOM     16  C   UNL     1       2.222   7.020  18.177  0.00  0.00    +0.000 A 
ENDBRANCH   4  11
BRANCH   5  17
ATOM     17  C   UNL     1       4.864   5.004  19.259  0.00  0.00    +0.000 C 
BRANCH  17  18
ATOM     18  C   UNL     1       5.727   5.441  18.051  0.00  0.00    +0.000 C 
BRANCH  18  19
ATOM     19  C   UNL     1       7.015   6.163  18.485  0.00  0.00    +0.000 C 
BRANCH  19  20
ATOM     20  O   UNL     1       8.184   5.416  18.138  0.00  0.00    +0.000 OA
ATOM     21  H   UNL     1       8.214   4.626  18.702  0.00  0.00    +0.000 HD
ENDBRANCH  19  20
ENDBRANCH  18  19
BRANCH  18  22
ATOM     22  O   UNL     1       6.116   4.253  17.285  0.00  0.00    +0.000 OA
BRANCH  22  23
ATOM     23  C   UNL     1       5.482   4.262  16.006  0.00  0.00    +0.000 C 
BRANCH  23  24
ATOM     24  P   UNL     1       6.608   4.823  14.677  0.00  0.00    +0.000 P 
ATOM     25  O   UNL     1       7.825   4.583  15.574  0.00  0.00    +0.000 OA
BRANCH  24  26
ATOM     26  O   UNL     1       6.346   3.438  13.841  0.00  0.00    +0.000 OA
ATOM     27  H   UNL     1       6.524   3.538  12.884  0.00  0.00    +0.000 HD
ENDBRANCH  24  26
BRANCH  24  28
ATOM     28  O   UNL     1       7.671   5.354  13.420  0.00  0.00    +0.000 OA
ATOM     29  H   UNL     1       7.568   4.663  12.733  0.00  0.00    +0.000 HD
ENDBRANCH  24  28
ENDBRANCH  23  24
ENDBRANCH  22  23
ENDBRANCH  18  22
ENDBRANCH  17  18
ENDBRANCH   5  17
TORSDOF 10
ENDMDL
MODEL 6
REMARK VINA RESULT:      -6.9      2.419      4.175
REMARK  Name = 
REMARK  10 active torsions:
REMARK  status: ('A' for Active; 'I' for Inactive)
REMARK    1  A    between atoms: C_4  and  C_5
REMARK    2  A    between atoms: N_11  and  C_12
REMARK    3  A    between atoms: C_12  and  C_13
REMARK    4  A    between atoms: C_13  and  C_14
REMARK    5  A    between atoms: C_13  and  O_16
REMARK    6  A    between atoms: C_14  and  O_15
REMARK    7  A    between atoms: O_16  and  C_17
REMARK    8  A    between atoms: C_17  and  P_18
REMARK    9  A    between atoms: P_18  and  O_20
REMARK   10  A    between atoms: P_18  and  O_21
REMARK                            x       y       z     vdW  Elec       q    Type
REMARK                         _______ _______ _______ _____ _____    ______ ____
ROOT
ATOM      1  N   UNL     1       0.638   9.270  21.531  0.00  0.00    +0.000 N 
ATOM      2  C   UNL     1       1.208   8.482  20.589  0.00  0.00    +0.000 A 
ATOM      3  N   UNL     1       1.198   7.147  20.786  0.00  0.00    +0.000 NA
ATOM      4  C   UNL     1       1.952   6.411  20.023  0.00  0.00    +0.000 A 
ATOM      5  N   UNL     1       2.689   7.002  19.004  0.00  0.00    +0.000 N 
ATOM      6  C   UNL     1       2.236   8.236  18.594  0.00  0.00    +0.000 A 
ATOM      7  O   UNL     1       2.317   8.613  17.433  0.00  0.00    +0.000 OA
ATOM      8  N   UNL     1       1.689   9.040  19.538  0.00  0.00    +0.000 NA
ATOM      9  H   UNL     1      -0.105   8.805  22.034  0.00  0.00    +0.000 HD
ATOM     10  H   UNL     1       0.387  10.177  21.162  0.00  0.00    +0.000 HD
ENDROOT
BRANCH   4  11
ATOM     11  C   UNL     1       1.889   4.904  20.223  0.00  0.00    +0.000 A 
ATOM     12  C   UNL     1       1.335   4.134  19.183  0.00  0.00    +0.000 A 
ATOM     13  C   UNL     1       1.347   2.734  19.232  0.00  0.00    +0.000 A 
ATOM     14  C   UNL     1       1.938   2.074  20.306  0.00  0.00    +0.000 A 
ATOM     15  C   UNL     1       2.446   2.815  21.365  0.00  0.00    +0.000 A 
ATOM     16  C   UNL     1       2.368   4.212  21.344  0.00  0.00    +0.000 A 
ENDBRANCH   4  11
BRANCH   5  17
ATOM     17  C   UNL     1       3.503   6.221  18.091  0.00  0.00    +0.000 C 
BRANCH  17  18
ATOM     18  C   UNL     1       4.957   5.783  18.390  0.00  0.00    +0.000 C 
BRANCH  18  19
ATOM     19  C   UNL     1       5.035   4.338  18.915  0.00  0.00    +0.000 C 
BRANCH  19  20
ATOM     20  O   UNL     1       6.313   3.750  18.660  0.00  0.00    +0.000 OA
ATOM     21  H   UNL     1       6.617   3.325  19.479  0.00  0.00    +0.000 HD
ENDBRANCH  19  20
ENDBRANCH  18  19
BRANCH  18  22
ATOM     22  O   UNL     1       5.743   5.853  17.154  0.00  0.00    +0.000 OA
BRANCH  22  23
ATOM     23  C   UNL     1       4.903   5.630  16.022  0.00  0.00    +0.000 C 
BRANCH  23  24
ATOM     24  P   UNL     1       5.684   4.533  14.782  0.00  0.00    +0.000 P 
ATOM     25  O   UNL     1       6.879   5.482  14.661  0.00  0.00    +0.000 OA
BRANCH  24  26
ATOM     26  O   UNL     1       6.052   3.442  15.948  0.00  0.00    +0.000 OA
ATOM     27  H   UNL     1       5.462   3.511  16.725  0.00  0.00    +0.000 HD
ENDBRANCH  24  26
BRANCH  24  28
ATOM     28  O   UNL     1       6.421   3.497  13.610  0.00  0.00    +0.000 OA
ATOM     29  H   UNL     1       7.010   4.104  13.114  0.00  0.00    +0.000 HD
ENDBRANCH  24  28
ENDBRANCH  23  24
ENDBRANCH  22  23
ENDBRANCH  18  22
ENDBRANCH  17  18
ENDBRANCH   5  17
TORSDOF 10
ENDMDL
MODEL 7
REMARK VINA RESULT:      -6.8      4.210      6.317
REMARK  Name = 
REMARK  10 active torsions:
REMARK  status: ('A' for Active; 'I' for Inactive)
REMARK    1  A    between atoms: C_4  and  C_5
REMARK    2  A    between atoms: N_11  and  C_12
REMARK    3  A    between atoms: C_12  and  C_13
REMARK    4  A    between atoms: C_13  and  C_14
REMARK    5  A    between atoms: C_13  and  O_16
REMARK    6  A    between atoms: C_14  and  O_15
REMARK    7  A    between atoms: O_16  and  C_17
REMARK    8  A    between atoms: C_17  and  P_18
REMARK    9  A    between atoms: P_18  and  O_20
REMARK   10  A    between atoms: P_18  and  O_21
REMARK                            x       y       z     vdW  Elec       q    Type
REMARK                         _______ _______ _______ _____ _____    ______ ____
ROOT
ATOM      1  N   UNL     1       6.391   3.707  13.726  0.00  0.00    +0.000 N 
ATOM      2  C   UNL     1       6.005   4.322  14.869  0.00  0.00    +0.000 A 
ATOM      3  N   UNL     1       5.182   3.653  15.703  0.00  0.00    +0.000 NA
ATOM      4  C   UNL     1       4.612   4.320  16.665  0.00  0.00    +0.000 A 
ATOM      5  N   UNL     1       4.908   5.666  16.841  0.00  0.00    +0.000 N 
ATOM      6  C   UNL     1       6.095   6.083  16.279  0.00  0.00    +0.000 A 
ATOM      7  O   UNL     1       6.791   6.952  16.785  0.00  0.00    +0.000 OA
ATOM      8  N   UNL     1       6.474   5.490  15.121  0.00  0.00    +0.000 NA
ATOM      9  H   UNL     1       6.411   2.700  13.810  0.00  0.00    +0.000 HD
ATOM     10  H   UNL     1       7.239   4.110  13.350  0.00  0.00    +0.000 HD
ENDROOT
BRANCH   4  11
ATOM     11  C   UNL     1       3.730   3.540  17.628  0.00  0.00    +0.000 A 
ATOM     12  C   UNL     1       4.324   3.062  18.811  0.00  0.00    +0.000 A 
ATOM     13  C   UNL     1       3.560   2.440  19.807  0.00  0.00    +0.000 A 
ATOM     14  C   UNL     1       2.182   2.310  19.655  0.00  0.00    +0.000 A 
ATOM     15  C   UNL     1       1.584   2.730  18.475  0.00  0.00    +0.000 A 
ATOM     16  C   UNL     1       2.362   3.286  17.453  0.00  0.00    +0.000 A 
ENDBRANCH   4  11
BRANCH   5  17
ATOM     17  C   UNL     1       4.343   6.442  17.930  0.00  0.00    +0.000 C 
BRANCH  17  18
ATOM     18  C   UNL     1       2.840   6.788  18.054  0.00  0.00    +0.000 C 
BRANCH  18  19
ATOM     19  C   UNL     1       2.271   6.430  19.439  0.00  0.00    +0.000 C 
BRANCH  19  20
ATOM     20  O   UNL     1       3.276   5.894  20.302  0.00  0.00    +0.000 OA
ATOM     21  H   UNL     1       3.203   4.925  20.283  0.00  0.00    +0.000 HD
ENDBRANCH  19  20
ENDBRANCH  18  19
BRANCH  18  22
ATOM     22  O   UNL     1       2.661   8.229  17.856  0.00  0.00    +0.000 OA
BRANCH  22  23
ATOM     23  C   UNL     1       1.893   8.783  18.925  0.00  0.00    +0.000 C 
BRANCH  23  24
ATOM     24  P   UNL     1       0.619   9.954  18.330  0.00  0.00    +0.000 P 
ATOM     25  O   UNL     1       0.238  10.309  19.770  0.00  0.00    +0.000 OA
BRANCH  24  26
ATOM     26  O   UNL     1       1.779  11.013  17.864  0.00  0.00    +0.000 OA
ATOM     27  H   UNL     1       2.084  11.582  18.598  0.00  0.00    +0.000 HD
ENDBRANCH  24  26
BRANCH  24  28
ATOM     28  O   UNL     1      -0.587  11.060  17.767  0.00  0.00    +0.000 OA
ATOM     29  H   UNL     1      -0.210  11.935  17.995  0.00  0.00    +0.000 HD
ENDBRANCH  24  28
ENDBRANCH  23  24
ENDBRANCH  22  23
ENDBRANCH  18  22
ENDBRANCH  17  18
ENDBRANCH   5  17
TORSDOF 10
ENDMDL
MODEL 8
REMARK VINA RESULT:      -6.8      1.251      1.743
REMARK  Name = 
REMARK  10 active torsions:
REMARK  status: ('A' for Active; 'I' for Inactive)
REMARK    1  A    between atoms: C_4  and  C_5
REMARK    2  A    between atoms: N_11  and  C_12
REMARK    3  A    between atoms: C_12  and  C_13
REMARK    4  A    between atoms: C_13  and  C_14
REMARK    5  A    between atoms: C_13  and  O_16
REMARK    6  A    between atoms: C_14  and  O_15
REMARK    7  A    between atoms: O_16  and  C_17
REMARK    8  A    between atoms: C_17  and  P_18
REMARK    9  A    between atoms: P_18  and  O_20
REMARK   10  A    between atoms: P_18  and  O_21
REMARK                            x       y       z     vdW  Elec       q    Type
REMARK                         _______ _______ _______ _____ _____    ______ ____
ROOT
ATOM      1  N   UNL     1       1.046   1.646  18.444  0.00  0.00    +0.000 N 
ATOM      2  C   UNL     1       1.975   2.511  18.912  0.00  0.00    +0.000 A 
ATOM      3  N   UNL     1       1.656   3.822  18.960  0.00  0.00    +0.000 NA
ATOM      4  C   UNL     1       2.614   4.678  19.167  0.00  0.00    +0.000 A 
ATOM      5  N   UNL     1       3.908   4.223  19.389  0.00  0.00    +0.000 N 
ATOM      6  C   UNL     1       4.006   2.916  19.810  0.00  0.00    +0.000 A 
ATOM      7  O   UNL     1       4.874   2.540  20.587  0.00  0.00    +0.000 OA
ATOM      8  N   UNL     1       3.095   2.039  19.325  0.00  0.00    +0.000 NA
ATOM      9  H   UNL     1       0.099   1.964  18.600  0.00  0.00    +0.000 HD
ATOM     10  H   UNL     1       1.223   0.699  18.753  0.00  0.00    +0.000 HD
ENDROOT
BRANCH   4  11
ATOM     11  C   UNL     1       2.229   6.145  19.273  0.00  0.00    +0.000 A 
ATOM     12  C   UNL     1       1.771   6.609  20.520  0.00  0.00    +0.000 A 
ATOM     13  C   UNL     1       1.511   7.968  20.738  0.00  0.00    +0.000 A 
ATOM     14  C   UNL     1       1.730   8.895  19.724  0.00  0.00    +0.000 A 
ATOM     15  C   UNL     1       2.134   8.453  18.471  0.00  0.00    +0.000 A 
ATOM     16  C   UNL     1       2.325   7.087  18.238  0.00  0.00    +0.000 A 
ENDBRANCH   4  11
BRANCH   5  17
ATOM     17  C   UNL     1       5.003   5.132  19.679  0.00  0.00    +0.000 C 
BRANCH  17  18
ATOM     18  C   UNL     1       6.264   5.274  18.792  0.00  0.00    +0.000 C 
BRANCH  18  19
ATOM     19  C   UNL     1       7.506   5.682  19.605  0.00  0.00    +0.000 C 
BRANCH  19  20
ATOM     20  O   UNL     1       8.214   6.760  18.987  0.00  0.00    +0.000 OA
ATOM     21  H   UNL     1       9.164   6.568  19.046  0.00  0.00    +0.000 HD
ENDBRANCH  19  20
ENDBRANCH  18  19
BRANCH  18  22
ATOM     22  O   UNL     1       6.550   3.986  18.154  0.00  0.00    +0.000 OA
BRANCH  22  23
ATOM     23  C   UNL     1       6.997   4.188  16.813  0.00  0.00    +0.000 C 
BRANCH  23  24
ATOM     24  P   UNL     1       6.151   5.594  16.004  0.00  0.00    +0.000 P 
ATOM     25  O   UNL     1       7.445   6.412  16.017  0.00  0.00    +0.000 OA
BRANCH  24  26
ATOM     26  O   UNL     1       6.111   4.780  14.582  0.00  0.00    +0.000 OA
ATOM     27  H   UNL     1       5.286   4.939  14.082  0.00  0.00    +0.000 HD
ENDBRANCH  24  26
BRANCH  24  28
ATOM     28  O   UNL     1       5.350   6.924  15.240  0.00  0.00    +0.000 OA
ATOM     29  H   UNL     1       5.904   7.094  14.449  0.00  0.00    +0.000 HD
ENDBRANCH  24  28
ENDBRANCH  23  24
ENDBRANCH  22  23
ENDBRANCH  18  22
ENDBRANCH  17  18
ENDBRANCH   5  17
TORSDOF 10
ENDMDL
MODEL 9
REMARK VINA RESULT:      -6.6      2.314      4.259
REMARK  Name = 
REMARK  10 active torsions:
REMARK  status: ('A' for Active; 'I' for Inactive)
REMARK    1  A    between atoms: C_4  and  C_5
REMARK    2  A    between atoms: N_11  and  C_12
REMARK    3  A    between atoms: C_12  and  C_13
REMARK    4  A    between atoms: C_13  and  C_14
REMARK    5  A    between atoms: C_13  and  O_16
REMARK    6  A    between atoms: C_14  and  O_15
REMARK    7  A    between atoms: O_16  and  C_17
REMARK    8  A    between atoms: C_17  and  P_18
REMARK    9  A    between atoms: P_18  and  O_20
REMARK   10  A    between atoms: P_18  and  O_21
REMARK                            x       y       z     vdW  Elec       q    Type
REMARK                         _______ _______ _______ _____ _____    ______ ____
ROOT
ATOM      1  N   UNL     1       1.464   8.456  21.761  0.00  0.00    +0.000 N 
ATOM      2  C   UNL     1       1.796   7.914  20.566  0.00  0.00    +0.000 A 
ATOM      3  N   UNL     1       1.882   6.570  20.479  0.00  0.00    +0.000 NA
ATOM      4  C   UNL     1       2.438   6.060  19.419  0.00  0.00    +0.000 A 
ATOM      5  N   UNL     1       2.866   6.895  18.395  0.00  0.00    +0.000 N 
ATOM      6  C   UNL     1       2.282   8.143  18.373  0.00  0.00    +0.000 A 
ATOM      7  O   UNL     1       2.048   8.740  17.332  0.00  0.00    +0.000 OA
ATOM      8  N   UNL     1       1.971   8.702  19.567  0.00  0.00    +0.000 NA
ATOM      9  H   UNL     1       0.891   7.842  22.325  0.00  0.00    +0.000 HD
ATOM     10  H   UNL     1       1.096   9.392  21.661  0.00  0.00    +0.000 HD
ENDROOT
BRANCH   4  11
ATOM     11  C   UNL     1       2.477   4.543  19.312  0.00  0.00    +0.000 A 
ATOM     12  C   UNL     1       1.391   3.907  18.684  0.00  0.00    +0.000 A 
ATOM     13  C   UNL     1       1.401   2.528  18.436  0.00  0.00    +0.000 A 
ATOM     14  C   UNL     1       2.509   1.762  18.784  0.00  0.00    +0.000 A 
ATOM     15  C   UNL     1       3.571   2.360  19.449  0.00  0.00    +0.000 A 
ATOM     16  C   UNL     1       3.525   3.724  19.758  0.00  0.00    +0.000 A 
ENDBRANCH   4  11
BRANCH   5  17
ATOM     17  C   UNL     1       3.443   6.376  17.168  0.00  0.00    +0.000 C 
BRANCH  17  18
ATOM     18  C   UNL     1       4.964   6.242  16.918  0.00  0.00    +0.000 C 
BRANCH  18  19
ATOM     19  C   UNL     1       5.774   7.327  17.652  0.00  0.00    +0.000 C 
BRANCH  19  20
ATOM     20  O   UNL     1       7.080   7.482  17.093  0.00  0.00    +0.000 OA
ATOM     21  H   UNL     1       7.725   7.444  17.819  0.00  0.00    +0.000 HD
ENDBRANCH  19  20
ENDBRANCH  18  19
BRANCH  18  22
ATOM     22  O   UNL     1       5.418   4.937  17.408  0.00  0.00    +0.000 OA
BRANCH  22  23
ATOM     23  C   UNL     1       5.552   4.021  16.321  0.00  0.00    +0.000 C 
BRANCH  23  24
ATOM     24  P   UNL     1       6.537   4.717  14.944  0.00  0.00    +0.000 P 
ATOM     25  O   UNL     1       7.814   4.632  15.783  0.00  0.00    +0.000 OA
BRANCH  24  26
ATOM     26  O   UNL     1       6.411   3.310  14.114  0.00  0.00    +0.000 OA
ATOM     27  H   UNL     1       6.002   2.597  14.645  0.00  0.00    +0.000 HD
ENDBRANCH  24  26
BRANCH  24  28
ATOM     28  O   UNL     1       7.467   5.376  13.643  0.00  0.00    +0.000 OA
ATOM     29  H   UNL     1       7.070   4.958  12.851  0.00  0.00    +0.000 HD
ENDBRANCH  24  28
ENDBRANCH  23  24
ENDBRANCH  22  23
ENDBRANCH  18  22
ENDBRANCH  17  18
ENDBRANCH   5  17
TORSDOF 10
ENDMDL
