MODEL 1
REMARK VINA RESULT:      -7.0      0.000      0.000
REMARK  Name = 
REMARK  4 active torsions:
REMARK  status: ('A' for Active; 'I' for Inactive)
REMARK    1  A    between atoms: C_1  and  O_2
REMARK    2  A    between atoms: O_2  and  C_3
REMARK    3  A    between atoms: C_6  and  N_7
REMARK    4  A    between atoms: C_10  and  C_11
REMARK                            x       y       z     vdW  Elec       q    Type
REMARK                         _______ _______ _______ _____ _____    ______ ____
ROOT
ATOM      1  N   UNL     1       3.890   4.733  18.870  0.00  0.00    +0.000 N 
ATOM      2  C   UNL     1       3.606   3.596  19.619  0.00  0.00    +0.000 A 
ATOM      3  O   UNL     1       4.092   2.482  19.467  0.00  0.00    +0.000 OA
ATOM      4  C   UNL     1       2.620   3.799  20.768  0.00  0.00    +0.000 A 
ATOM      5  C   UNL     1       2.378   2.647  21.703  0.00  0.00    +0.000 C 
ATOM      6  N   UNL     1       1.990   4.917  20.977  0.00  0.00    +0.000 NA
ATOM      7  C   UNL     1       2.250   5.985  20.107  0.00  0.00    +0.000 A 
ATOM      8  C   UNL     1       1.552   7.171  20.219  0.00  0.00    +0.000 A 
ATOM      9  N   UNL     1       1.725   8.241  19.416  0.00  0.00    +0.000 NA
ATOM     10  C   UNL     1       2.651   8.095  18.462  0.00  0.00    +0.000 A 
ATOM     11  N   UNL     1       3.400   7.007  18.255  0.00  0.00    +0.000 NA
ATOM     12  C   UNL     1       3.192   5.954  19.081  0.00  0.00    +0.000 A 
ENDROOT
BRANCH   1  16
ATOM     13  C   UNL     1       6.689   4.624  15.700  0.00  0.00    +0.000 A 
ATOM     14  C   UNL     1       5.343   4.336  15.462  0.00  0.00    +0.000 A 
ATOM     15  C   UNL     1       4.416   4.357  16.509  0.00  0.00    +0.000 A 
ATOM     16  C   UNL     1       4.826   4.688  17.805  0.00  0.00    +0.000 A 
ATOM     17  C   UNL     1       6.180   4.958  18.042  0.00  0.00    +0.000 A 
ATOM     18  C   UNL     1       7.107   4.915  16.998  0.00  0.00    +0.000 A 
BRANCH  13  20
ATOM     19  C   UNL     1       6.872   4.197  13.388  0.00  0.00    +0.000 C 
ATOM     20  O   UNL     1       7.510   4.562  14.608  0.00  0.00    +0.000 OA
ENDBRANCH  13  20
ENDBRANCH   1  16
TORSDOF 2
ENDMDL
MODEL 2
REMARK VINA RESULT:      -6.9      0.330      1.122
REMARK  Name = 
REMARK  4 active torsions:
REMARK  status: ('A' for Active; 'I' for Inactive)
REMARK    1  A    between atoms: C_1  and  O_2
REMARK    2  A    between atoms: O_2  and  C_3
REMARK    3  A    between atoms: C_6  and  N_7
REMARK    4  A    between atoms: C_10  and  C_11
REMARK                            x       y       z     vdW  Elec       q    Type
REMARK                         _______ _______ _______ _____ _____    ______ ____
ROOT
ATOM      1  N   UNL     1       3.897   4.997  18.809  0.00  0.00    +0.000 N 
ATOM      2  C   UNL     1       3.618   3.869  19.573  0.00  0.00    +0.000 A 
ATOM      3  O   UNL     1       4.127   2.762  19.453  0.00  0.00    +0.000 OA
ATOM      4  C   UNL     1       2.605   4.077  20.698  0.00  0.00    +0.000 A 
ATOM      5  C   UNL     1       2.364   2.938  21.651  0.00  0.00    +0.000 C 
ATOM      6  N   UNL     1       1.951   5.187  20.872  0.00  0.00    +0.000 NA
ATOM      7  C   UNL     1       2.209   6.242  19.986  0.00  0.00    +0.000 A 
ATOM      8  C   UNL     1       1.487   7.417  20.060  0.00  0.00    +0.000 A 
ATOM      9  N   UNL     1       1.658   8.474  19.240  0.00  0.00    +0.000 NA
ATOM     10  C   UNL     1       2.606   8.327  18.308  0.00  0.00    +0.000 A 
ATOM     11  N   UNL     1       3.379   7.249  18.138  0.00  0.00    +0.000 NA
ATOM     12  C   UNL     1       3.172   6.208  18.981  0.00  0.00    +0.000 A 
ENDROOT
BRANCH   1  16
ATOM     13  C   UNL     1       6.748   4.822  15.689  0.00  0.00    +0.000 A 
ATOM     14  C   UNL     1       7.105   5.325  16.941  0.00  0.00    +0.000 A 
ATOM     15  C   UNL     1       6.163   5.399  17.972  0.00  0.00    +0.000 A 
ATOM     16  C   UNL     1       4.855   4.948  17.763  0.00  0.00    +0.000 A 
ATOM     17  C   UNL     1       4.497   4.460  16.500  0.00  0.00    +0.000 A 
ATOM     18  C   UNL     1       5.435   4.409  15.465  0.00  0.00    +0.000 A 
BRANCH  13  20
ATOM     19  C   UNL     1       7.302   4.802  13.396  0.00  0.00    +0.000 C 
ATOM     20  O   UNL     1       7.743   4.807  14.750  0.00  0.00    +0.000 OA
ENDBRANCH  13  20
ENDBRANCH   1  16
TORSDOF 2
ENDMDL
MODEL 3
REMARK VINA RESULT:      -6.8      1.633      3.175
REMARK  Name = 
REMARK  4 active torsions:
REMARK  status: ('A' for Active; 'I' for Inactive)
REMARK    1  A    between atoms: C_1  and  O_2
REMARK    2  A    between atoms: O_2  and  C_3
REMARK    3  A    between atoms: C_6  and  N_7
REMARK    4  A    between atoms: C_10  and  C_11
REMARK                            x       y       z     vdW  Elec       q    Type
REMARK                         _______ _______ _______ _____ _____    ______ ____
ROOT
ATOM      1  N   UNL     1       3.679   5.702  18.725  0.00  0.00    +0.000 N 
ATOM      2  C   UNL     1       3.105   6.960  18.871  0.00  0.00    +0.000 A 
ATOM      3  O   UNL     1       3.371   7.964  18.221  0.00  0.00    +0.000 OA
ATOM      4  C   UNL     1       2.001   7.056  19.923  0.00  0.00    +0.000 A 
ATOM      5  C   UNL     1       1.240   8.349  20.034  0.00  0.00    +0.000 C 
ATOM      6  N   UNL     1       1.686   6.075  20.717  0.00  0.00    +0.000 NA
ATOM      7  C   UNL     1       2.392   4.873  20.580  0.00  0.00    +0.000 A 
ATOM      8  C   UNL     1       2.169   3.822  21.448  0.00  0.00    +0.000 A 
ATOM      9  N   UNL     1       2.813   2.638  21.399  0.00  0.00    +0.000 NA
ATOM     10  C   UNL     1       3.720   2.521  20.423  0.00  0.00    +0.000 A 
ATOM     11  N   UNL     1       4.021   3.456  19.515  0.00  0.00    +0.000 NA
ATOM     12  C   UNL     1       3.354   4.631  19.602  0.00  0.00    +0.000 A 
ENDROOT
BRANCH   1  16
ATOM     13  C   UNL     1       6.678   5.039  15.816  0.00  0.00    +0.000 A 
ATOM     14  C   UNL     1       5.365   4.626  15.581  0.00  0.00    +0.000 A 
ATOM     15  C   UNL     1       4.372   4.829  16.545  0.00  0.00    +0.000 A 
ATOM     16  C   UNL     1       4.683   5.470  17.749  0.00  0.00    +0.000 A 
ATOM     17  C   UNL     1       6.005   5.867  17.988  0.00  0.00    +0.000 A 
ATOM     18  C   UNL     1       6.999   5.641  17.032  0.00  0.00    +0.000 A 
BRANCH  13  20
ATOM     19  C   UNL     1       6.989   4.464  13.550  0.00  0.00    +0.000 C 
ATOM     20  O   UNL     1       7.570   4.778  14.812  0.00  0.00    +0.000 OA
ENDBRANCH  13  20
ENDBRANCH   1  16
TORSDOF 2
ENDMDL
MODEL 4
REMARK VINA RESULT:      -6.8      1.628      3.359
REMARK  Name = 
REMARK  4 active torsions:
REMARK  status: ('A' for Active; 'I' for Inactive)
REMARK    1  A    between atoms: C_1  and  O_2
REMARK    2  A    between atoms: O_2  and  C_3
REMARK    3  A    between atoms: C_6  and  N_7
REMARK    4  A    between atoms: C_10  and  C_11
REMARK                            x       y       z     vdW  Elec       q    Type
REMARK                         _______ _______ _______ _____ _____    ______ ____
ROOT
ATOM      1  N   UNL     1       3.651   5.629  18.821  0.00  0.00    +0.000 N 
ATOM      2  C   UNL     1       3.038   6.870  18.966  0.00  0.00    +0.000 A 
ATOM      3  O   UNL     1       3.262   7.876  18.305  0.00  0.00    +0.000 OA
ATOM      4  C   UNL     1       1.947   6.938  20.033  0.00  0.00    +0.000 A 
ATOM      5  C   UNL     1       1.147   8.207  20.146  0.00  0.00    +0.000 C 
ATOM      6  N   UNL     1       1.676   5.954  20.839  0.00  0.00    +0.000 NA
ATOM      7  C   UNL     1       2.418   4.774  20.700  0.00  0.00    +0.000 A 
ATOM      8  C   UNL     1       2.242   3.723  21.579  0.00  0.00    +0.000 A 
ATOM      9  N   UNL     1       2.923   2.560  21.529  0.00  0.00    +0.000 NA
ATOM     10  C   UNL     1       3.819   2.464  20.540  0.00  0.00    +0.000 A 
ATOM     11  N   UNL     1       4.077   3.402  19.621  0.00  0.00    +0.000 NA
ATOM     12  C   UNL     1       3.373   4.556  19.710  0.00  0.00    +0.000 A 
ENDROOT
BRANCH   1  16
ATOM     13  C   UNL     1       6.614   4.984  15.872  0.00  0.00    +0.000 A 
ATOM     14  C   UNL     1       6.933   5.650  17.056  0.00  0.00    +0.000 A 
ATOM     15  C   UNL     1       5.954   5.879  18.029  0.00  0.00    +0.000 A 
ATOM     16  C   UNL     1       4.647   5.422  17.831  0.00  0.00    +0.000 A 
ATOM     17  C   UNL     1       4.328   4.769  16.634  0.00  0.00    +0.000 A 
ATOM     18  C   UNL     1       5.302   4.562  15.655  0.00  0.00    +0.000 A 
BRANCH  13  20
ATOM     19  C   UNL     1       7.265   4.799  13.612  0.00  0.00    +0.000 C 
ATOM     20  O   UNL     1       7.644   4.826  14.985  0.00  0.00    +0.000 OA
ENDBRANCH  13  20
ENDBRANCH   1  16
TORSDOF 2
ENDMDL
MODEL 5
REMARK VINA RESULT:      -6.8      2.877      5.992
REMARK  Name = 
REMARK  4 active torsions:
REMARK  status: ('A' for Active; 'I' for Inactive)
REMARK    1  A    between atoms: C_1  and  O_2
REMARK    2  A    between atoms: O_2  and  C_3
REMARK    3  A    between atoms: C_6  and  N_7
REMARK    4  A    between atoms: C_10  and  C_11
REMARK                            x       y       z     vdW  Elec       q    Type
REMARK                         _______ _______ _______ _____ _____    ______ ____
ROOT
ATOM      1  N   UNL     1       3.435   5.866  18.089  0.00  0.00    +0.000 N 
ATOM      2  C   UNL     1       4.660   6.047  17.456  0.00  0.00    +0.000 A 
ATOM      3  O   UNL     1       5.217   7.116  17.237  0.00  0.00    +0.000 OA
ATOM      4  C   UNL     1       5.380   4.764  17.046  0.00  0.00    +0.000 A 
ATOM      5  C   UNL     1       6.771   4.882  16.486  0.00  0.00    +0.000 C 
ATOM      6  N   UNL     1       4.851   3.581  17.164  0.00  0.00    +0.000 NA
ATOM      7  C   UNL     1       3.564   3.494  17.709  0.00  0.00    +0.000 A 
ATOM      8  C   UNL     1       2.910   2.280  17.783  0.00  0.00    +0.000 A 
ATOM      9  N   UNL     1       1.667   2.107  18.277  0.00  0.00    +0.000 NA
ATOM     10  C   UNL     1       1.068   3.219  18.717  0.00  0.00    +0.000 A 
ATOM     11  N   UNL     1       1.594   4.449  18.712  0.00  0.00    +0.000 NA
ATOM     12  C   UNL     1       2.843   4.578  18.204  0.00  0.00    +0.000 A 
ENDROOT
BRANCH   1  16
ATOM     13  C   UNL     1       1.191   9.159  19.508  0.00  0.00    +0.000 A 
ATOM     14  C   UNL     1       1.531   9.069  18.156  0.00  0.00    +0.000 A 
ATOM     15  C   UNL     1       2.285   7.989  17.684  0.00  0.00    +0.000 A 
ATOM     16  C   UNL     1       2.689   6.977  18.561  0.00  0.00    +0.000 A 
ATOM     17  C   UNL     1       2.360   7.081  19.919  0.00  0.00    +0.000 A 
ATOM     18  C   UNL     1       1.627   8.172  20.391  0.00  0.00    +0.000 A 
BRANCH  13  20
ATOM     19  C   UNL     1      -0.794  10.397  19.209  0.00  0.00    +0.000 C 
ATOM     20  O   UNL     1       0.464  10.262  19.863  0.00  0.00    +0.000 OA
ENDBRANCH  13  20
ENDBRANCH   1  16
TORSDOF 2
ENDMDL
MODEL 6
REMARK VINA RESULT:      -6.8      2.873      6.051
REMARK  Name = 
REMARK  4 active torsions:
REMARK  status: ('A' for Active; 'I' for Inactive)
REMARK    1  A    between atoms: C_1  and  O_2
REMARK    2  A    between atoms: O_2  and  C_3
REMARK    3  A    between atoms: C_6  and  N_7
REMARK    4  A    between atoms: C_10  and  C_11
REMARK                            x       y       z     vdW  Elec       q    Type
REMARK                         _______ _______ _______ _____ _____    ______ ____
ROOT
ATOM      1  N   UNL     1       3.434   5.857  18.105  0.00  0.00    +0.000 N 
ATOM      2  C   UNL     1       4.665   6.040  17.484  0.00  0.00    +0.000 A 
ATOM      3  O   UNL     1       5.221   7.109  17.266  0.00  0.00    +0.000 OA
ATOM      4  C   UNL     1       5.393   4.757  17.087  0.00  0.00    +0.000 A 
ATOM      5  C   UNL     1       6.790   4.877  16.542  0.00  0.00    +0.000 C 
ATOM      6  N   UNL     1       4.868   3.573  17.206  0.00  0.00    +0.000 NA
ATOM      7  C   UNL     1       3.575   3.484  17.738  0.00  0.00    +0.000 A 
ATOM      8  C   UNL     1       2.924   2.268  17.810  0.00  0.00    +0.000 A 
ATOM      9  N   UNL     1       1.677   2.093  18.292  0.00  0.00    +0.000 NA
ATOM     10  C   UNL     1       1.069   3.205  18.720  0.00  0.00    +0.000 A 
ATOM     11  N   UNL     1       1.591   4.436  18.715  0.00  0.00    +0.000 NA
ATOM     12  C   UNL     1       2.845   4.568  18.220  0.00  0.00    +0.000 A 
ENDROOT
BRANCH   1  16
ATOM     13  C   UNL     1       1.203   9.186  19.459  0.00  0.00    +0.000 A 
ATOM     14  C   UNL     1       1.619   8.204  20.360  0.00  0.00    +0.000 A 
ATOM     15  C   UNL     1       2.345   7.094  19.916  0.00  0.00    +0.000 A 
ATOM     16  C   UNL     1       2.679   6.968  18.563  0.00  0.00    +0.000 A 
ATOM     17  C   UNL     1       2.244   7.947  17.661  0.00  0.00    +0.000 A 
ATOM     18  C   UNL     1       1.500   9.043  18.104  0.00  0.00    +0.000 A 
BRANCH  13  20
ATOM     19  C   UNL     1      -0.738  10.521  19.340  0.00  0.00    +0.000 C 
ATOM     20  O   UNL     1       0.489  10.221  19.999  0.00  0.00    +0.000 OA
ENDBRANCH  13  20
ENDBRANCH   1  16
TORSDOF 2
ENDMDL
MODEL 7
REMARK VINA RESULT:      -6.7      2.872      5.725
REMARK  Name = 
REMARK  4 active torsions:
REMARK  status: ('A' for Active; 'I' for Inactive)
REMARK    1  A    between atoms: C_1  and  O_2
REMARK    2  A    between atoms: O_2  and  C_3
REMARK    3  A    between atoms: C_6  and  N_7
REMARK    4  A    between atoms: C_10  and  C_11
REMARK                            x       y       z     vdW  Elec       q    Type
REMARK                         _______ _______ _______ _____ _____    ______ ____
ROOT
ATOM      1  N   UNL     1       3.127   5.794  18.065  0.00  0.00    +0.000 N 
ATOM      2  C   UNL     1       2.511   4.555  18.214  0.00  0.00    +0.000 A 
ATOM      3  O   UNL     1       1.422   4.339  18.731  0.00  0.00    +0.000 OA
ATOM      4  C   UNL     1       3.273   3.372  17.621  0.00  0.00    +0.000 A 
ATOM      5  C   UNL     1       2.601   2.026  17.620  0.00  0.00    +0.000 C 
ATOM      6  N   UNL     1       4.466   3.474  17.114  0.00  0.00    +0.000 NA
ATOM      7  C   UNL     1       5.064   4.741  17.104  0.00  0.00    +0.000 A 
ATOM      8  C   UNL     1       6.361   4.905  16.660  0.00  0.00    +0.000 A 
ATOM      9  N   UNL     1       7.019   6.083  16.631  0.00  0.00    +0.000 NA
ATOM     10  C   UNL     1       6.322   7.137  17.070  0.00  0.00    +0.000 A 
ATOM     11  N   UNL     1       5.060   7.114  17.513  0.00  0.00    +0.000 NA
ATOM     12  C   UNL     1       4.438   5.911  17.529  0.00  0.00    +0.000 A 
ENDROOT
BRANCH   1  16
ATOM     13  C   UNL     1       1.236   9.308  19.468  0.00  0.00    +0.000 A 
ATOM     14  C   UNL     1       1.507   9.150  18.108  0.00  0.00    +0.000 A 
ATOM     15  C   UNL     1       2.145   7.996  17.640  0.00  0.00    +0.000 A 
ATOM     16  C   UNL     1       2.499   6.978  18.531  0.00  0.00    +0.000 A 
ATOM     17  C   UNL     1       2.240   7.149  19.897  0.00  0.00    +0.000 A 
ATOM     18  C   UNL     1       1.624   8.312  20.365  0.00  0.00    +0.000 A 
BRANCH  13  20
ATOM     19  C   UNL     1      -0.756  10.572  19.463  0.00  0.00    +0.000 C 
ATOM     20  O   UNL     1       0.621  10.479  19.817  0.00  0.00    +0.000 OA
ENDBRANCH  13  20
ENDBRANCH   1  16
TORSDOF 2
ENDMDL
MODEL 8
REMARK VINA RESULT:      -6.7      2.828      5.812
REMARK  Name = 
REMARK  4 active torsions:
REMARK  status: ('A' for Active; 'I' for Inactive)
REMARK    1  A    between atoms: C_1  and  O_2
REMARK    2  A    between atoms: O_2  and  C_3
REMARK    3  A    between atoms: C_6  and  N_7
REMARK    4  A    between atoms: C_10  and  C_11
REMARK                            x       y       z     vdW  Elec       q    Type
REMARK                         _______ _______ _______ _____ _____    ______ ____
ROOT
ATOM      1  N   UNL     1       3.130   5.798  18.061  0.00  0.00    +0.000 N 
ATOM      2  C   UNL     1       2.514   4.559  18.209  0.00  0.00    +0.000 A 
ATOM      3  O   UNL     1       1.423   4.344  18.723  0.00  0.00    +0.000 OA
ATOM      4  C   UNL     1       3.277   3.375  17.619  0.00  0.00    +0.000 A 
ATOM      5  C   UNL     1       2.604   2.030  17.617  0.00  0.00    +0.000 C 
ATOM      6  N   UNL     1       4.472   3.477  17.115  0.00  0.00    +0.000 NA
ATOM      7  C   UNL     1       5.070   4.744  17.106  0.00  0.00    +0.000 A 
ATOM      8  C   UNL     1       6.369   4.908  16.667  0.00  0.00    +0.000 A 
ATOM      9  N   UNL     1       7.027   6.085  16.639  0.00  0.00    +0.000 NA
ATOM     10  C   UNL     1       6.329   7.139  17.075  0.00  0.00    +0.000 A 
ATOM     11  N   UNL     1       5.066   7.117  17.515  0.00  0.00    +0.000 NA
ATOM     12  C   UNL     1       4.443   5.914  17.530  0.00  0.00    +0.000 A 
ENDROOT
BRANCH   1  16
ATOM     13  C   UNL     1       1.277   9.345  19.430  0.00  0.00    +0.000 A 
ATOM     14  C   UNL     1       1.635   8.344  20.335  0.00  0.00    +0.000 A 
ATOM     15  C   UNL     1       2.235   7.163  19.886  0.00  0.00    +0.000 A 
ATOM     16  C   UNL     1       2.502   6.982  18.525  0.00  0.00    +0.000 A 
ATOM     17  C   UNL     1       2.125   7.982  17.619  0.00  0.00    +0.000 A 
ATOM     18  C   UNL     1       1.505   9.151  18.068  0.00  0.00    +0.000 A 
BRANCH  13  20
ATOM     19  C   UNL     1       0.556  10.436  21.393  0.00  0.00    +0.000 C 
ATOM     20  O   UNL     1       0.685  10.452  19.974  0.00  0.00    +0.000 OA
ENDBRANCH  13  20
ENDBRANCH   1  16
TORSDOF 2
ENDMDL
MODEL 9
REMARK VINA RESULT:      -6.5      2.768      5.766
REMARK  Name = 
REMARK  4 active torsions:
REMARK  status: ('A' for Active; 'I' for Inactive)
REMARK    1  A    between atoms: C_1  and  O_2
REMARK    2  A    between atoms: O_2  and  C_3
REMARK    3  A    between atoms: C_6  and  N_7
REMARK    4  A    between atoms: C_10  and  C_11
REMARK                            x       y       z     vdW  Elec       q    Type
REMARK                         _______ _______ _______ _____ _____    ______ ____
ROOT
ATOM      1  N   UNL     1       3.392   5.993  19.048  0.00  0.00    +0.000 N 
ATOM      2  C   UNL     1       4.617   5.979  18.389  0.00  0.00    +0.000 A 
ATOM      3  O   UNL     1       5.115   6.902  17.756  0.00  0.00    +0.000 OA
ATOM      4  C   UNL     1       5.418   4.686  18.526  0.00  0.00    +0.000 A 
ATOM      5  C   UNL     1       6.811   4.653  17.959  0.00  0.00    +0.000 C 
ATOM      6  N   UNL     1       4.957   3.621  19.113  0.00  0.00    +0.000 NA
ATOM      7  C   UNL     1       3.666   3.681  19.655  0.00  0.00    +0.000 A 
ATOM      8  C   UNL     1       3.083   2.562  20.213  0.00  0.00    +0.000 A 
ATOM      9  N   UNL     1       1.842   2.526  20.742  0.00  0.00    +0.000 NA
ATOM     10  C   UNL     1       1.171   3.682  20.700  0.00  0.00    +0.000 A 
ATOM     11  N   UNL     1       1.624   4.836  20.198  0.00  0.00    +0.000 NA
ATOM     12  C   UNL     1       2.874   4.827  19.674  0.00  0.00    +0.000 A 
ENDROOT
BRANCH   1  16
ATOM     13  C   UNL     1       0.931   9.433  19.029  0.00  0.00    +0.000 A 
ATOM     14  C   UNL     1       1.460   8.940  17.834  0.00  0.00    +0.000 A 
ATOM     15  C   UNL     1       2.286   7.811  17.836  0.00  0.00    +0.000 A 
ATOM     16  C   UNL     1       2.573   7.152  19.036  0.00  0.00    +0.000 A 
ATOM     17  C   UNL     1       2.054   7.661  20.234  0.00  0.00    +0.000 A 
ATOM     18  C   UNL     1       1.247   8.802  20.231  0.00  0.00    +0.000 A 
BRANCH  13  20
ATOM     19  C   UNL     1      -1.011  10.396  18.098  0.00  0.00    +0.000 C 
ATOM     20  O   UNL     1       0.147  10.549  18.913  0.00  0.00    +0.000 OA
ENDBRANCH  13  20
ENDBRANCH   1  16
TORSDOF 2
ENDMDL
