MODEL 1
REMARK VINA RESULT:      -7.4      0.000      0.000
REMARK  Name = 
REMARK  3 active torsions:
REMARK  status: ('A' for Active; 'I' for Inactive)
REMARK    1  A    between atoms: O_1  and  C_2
REMARK    2  A    between atoms: C_11  and  C_12
REMARK    3  A    between atoms: N_13  and  C_14
REMARK                            x       y       z     vdW  Elec       q    Type
REMARK                         _______ _______ _______ _____ _____    ______ ____
ROOT
ATOM      1  C   UNL     1       3.552   2.613  18.455  0.00  0.00    +0.000 A 
ATOM      2  C   UNL     1       2.954   2.423  19.695  0.00  0.00    +0.000 A 
ATOM      3  C   UNL     1       2.404   3.511  20.365  0.00  0.00    +0.000 A 
ATOM      4  C   UNL     1       2.447   4.801  19.812  0.00  0.00    +0.000 A 
ATOM      5  C   UNL     1       1.899   5.875  20.534  0.00  0.00    +0.000 A 
ATOM      6  C   UNL     1       1.929   7.173  20.027  0.00  0.00    +0.000 A 
ATOM      7  C   UNL     1       2.512   7.413  18.796  0.00  0.00    +0.000 A 
ATOM      8  C   UNL     1       3.066   6.357  18.071  0.00  0.00    +0.000 A 
ATOM      9  C   UNL     1       3.047   5.017  18.544  0.00  0.00    +0.000 A 
ATOM     10  C   UNL     1       3.597   3.890  17.863  0.00  0.00    +0.000 A 
ENDROOT
BRANCH   1  11
ATOM     11  O   UNL     1       4.087   1.531  17.807  0.00  0.00    +0.000 OA
ATOM     12  H   UNL     1       3.377   0.897  17.597  0.00  0.00    +0.000 HD
ENDBRANCH   1  11
BRANCH  10  13
ATOM     13  C   UNL     1       4.231   3.971  16.520  0.00  0.00    +0.000 C 
ATOM     14  N   UNL     1       5.509   4.086  16.346  0.00  0.00    +0.000 NA
BRANCH  14  15
ATOM     15  C   UNL     1       6.044   4.198  15.052  0.00  0.00    +0.000 A 
ATOM     16  C   UNL     1       5.373   3.539  14.017  0.00  0.00    +0.000 A 
ATOM     17  C   UNL     1       5.845   3.592  12.704  0.00  0.00    +0.000 A 
ATOM     18  C   UNL     1       6.996   4.316  12.410  0.00  0.00    +0.000 A 
ATOM     19  C   UNL     1       7.656   5.008  13.423  0.00  0.00    +0.000 A 
ATOM     20  C   UNL     1       7.173   4.960  14.733  0.00  0.00    +0.000 A 
ENDBRANCH  14  15
ENDBRANCH  10  13
TORSDOF 3
ENDMDL
MODEL 2
REMARK VINA RESULT:      -7.3      0.138      1.109
REMARK  Name = 
REMARK  3 active torsions:
REMARK  status: ('A' for Active; 'I' for Inactive)
REMARK    1  A    between atoms: O_1  and  C_2
REMARK    2  A    between atoms: C_11  and  C_12
REMARK    3  A    between atoms: N_13  and  C_14
REMARK                            x       y       z     vdW  Elec       q    Type
REMARK                         _______ _______ _______ _____ _____    ______ ____
ROOT
ATOM      1  C   UNL     1       3.625   2.700  18.463  0.00  0.00    +0.000 A 
ATOM      2  C   UNL     1       3.058   2.531  19.720  0.00  0.00    +0.000 A 
ATOM      3  C   UNL     1       2.507   3.626  20.378  0.00  0.00    +0.000 A 
ATOM      4  C   UNL     1       2.519   4.904  19.795  0.00  0.00    +0.000 A 
ATOM      5  C   UNL     1       1.972   5.985  20.504  0.00  0.00    +0.000 A 
ATOM      6  C   UNL     1       1.971   7.272  19.967  0.00  0.00    +0.000 A 
ATOM      7  C   UNL     1       2.522   7.491  18.718  0.00  0.00    +0.000 A 
ATOM      8  C   UNL     1       3.076   6.427  18.004  0.00  0.00    +0.000 A 
ATOM      9  C   UNL     1       3.087   5.098  18.509  0.00  0.00    +0.000 A 
ATOM     10  C   UNL     1       3.638   3.963  17.841  0.00  0.00    +0.000 A 
ENDROOT
BRANCH   1  11
ATOM     11  O   UNL     1       4.160   1.611  17.827  0.00  0.00    +0.000 OA
ATOM     12  H   UNL     1       4.996   1.363  18.261  0.00  0.00    +0.000 HD
ENDBRANCH   1  11
BRANCH  10  13
ATOM     13  C   UNL     1       4.241   4.022  16.483  0.00  0.00    +0.000 C 
ATOM     14  N   UNL     1       5.518   4.055  16.275  0.00  0.00    +0.000 NA
BRANCH  14  15
ATOM     15  C   UNL     1       6.025   4.150  14.969  0.00  0.00    +0.000 A 
ATOM     16  C   UNL     1       7.134   4.977  14.766  0.00  0.00    +0.000 A 
ATOM     17  C   UNL     1       7.694   5.134  13.496  0.00  0.00    +0.000 A 
ATOM     18  C   UNL     1       7.150   4.453  12.411  0.00  0.00    +0.000 A 
ATOM     19  C   UNL     1       6.068   3.596  12.602  0.00  0.00    +0.000 A 
ATOM     20  C   UNL     1       5.520   3.435  13.877  0.00  0.00    +0.000 A 
ENDBRANCH  14  15
ENDBRANCH  10  13
TORSDOF 3
ENDMDL
MODEL 3
REMARK VINA RESULT:      -7.3      1.146      1.383
REMARK  Name = 
REMARK  3 active torsions:
REMARK  status: ('A' for Active; 'I' for Inactive)
REMARK    1  A    between atoms: O_1  and  C_2
REMARK    2  A    between atoms: C_11  and  C_12
REMARK    3  A    between atoms: N_13  and  C_14
REMARK                            x       y       z     vdW  Elec       q    Type
REMARK                         _______ _______ _______ _____ _____    ______ ____
ROOT
ATOM      1  C   UNL     1       4.387   4.215  18.611  0.00  0.00    +0.000 A 
ATOM      2  C   UNL     1       3.689   4.140  19.811  0.00  0.00    +0.000 A 
ATOM      3  C   UNL     1       2.874   5.199  20.197  0.00  0.00    +0.000 A 
ATOM      4  C   UNL     1       2.748   6.347  19.398  0.00  0.00    +0.000 A 
ATOM      5  C   UNL     1       1.931   7.402  19.838  0.00  0.00    +0.000 A 
ATOM      6  C   UNL     1       1.784   8.563  19.081  0.00  0.00    +0.000 A 
ATOM      7  C   UNL     1       2.456   8.684  17.878  0.00  0.00    +0.000 A 
ATOM      8  C   UNL     1       3.277   7.647  17.432  0.00  0.00    +0.000 A 
ATOM      9  C   UNL     1       3.445   6.442  18.166  0.00  0.00    +0.000 A 
ATOM     10  C   UNL     1       4.269   5.343  17.776  0.00  0.00    +0.000 A 
ENDROOT
BRANCH   1  11
ATOM     11  O   UNL     1       5.183   3.163  18.243  0.00  0.00    +0.000 OA
ATOM     12  H   UNL     1       5.297   3.166  17.276  0.00  0.00    +0.000 HD
ENDBRANCH   1  11
BRANCH  10  13
ATOM     13  C   UNL     1       5.034   5.301  16.501  0.00  0.00    +0.000 C 
ATOM     14  N   UNL     1       4.989   4.302  15.680  0.00  0.00    +0.000 NA
BRANCH  14  15
ATOM     15  C   UNL     1       5.766   4.305  14.511  0.00  0.00    +0.000 A 
ATOM     16  C   UNL     1       5.281   3.589  13.412  0.00  0.00    +0.000 A 
ATOM     17  C   UNL     1       5.998   3.535  12.214  0.00  0.00    +0.000 A 
ATOM     18  C   UNL     1       7.211   4.208  12.102  0.00  0.00    +0.000 A 
ATOM     19  C   UNL     1       7.690   4.956  13.174  0.00  0.00    +0.000 A 
ATOM     20  C   UNL     1       6.964   5.015  14.366  0.00  0.00    +0.000 A 
ENDBRANCH  14  15
ENDBRANCH  10  13
TORSDOF 3
ENDMDL
MODEL 4
REMARK VINA RESULT:      -7.3      1.105      1.728
REMARK  Name = 
REMARK  3 active torsions:
REMARK  status: ('A' for Active; 'I' for Inactive)
REMARK    1  A    between atoms: O_1  and  C_2
REMARK    2  A    between atoms: C_11  and  C_12
REMARK    3  A    between atoms: N_13  and  C_14
REMARK                            x       y       z     vdW  Elec       q    Type
REMARK                         _______ _______ _______ _____ _____    ______ ____
ROOT
ATOM      1  C   UNL     1       4.306   4.153  18.579  0.00  0.00    +0.000 A 
ATOM      2  C   UNL     1       3.603   4.074  19.776  0.00  0.00    +0.000 A 
ATOM      3  C   UNL     1       2.810   5.144  20.178  0.00  0.00    +0.000 A 
ATOM      4  C   UNL     1       2.713   6.308  19.399  0.00  0.00    +0.000 A 
ATOM      5  C   UNL     1       1.919   7.373  19.855  0.00  0.00    +0.000 A 
ATOM      6  C   UNL     1       1.800   8.551  19.117  0.00  0.00    +0.000 A 
ATOM      7  C   UNL     1       2.479   8.677  17.919  0.00  0.00    +0.000 A 
ATOM      8  C   UNL     1       3.278   7.630  17.457  0.00  0.00    +0.000 A 
ATOM      9  C   UNL     1       3.417   6.408  18.170  0.00  0.00    +0.000 A 
ATOM     10  C   UNL     1       4.216   5.298  17.764  0.00  0.00    +0.000 A 
ENDROOT
BRANCH   1  11
ATOM     11  O   UNL     1       5.080   3.090  18.196  0.00  0.00    +0.000 OA
ATOM     12  H   UNL     1       5.893   3.073  18.731  0.00  0.00    +0.000 HD
ENDBRANCH   1  11
BRANCH  10  13
ATOM     13  C   UNL     1       4.984   5.261  16.491  0.00  0.00    +0.000 C 
ATOM     14  N   UNL     1       4.927   4.273  15.657  0.00  0.00    +0.000 NA
BRANCH  14  15
ATOM     15  C   UNL     1       5.707   4.280  14.490  0.00  0.00    +0.000 A 
ATOM     16  C   UNL     1       6.874   5.051  14.498  0.00  0.00    +0.000 A 
ATOM     17  C   UNL     1       7.700   5.119  13.374  0.00  0.00    +0.000 A 
ATOM     18  C   UNL     1       7.369   4.404  12.226  0.00  0.00    +0.000 A 
ATOM     19  C   UNL     1       6.231   3.603  12.214  0.00  0.00    +0.000 A 
ATOM     20  C   UNL     1       5.413   3.530  13.345  0.00  0.00    +0.000 A 
ENDBRANCH  14  15
ENDBRANCH  10  13
TORSDOF 3
ENDMDL
MODEL 5
REMARK VINA RESULT:      -7.2      2.963      6.631
REMARK  Name = 
REMARK  3 active torsions:
REMARK  status: ('A' for Active; 'I' for Inactive)
REMARK    1  A    between atoms: O_1  and  C_2
REMARK    2  A    between atoms: C_11  and  C_12
REMARK    3  A    between atoms: N_13  and  C_14
REMARK                            x       y       z     vdW  Elec       q    Type
REMARK                         _______ _______ _______ _____ _____    ______ ____
ROOT
ATOM      1  C   UNL     1       4.190   5.970  17.347  0.00  0.00    +0.000 A 
ATOM      2  C   UNL     1       4.731   4.856  16.716  0.00  0.00    +0.000 A 
ATOM      3  C   UNL     1       4.175   3.601  16.942  0.00  0.00    +0.000 A 
ATOM      4  C   UNL     1       3.079   3.438  17.804  0.00  0.00    +0.000 A 
ATOM      5  C   UNL     1       2.564   2.149  18.021  0.00  0.00    +0.000 A 
ATOM      6  C   UNL     1       1.482   1.941  18.876  0.00  0.00    +0.000 A 
ATOM      7  C   UNL     1       0.908   3.017  19.527  0.00  0.00    +0.000 A 
ATOM      8  C   UNL     1       1.413   4.303  19.326  0.00  0.00    +0.000 A 
ATOM      9  C   UNL     1       2.506   4.562  18.455  0.00  0.00    +0.000 A 
ATOM     10  C   UNL     1       3.079   5.845  18.204  0.00  0.00    +0.000 A 
ENDROOT
BRANCH   1  11
ATOM     11  O   UNL     1       4.747   7.199  17.112  0.00  0.00    +0.000 OA
ATOM     12  H   UNL     1       4.543   7.794  17.855  0.00  0.00    +0.000 HD
ENDBRANCH   1  11
BRANCH  10  13
ATOM     13  C   UNL     1       2.562   7.106  18.800  0.00  0.00    +0.000 C 
ATOM     14  N   UNL     1       2.048   8.064  18.097  0.00  0.00    +0.000 NA
BRANCH  14  15
ATOM     15  C   UNL     1       1.613   9.247  18.715  0.00  0.00    +0.000 A 
ATOM     16  C   UNL     1       1.039   9.138  19.986  0.00  0.00    +0.000 A 
ATOM     17  C   UNL     1       0.573  10.266  20.665  0.00  0.00    +0.000 A 
ATOM     18  C   UNL     1       0.686  11.523  20.079  0.00  0.00    +0.000 A 
ATOM     19  C   UNL     1       1.289  11.654  18.831  0.00  0.00    +0.000 A 
ATOM     20  C   UNL     1       1.762  10.523  18.160  0.00  0.00    +0.000 A 
ENDBRANCH  14  15
ENDBRANCH  10  13
TORSDOF 3
ENDMDL
MODEL 6
REMARK VINA RESULT:      -7.2      2.978      6.663
REMARK  Name = 
REMARK  3 active torsions:
REMARK  status: ('A' for Active; 'I' for Inactive)
REMARK    1  A    between atoms: O_1  and  C_2
REMARK    2  A    between atoms: C_11  and  C_12
REMARK    3  A    between atoms: N_13  and  C_14
REMARK                            x       y       z     vdW  Elec       q    Type
REMARK                         _______ _______ _______ _____ _____    ______ ____
ROOT
ATOM      1  C   UNL     1       4.182   5.968  17.384  0.00  0.00    +0.000 A 
ATOM      2  C   UNL     1       4.700   4.854  16.732  0.00  0.00    +0.000 A 
ATOM      3  C   UNL     1       4.123   3.606  16.941  0.00  0.00    +0.000 A 
ATOM      4  C   UNL     1       3.029   3.449  17.807  0.00  0.00    +0.000 A 
ATOM      5  C   UNL     1       2.492   2.166  18.006  0.00  0.00    +0.000 A 
ATOM      6  C   UNL     1       1.411   1.963  18.864  0.00  0.00    +0.000 A 
ATOM      7  C   UNL     1       0.860   3.039  19.535  0.00  0.00    +0.000 A 
ATOM      8  C   UNL     1       1.387   4.319  19.352  0.00  0.00    +0.000 A 
ATOM      9  C   UNL     1       2.480   4.572  18.478  0.00  0.00    +0.000 A 
ATOM     10  C   UNL     1       3.074   5.849  18.244  0.00  0.00    +0.000 A 
ENDROOT
BRANCH   1  11
ATOM     11  O   UNL     1       4.760   7.190  17.164  0.00  0.00    +0.000 OA
ATOM     12  H   UNL     1       4.066   7.872  17.121  0.00  0.00    +0.000 HD
ENDBRANCH   1  11
BRANCH  10  13
ATOM     13  C   UNL     1       2.583   7.109  18.863  0.00  0.00    +0.000 C 
ATOM     14  N   UNL     1       2.000   8.049  18.190  0.00  0.00    +0.000 NA
BRANCH  14  15
ATOM     15  C   UNL     1       1.594   9.233  18.826  0.00  0.00    +0.000 A 
ATOM     16  C   UNL     1       1.831  10.438  18.157  0.00  0.00    +0.000 A 
ATOM     17  C   UNL     1       1.466  11.661  18.724  0.00  0.00    +0.000 A 
ATOM     18  C   UNL     1       0.849  11.689  19.972  0.00  0.00    +0.000 A 
ATOM     19  C   UNL     1       0.573  10.497  20.635  0.00  0.00    +0.000 A 
ATOM     20  C   UNL     1       0.931   9.275  20.057  0.00  0.00    +0.000 A 
ENDBRANCH  14  15
ENDBRANCH  10  13
TORSDOF 3
ENDMDL
MODEL 7
REMARK VINA RESULT:      -7.1      3.024      6.938
REMARK  Name = 
REMARK  3 active torsions:
REMARK  status: ('A' for Active; 'I' for Inactive)
REMARK    1  A    between atoms: O_1  and  C_2
REMARK    2  A    between atoms: C_11  and  C_12
REMARK    3  A    between atoms: N_13  and  C_14
REMARK                            x       y       z     vdW  Elec       q    Type
REMARK                         _______ _______ _______ _____ _____    ______ ____
ROOT
ATOM      1  C   UNL     1       4.195   6.045  17.383  0.00  0.00    +0.000 A 
ATOM      2  C   UNL     1       4.903   4.988  16.822  0.00  0.00    +0.000 A 
ATOM      3  C   UNL     1       4.441   3.686  16.991  0.00  0.00    +0.000 A 
ATOM      4  C   UNL     1       3.274   3.420  17.725  0.00  0.00    +0.000 A 
ATOM      5  C   UNL     1       2.857   2.088  17.889  0.00  0.00    +0.000 A 
ATOM      6  C   UNL     1       1.709   1.778  18.617  0.00  0.00    +0.000 A 
ATOM      7  C   UNL     1       0.970   2.795  19.194  0.00  0.00    +0.000 A 
ATOM      8  C   UNL     1       1.376   4.122  19.045  0.00  0.00    +0.000 A 
ATOM      9  C   UNL     1       2.532   4.484  18.301  0.00  0.00    +0.000 A 
ATOM     10  C   UNL     1       3.011   5.815  18.109  0.00  0.00    +0.000 A 
ENDROOT
BRANCH   1  11
ATOM     11  O   UNL     1       4.661   7.320  17.205  0.00  0.00    +0.000 OA
ATOM     12  H   UNL     1       5.554   7.287  16.820  0.00  0.00    +0.000 HD
ENDBRANCH   1  11
BRANCH  10  13
ATOM     13  C   UNL     1       2.318   7.021  18.637  0.00  0.00    +0.000 C 
ATOM     14  N   UNL     1       2.204   7.276  19.901  0.00  0.00    +0.000 NA
BRANCH  14  15
ATOM     15  C   UNL     1       1.504   8.412  20.338  0.00  0.00    +0.000 A 
ATOM     16  C   UNL     1       1.142   9.358  19.373  0.00  0.00    +0.000 A 
ATOM     17  C   UNL     1       0.452  10.520  19.726  0.00  0.00    +0.000 A 
ATOM     18  C   UNL     1       0.108  10.744  21.056  0.00  0.00    +0.000 A 
ATOM     19  C   UNL     1       0.428   9.795  22.024  0.00  0.00    +0.000 A 
ATOM     20  C   UNL     1       1.109   8.629  21.663  0.00  0.00    +0.000 A 
ENDBRANCH  14  15
ENDBRANCH  10  13
TORSDOF 3
ENDMDL
MODEL 8
REMARK VINA RESULT:      -7.0      3.045      6.979
REMARK  Name = 
REMARK  3 active torsions:
REMARK  status: ('A' for Active; 'I' for Inactive)
REMARK    1  A    between atoms: O_1  and  C_2
REMARK    2  A    between atoms: C_11  and  C_12
REMARK    3  A    between atoms: N_13  and  C_14
REMARK                            x       y       z     vdW  Elec       q    Type
REMARK                         _______ _______ _______ _____ _____    ______ ____
ROOT
ATOM      1  C   UNL     1       4.135   6.023  17.401  0.00  0.00    +0.000 A 
ATOM      2  C   UNL     1       4.877   4.974  16.869  0.00  0.00    +0.000 A 
ATOM      3  C   UNL     1       4.442   3.665  17.050  0.00  0.00    +0.000 A 
ATOM      4  C   UNL     1       3.268   3.384  17.768  0.00  0.00    +0.000 A 
ATOM      5  C   UNL     1       2.879   2.045  17.946  0.00  0.00    +0.000 A 
ATOM      6  C   UNL     1       1.726   1.720  18.660  0.00  0.00    +0.000 A 
ATOM      7  C   UNL     1       0.954   2.728  19.207  0.00  0.00    +0.000 A 
ATOM      8  C   UNL     1       1.332   4.062  19.045  0.00  0.00    +0.000 A 
ATOM      9  C   UNL     1       2.492   4.439  18.315  0.00  0.00    +0.000 A 
ATOM     10  C   UNL     1       2.944   5.777  18.110  0.00  0.00    +0.000 A 
ENDROOT
BRANCH   1  11
ATOM     11  O   UNL     1       4.575   7.306  17.211  0.00  0.00    +0.000 OA
ATOM     12  H   UNL     1       5.495   7.381  17.521  0.00  0.00    +0.000 HD
ENDBRANCH   1  11
BRANCH  10  13
ATOM     13  C   UNL     1       2.215   6.975  18.607  0.00  0.00    +0.000 C 
ATOM     14  N   UNL     1       2.230   7.350  19.846  0.00  0.00    +0.000 NA
BRANCH  14  15
ATOM     15  C   UNL     1       1.489   8.469  20.260  0.00  0.00    +0.000 A 
ATOM     16  C   UNL     1       1.210   8.588  21.625  0.00  0.00    +0.000 A 
ATOM     17  C   UNL     1       0.470   9.665  22.118  0.00  0.00    +0.000 A 
ATOM     18  C   UNL     1       0.007  10.645  21.244  0.00  0.00    +0.000 A 
ATOM     19  C   UNL     1       0.307  10.561  19.887  0.00  0.00    +0.000 A 
ATOM     20  C   UNL     1       1.057   9.486  19.402  0.00  0.00    +0.000 A 
ENDBRANCH  14  15
ENDBRANCH  10  13
TORSDOF 3
ENDMDL
MODEL 9
REMARK VINA RESULT:      -7.0      2.549      6.773
REMARK  Name = 
REMARK  3 active torsions:
REMARK  status: ('A' for Active; 'I' for Inactive)
REMARK    1  A    between atoms: O_1  and  C_2
REMARK    2  A    between atoms: C_11  and  C_12
REMARK    3  A    between atoms: N_13  and  C_14
REMARK                            x       y       z     vdW  Elec       q    Type
REMARK                         _______ _______ _______ _____ _____    ______ ____
ROOT
ATOM      1  C   UNL     1       2.255   4.246  18.886  0.00  0.00    +0.000 A 
ATOM      2  C   UNL     1       2.739   2.988  18.549  0.00  0.00    +0.000 A 
ATOM      3  C   UNL     1       3.791   2.877  17.645  0.00  0.00    +0.000 A 
ATOM      4  C   UNL     1       4.369   4.015  17.061  0.00  0.00    +0.000 A 
ATOM      5  C   UNL     1       5.414   3.854  16.136  0.00  0.00    +0.000 A 
ATOM      6  C   UNL     1       6.011   4.957  15.526  0.00  0.00    +0.000 A 
ATOM      7  C   UNL     1       5.565   6.231  15.829  0.00  0.00    +0.000 A 
ATOM      8  C   UNL     1       4.523   6.405  16.741  0.00  0.00    +0.000 A 
ATOM      9  C   UNL     1       3.895   5.310  17.395  0.00  0.00    +0.000 A 
ATOM     10  C   UNL     1       2.823   5.410  18.333  0.00  0.00    +0.000 A 
ENDROOT
BRANCH   1  11
ATOM     11  O   UNL     1       1.220   4.339  19.779  0.00  0.00    +0.000 OA
ATOM     12  H   UNL     1       0.394   4.524  19.298  0.00  0.00    +0.000 HD
ENDBRANCH   1  11
BRANCH  10  13
ATOM     13  C   UNL     1       2.248   6.704  18.788  0.00  0.00    +0.000 C 
ATOM     14  N   UNL     1       2.125   7.025  20.037  0.00  0.00    +0.000 NA
BRANCH  14  15
ATOM     15  C   UNL     1       1.538   8.246  20.404  0.00  0.00    +0.000 A 
ATOM     16  C   UNL     1       1.293   9.175  19.388  0.00  0.00    +0.000 A 
ATOM     17  C   UNL     1       0.720  10.417  19.670  0.00  0.00    +0.000 A 
ATOM     18  C   UNL     1       0.376  10.740  20.980  0.00  0.00    +0.000 A 
ATOM     19  C   UNL     1       0.579   9.811  21.998  0.00  0.00    +0.000 A 
ATOM     20  C   UNL     1       1.143   8.566  21.707  0.00  0.00    +0.000 A 
ENDBRANCH  14  15
ENDBRANCH  10  13
TORSDOF 3
ENDMDL
