MODEL 1
REMARK VINA RESULT:      -9.1      0.000      0.000
REMARK  Name = 
REMARK  7 active torsions:
REMARK  status: ('A' for Active; 'I' for Inactive)
REMARK    1  A    between atoms: C_2  and  O_21
REMARK    2  A    between atoms: N_3  and  C_4
REMARK    3  A    between atoms: C_4  and  C_5
REMARK    4  A    between atoms: C_8  and  C_9
REMARK    5  A    between atoms: C_12  and  C_13
REMARK    6  A    between atoms: O_21  and  C_22
REMARK    7  A    between atoms: C_27  and  N_28
REMARK                            x       y       z     vdW  Elec       q    Type
REMARK                         _______ _______ _______ _____ _____    ______ ____
ROOT
ATOM      1  O   UNL     1       1.980   5.054  18.026  0.00  0.00    +0.000 OA
ATOM      2  C   UNL     1       3.014   5.483  18.514  0.00  0.00    +0.000 C 
ATOM      3  N   UNL     1       3.556   6.710  18.277  0.00  0.00    +0.000 N 
ATOM      4  H   UNL     1       4.363   6.962  18.832  0.00  0.00    +0.000 HD
ENDROOT
BRANCH   3   5
ATOM      5  C   UNL     1       2.821   7.744  17.591  0.00  0.00    +0.000 C 
BRANCH   5   6
ATOM      6  C   UNL     1       1.932   8.532  18.515  0.00  0.00    +0.000 A 
ATOM      7  C   UNL     1       1.158   9.588  18.023  0.00  0.00    +0.000 A 
ATOM      8  C   UNL     1       0.308  10.312  18.871  0.00  0.00    +0.000 A 
ATOM      9  C   UNL     1       0.198  10.012  20.240  0.00  0.00    +0.000 A 
ATOM     10  C   UNL     1       0.984   8.948  20.721  0.00  0.00    +0.000 A 
ATOM     11  C   UNL     1       1.843   8.225  19.878  0.00  0.00    +0.000 A 
BRANCH   9  12
ATOM     12  C   UNL     1      -0.688  10.793  21.136  0.00  0.00    +0.000 A 
ATOM     13  C   UNL     1      -0.756  10.568  22.517  0.00  0.00    +0.000 A 
ATOM     14  C   UNL     1      -1.633  11.302  23.324  0.00  0.00    +0.000 A 
ATOM     15  C   UNL     1      -2.441  12.278  22.746  0.00  0.00    +0.000 A 
ATOM     16  N   UNL     1      -2.386  12.536  21.411  0.00  0.00    +0.000 NA
ATOM     17  C   UNL     1      -1.531  11.797  20.657  0.00  0.00    +0.000 A 
BRANCH  15  18
ATOM     18  C   UNL     1      -3.417  13.071  23.608  0.00  0.00    +0.000 C 
ATOM     19  F   UNL     1      -2.809  14.034  24.366  0.00  0.00    +0.000 F 
ATOM     20  F   UNL     1      -4.363  13.731  22.879  0.00  0.00    +0.000 F 
ATOM     21  F   UNL     1      -4.099  12.293  24.497  0.00  0.00    +0.000 F 
ENDBRANCH  15  18
ENDBRANCH   9  12
ENDBRANCH   5   6
ENDBRANCH   3   5
BRANCH   2  22
ATOM     22  O   UNL     1       3.762   4.827  19.422  0.00  0.00    +0.000 OA
BRANCH  22  23
ATOM     23  C   UNL     1       5.049   4.252  19.045  0.00  0.00    +0.000 C 
ATOM     24  C   UNL     1       6.197   5.249  19.273  0.00  0.00    +0.000 C 
ATOM     25  O   UNL     1       6.768   5.888  18.137  0.00  0.00    +0.000 OA
ATOM     26  C   UNL     1       6.709   5.251  16.977  0.00  0.00    +0.000 A 
ATOM     27  N   UNL     1       7.376   5.630  15.912  0.00  0.00    +0.000 NA
ATOM     28  C   UNL     1       6.928   4.798  14.904  0.00  0.00    +0.000 A 
ATOM     29  C   UNL     1       6.016   3.877  15.388  0.00  0.00    +0.000 A 
ATOM     30  N   UNL     1       5.899   4.187  16.713  0.00  0.00    +0.000 N 
ATOM     31  C   UNL     1       5.073   3.528  17.694  0.00  0.00    +0.000 C 
BRANCH  28  32
ATOM     32  N   UNL     1       7.385   4.953  13.540  0.00  0.00    +0.000 N 
ATOM     33  O   UNL     1       8.269   5.802  13.346  0.00  0.00    +0.000 OA
ATOM     34  O   UNL     1       6.869   4.240  12.669  0.00  0.00    +0.000 OA
ENDBRANCH  28  32
ENDBRANCH  22  23
ENDBRANCH   2  22
TORSDOF 7
ENDMDL
MODEL 2
REMARK VINA RESULT:      -9.0      0.195      1.060
REMARK  Name = 
REMARK  7 active torsions:
REMARK  status: ('A' for Active; 'I' for Inactive)
REMARK    1  A    between atoms: C_2  and  O_21
REMARK    2  A    between atoms: N_3  and  C_4
REMARK    3  A    between atoms: C_4  and  C_5
REMARK    4  A    between atoms: C_8  and  C_9
REMARK    5  A    between atoms: C_12  and  C_13
REMARK    6  A    between atoms: O_21  and  C_22
REMARK    7  A    between atoms: C_27  and  N_28
REMARK                            x       y       z     vdW  Elec       q    Type
REMARK                         _______ _______ _______ _____ _____    ______ ____
ROOT
ATOM      1  O   UNL     1       1.840   5.147  17.661  0.00  0.00    +0.000 OA
ATOM      2  C   UNL     1       2.829   5.519  18.274  0.00  0.00    +0.000 C 
ATOM      3  N   UNL     1       3.401   6.753  18.186  0.00  0.00    +0.000 N 
ATOM      4  H   UNL     1       4.155   6.948  18.830  0.00  0.00    +0.000 HD
ENDROOT
BRANCH   3   5
ATOM      5  C   UNL     1       2.742   7.849  17.519  0.00  0.00    +0.000 C 
BRANCH   5   6
ATOM      6  C   UNL     1       1.835   8.623  18.439  0.00  0.00    +0.000 A 
ATOM      7  C   UNL     1       1.858   8.387  19.817  0.00  0.00    +0.000 A 
ATOM      8  C   UNL     1       1.035   9.118  20.686  0.00  0.00    +0.000 A 
ATOM      9  C   UNL     1       0.159  10.112  20.213  0.00  0.00    +0.000 A 
ATOM     10  C   UNL     1       0.147  10.337  18.823  0.00  0.00    +0.000 A 
ATOM     11  C   UNL     1       0.962   9.601  17.948  0.00  0.00    +0.000 A 
BRANCH   9  12
ATOM     12  C   UNL     1      -0.722  10.869  21.133  0.00  0.00    +0.000 A 
ATOM     13  C   UNL     1      -0.792  10.601  22.506  0.00  0.00    +0.000 A 
ATOM     14  C   UNL     1      -1.664  11.315  23.336  0.00  0.00    +0.000 A 
ATOM     15  C   UNL     1      -2.466  12.315  22.788  0.00  0.00    +0.000 A 
ATOM     16  N   UNL     1      -2.409  12.614  21.462  0.00  0.00    +0.000 NA
ATOM     17  C   UNL     1      -1.559  11.894  20.685  0.00  0.00    +0.000 A 
BRANCH  15  18
ATOM     18  C   UNL     1      -3.437  13.086  23.674  0.00  0.00    +0.000 C 
ATOM     19  F   UNL     1      -4.295  13.883  22.968  0.00  0.00    +0.000 F 
ATOM     20  F   UNL     1      -4.236  12.277  24.428  0.00  0.00    +0.000 F 
ATOM     21  F   UNL     1      -2.812  13.923  24.552  0.00  0.00    +0.000 F 
ENDBRANCH  15  18
ENDBRANCH   9  12
ENDBRANCH   5   6
ENDBRANCH   3   5
BRANCH   2  22
ATOM     22  O   UNL     1       3.484   4.782  19.192  0.00  0.00    +0.000 OA
BRANCH  22  23
ATOM     23  C   UNL     1       4.765   4.163  18.866  0.00  0.00    +0.000 C 
ATOM     24  C   UNL     1       5.941   5.092  19.209  0.00  0.00    +0.000 C 
ATOM     25  O   UNL     1       6.610   5.752  18.140  0.00  0.00    +0.000 OA
ATOM     26  C   UNL     1       6.594   5.170  16.951  0.00  0.00    +0.000 A 
ATOM     27  N   UNL     1       7.343   5.562  15.947  0.00  0.00    +0.000 NA
ATOM     28  C   UNL     1       6.921   4.797  14.876  0.00  0.00    +0.000 A 
ATOM     29  C   UNL     1       5.940   3.902  15.260  0.00  0.00    +0.000 A 
ATOM     30  N   UNL     1       5.755   4.158  16.589  0.00  0.00    +0.000 N 
ATOM     31  C   UNL     1       4.840   3.499  17.487  0.00  0.00    +0.000 C 
BRANCH  28  32
ATOM     32  N   UNL     1       7.469   4.990  13.551  0.00  0.00    +0.000 N 
ATOM     33  O   UNL     1       8.356   5.851  13.438  0.00  0.00    +0.000 OA
ATOM     34  O   UNL     1       7.022   4.294  12.629  0.00  0.00    +0.000 OA
ENDBRANCH  28  32
ENDBRANCH  22  23
ENDBRANCH   2  22
TORSDOF 7
ENDMDL
MODEL 3
REMARK VINA RESULT:      -8.7      1.452      2.123
REMARK  Name = 
REMARK  7 active torsions:
REMARK  status: ('A' for Active; 'I' for Inactive)
REMARK    1  A    between atoms: C_2  and  O_21
REMARK    2  A    between atoms: N_3  and  C_4
REMARK    3  A    between atoms: C_4  and  C_5
REMARK    4  A    between atoms: C_8  and  C_9
REMARK    5  A    between atoms: C_12  and  C_13
REMARK    6  A    between atoms: O_21  and  C_22
REMARK    7  A    between atoms: C_27  and  N_28
REMARK                            x       y       z     vdW  Elec       q    Type
REMARK                         _______ _______ _______ _____ _____    ______ ____
ROOT
ATOM      1  O   UNL     1       4.520   4.294  19.790  0.00  0.00    +0.000 OA
ATOM      2  C   UNL     1       5.023   5.281  19.276  0.00  0.00    +0.000 C 
ATOM      3  N   UNL     1       4.393   6.148  18.434  0.00  0.00    +0.000 N 
ATOM      4  H   UNL     1       4.910   6.975  18.168  0.00  0.00    +0.000 HD
ENDROOT
BRANCH   3   5
ATOM      5  C   UNL     1       2.963   6.119  18.245  0.00  0.00    +0.000 C 
BRANCH   5   6
ATOM      6  C   UNL     1       2.259   7.212  19.004  0.00  0.00    +0.000 A 
ATOM      7  C   UNL     1       1.823   6.995  20.315  0.00  0.00    +0.000 A 
ATOM      8  C   UNL     1       1.187   8.013  21.039  0.00  0.00    +0.000 A 
ATOM      9  C   UNL     1       0.961   9.285  20.484  0.00  0.00    +0.000 A 
ATOM     10  C   UNL     1       1.404   9.487  19.163  0.00  0.00    +0.000 A 
ATOM     11  C   UNL     1       2.033   8.469  18.430  0.00  0.00    +0.000 A 
BRANCH   9  12
ATOM     12  C   UNL     1       0.271  10.353  21.246  0.00  0.00    +0.000 A 
ATOM     13  C   UNL     1      -0.446  10.099  22.422  0.00  0.00    +0.000 A 
ATOM     14  C   UNL     1      -1.115  11.129  23.094  0.00  0.00    +0.000 A 
ATOM     15  C   UNL     1      -1.055  12.427  22.591  0.00  0.00    +0.000 A 
ATOM     16  N   UNL     1      -0.351  12.712  21.461  0.00  0.00    +0.000 NA
ATOM     17  C   UNL     1       0.276  11.685  20.830  0.00  0.00    +0.000 A 
BRANCH  15  18
ATOM     18  C   UNL     1      -1.796  13.556  23.298  0.00  0.00    +0.000 C 
ATOM     19  F   UNL     1      -2.959  13.150  23.892  0.00  0.00    +0.000 F 
ATOM     20  F   UNL     1      -1.066  14.136  24.295  0.00  0.00    +0.000 F 
ATOM     21  F   UNL     1      -2.157  14.568  22.457  0.00  0.00    +0.000 F 
ENDBRANCH  15  18
ENDBRANCH   9  12
ENDBRANCH   5   6
ENDBRANCH   3   5
BRANCH   2  22
ATOM     22  O   UNL     1       6.279   5.710  19.509  0.00  0.00    +0.000 OA
BRANCH  22  23
ATOM     23  C   UNL     1       7.275   5.697  18.443  0.00  0.00    +0.000 C 
ATOM     24  C   UNL     1       7.239   6.998  17.625  0.00  0.00    +0.000 C 
ATOM     25  O   UNL     1       6.652   6.960  16.329  0.00  0.00    +0.000 OA
ATOM     26  C   UNL     1       6.669   5.807  15.677  0.00  0.00    +0.000 A 
ATOM     27  N   UNL     1       6.356   5.692  14.408  0.00  0.00    +0.000 NA
ATOM     28  C   UNL     1       6.364   4.332  14.168  0.00  0.00    +0.000 A 
ATOM     29  C   UNL     1       6.735   3.628  15.300  0.00  0.00    +0.000 A 
ATOM     30  N   UNL     1       6.928   4.595  16.245  0.00  0.00    +0.000 N 
ATOM     31  C   UNL     1       7.333   4.407  17.616  0.00  0.00    +0.000 C 
BRANCH  28  32
ATOM     32  N   UNL     1       5.993   3.792  12.877  0.00  0.00    +0.000 N 
ATOM     33  O   UNL     1       6.921   3.572  12.083  0.00  0.00    +0.000 OA
ATOM     34  O   UNL     1       4.792   3.592  12.652  0.00  0.00    +0.000 OA
ENDBRANCH  28  32
ENDBRANCH  22  23
ENDBRANCH   2  22
TORSDOF 7
ENDMDL
MODEL 4
REMARK VINA RESULT:      -8.7      1.993      3.931
REMARK  Name = 
REMARK  7 active torsions:
REMARK  status: ('A' for Active; 'I' for Inactive)
REMARK    1  A    between atoms: C_2  and  O_21
REMARK    2  A    between atoms: N_3  and  C_4
REMARK    3  A    between atoms: C_4  and  C_5
REMARK    4  A    between atoms: C_8  and  C_9
REMARK    5  A    between atoms: C_12  and  C_13
REMARK    6  A    between atoms: O_21  and  C_22
REMARK    7  A    between atoms: C_27  and  N_28
REMARK                            x       y       z     vdW  Elec       q    Type
REMARK                         _______ _______ _______ _____ _____    ______ ____
ROOT
ATOM      1  O   UNL     1       5.505   7.008  15.560  0.00  0.00    +0.000 OA
ATOM      2  C   UNL     1       5.494   6.905  16.777  0.00  0.00    +0.000 C 
ATOM      3  N   UNL     1       4.455   7.236  17.594  0.00  0.00    +0.000 N 
ATOM      4  H   UNL     1       4.558   7.000  18.572  0.00  0.00    +0.000 HD
ENDROOT
BRANCH   3   5
ATOM      5  C   UNL     1       3.144   7.531  17.073  0.00  0.00    +0.000 C 
BRANCH   5   6
ATOM      6  C   UNL     1       2.287   8.284  18.056  0.00  0.00    +0.000 A 
ATOM      7  C   UNL     1       1.634   9.459  17.670  0.00  0.00    +0.000 A 
ATOM      8  C   UNL     1       0.815  10.155  18.570  0.00  0.00    +0.000 A 
ATOM      9  C   UNL     1       0.618   9.707  19.888  0.00  0.00    +0.000 A 
ATOM     10  C   UNL     1       1.283   8.524  20.262  0.00  0.00    +0.000 A 
ATOM     11  C   UNL     1       2.111   7.828  19.367  0.00  0.00    +0.000 A 
BRANCH   9  12
ATOM     12  C   UNL     1      -0.234  10.456  20.842  0.00  0.00    +0.000 A 
ATOM     13  C   UNL     1      -0.343  10.107  22.194  0.00  0.00    +0.000 A 
ATOM     14  C   UNL     1      -1.187  10.817  23.056  0.00  0.00    +0.000 A 
ATOM     15  C   UNL     1      -1.920  11.895  22.563  0.00  0.00    +0.000 A 
ATOM     16  N   UNL     1      -1.823  12.273  21.259  0.00  0.00    +0.000 NA
ATOM     17  C   UNL     1      -1.002  11.554  20.450  0.00  0.00    +0.000 A 
BRANCH  15  18
ATOM     18  C   UNL     1      -2.860  12.665  23.482  0.00  0.00    +0.000 C 
ATOM     19  F   UNL     1      -3.874  13.294  22.814  0.00  0.00    +0.000 F 
ATOM     20  F   UNL     1      -3.475  11.873  24.407  0.00  0.00    +0.000 F 
ATOM     21  F   UNL     1      -2.231  13.650  24.187  0.00  0.00    +0.000 F 
ENDBRANCH  15  18
ENDBRANCH   9  12
ENDBRANCH   5   6
ENDBRANCH   3   5
BRANCH   2  22
ATOM     22  O   UNL     1       6.497   6.383  17.510  0.00  0.00    +0.000 OA
BRANCH  22  23
ATOM     23  C   UNL     1       6.395   5.031  18.049  0.00  0.00    +0.000 C 
ATOM     24  C   UNL     1       6.100   4.006  16.941  0.00  0.00    +0.000 C 
ATOM     25  O   UNL     1       4.781   3.480  16.846  0.00  0.00    +0.000 OA
ATOM     26  C   UNL     1       4.053   3.437  17.951  0.00  0.00    +0.000 A 
ATOM     27  N   UNL     1       2.916   2.788  18.040  0.00  0.00    +0.000 NA
ATOM     28  C   UNL     1       2.424   3.115  19.289  0.00  0.00    +0.000 A 
ATOM     29  C   UNL     1       3.306   3.932  19.973  0.00  0.00    +0.000 A 
ATOM     30  N   UNL     1       4.337   4.118  19.098  0.00  0.00    +0.000 N 
ATOM     31  C   UNL     1       5.535   4.892  19.311  0.00  0.00    +0.000 C 
BRANCH  28  32
ATOM     32  N   UNL     1       1.132   2.642  19.737  0.00  0.00    +0.000 N 
ATOM     33  O   UNL     1       0.929   2.664  20.961  0.00  0.00    +0.000 OA
ATOM     34  O   UNL     1       0.327   2.249  18.882  0.00  0.00    +0.000 OA
ENDBRANCH  28  32
ENDBRANCH  22  23
ENDBRANCH   2  22
TORSDOF 7
ENDMDL
MODEL 5
REMARK VINA RESULT:      -8.6      0.521      1.383
REMARK  Name = 
REMARK  7 active torsions:
REMARK  status: ('A' for Active; 'I' for Inactive)
REMARK    1  A    between atoms: C_2  and  O_21
REMARK    2  A    between atoms: N_3  and  C_4
REMARK    3  A    between atoms: C_4  and  C_5
REMARK    4  A    between atoms: C_8  and  C_9
REMARK    5  A    between atoms: C_12  and  C_13
REMARK    6  A    between atoms: O_21  and  C_22
REMARK    7  A    between atoms: C_27  and  N_28
REMARK                            x       y       z     vdW  Elec       q    Type
REMARK                         _______ _______ _______ _____ _____    ______ ____
ROOT
ATOM      1  O   UNL     1       1.785   5.255  18.090  0.00  0.00    +0.000 OA
ATOM      2  C   UNL     1       2.860   5.627  18.536  0.00  0.00    +0.000 C 
ATOM      3  N   UNL     1       3.486   6.797  18.229  0.00  0.00    +0.000 N 
ATOM      4  H   UNL     1       4.323   7.012  18.754  0.00  0.00    +0.000 HD
ENDROOT
BRANCH   3   5
ATOM      5  C   UNL     1       2.816   7.851  17.508  0.00  0.00    +0.000 C 
BRANCH   5   6
ATOM      6  C   UNL     1       1.880   8.643  18.382  0.00  0.00    +0.000 A 
ATOM      7  C   UNL     1       1.855   8.432  19.764  0.00  0.00    +0.000 A 
ATOM      8  C   UNL     1       1.004   9.180  20.591  0.00  0.00    +0.000 A 
ATOM      9  C   UNL     1       0.147  10.165  20.070  0.00  0.00    +0.000 A 
ATOM     10  C   UNL     1       0.182  10.364  18.677  0.00  0.00    +0.000 A 
ATOM     11  C   UNL     1       1.025   9.612  17.844  0.00  0.00    +0.000 A 
BRANCH   9  12
ATOM     12  C   UNL     1      -0.764  10.941  20.945  0.00  0.00    +0.000 A 
ATOM     13  C   UNL     1      -1.736  11.815  20.440  0.00  0.00    +0.000 A 
ATOM     14  C   UNL     1      -2.553  12.558  21.300  0.00  0.00    +0.000 A 
ATOM     15  C   UNL     1      -2.405  12.416  22.678  0.00  0.00    +0.000 A 
ATOM     16  N   UNL     1      -1.484  11.562  23.202  0.00  0.00    +0.000 NA
ATOM     17  C   UNL     1      -0.702  10.865  22.338  0.00  0.00    +0.000 A 
BRANCH  15  18
ATOM     18  C   UNL     1      -3.271  13.235  23.628  0.00  0.00    +0.000 C 
ATOM     19  F   UNL     1      -4.172  12.477  24.325  0.00  0.00    +0.000 F 
ATOM     20  F   UNL     1      -2.549  13.898  24.577  0.00  0.00    +0.000 F 
ATOM     21  F   UNL     1      -4.018  14.182  22.990  0.00  0.00    +0.000 F 
ENDBRANCH  15  18
ENDBRANCH   9  12
ENDBRANCH   5   6
ENDBRANCH   3   5
BRANCH   2  22
ATOM     22  O   UNL     1       3.578   4.958  19.459  0.00  0.00    +0.000 OA
BRANCH  22  23
ATOM     23  C   UNL     1       4.803   4.260  19.081  0.00  0.00    +0.000 C 
ATOM     24  C   UNL     1       6.047   5.119  19.359  0.00  0.00    +0.000 C 
ATOM     25  O   UNL     1       6.703   5.729  18.253  0.00  0.00    +0.000 OA
ATOM     26  C   UNL     1       6.597   5.140  17.072  0.00  0.00    +0.000 A 
ATOM     27  N   UNL     1       7.321   5.478  16.031  0.00  0.00    +0.000 NA
ATOM     28  C   UNL     1       6.804   4.732  14.989  0.00  0.00    +0.000 A 
ATOM     29  C   UNL     1       5.789   3.900  15.428  0.00  0.00    +0.000 A 
ATOM     30  N   UNL     1       5.683   4.178  16.761  0.00  0.00    +0.000 N 
ATOM     31  C   UNL     1       4.773   3.582  17.707  0.00  0.00    +0.000 C 
BRANCH  28  32
ATOM     32  N   UNL     1       7.300   4.880  13.638  0.00  0.00    +0.000 N 
ATOM     33  O   UNL     1       8.151   5.764  13.454  0.00  0.00    +0.000 OA
ATOM     34  O   UNL     1       6.846   4.128  12.765  0.00  0.00    +0.000 OA
ENDBRANCH  28  32
ENDBRANCH  22  23
ENDBRANCH   2  22
TORSDOF 7
ENDMDL
MODEL 6
REMARK VINA RESULT:      -8.6      1.138      1.740
REMARK  Name = 
REMARK  7 active torsions:
REMARK  status: ('A' for Active; 'I' for Inactive)
REMARK    1  A    between atoms: C_2  and  O_21
REMARK    2  A    between atoms: N_3  and  C_4
REMARK    3  A    between atoms: C_4  and  C_5
REMARK    4  A    between atoms: C_8  and  C_9
REMARK    5  A    between atoms: C_12  and  C_13
REMARK    6  A    between atoms: O_21  and  C_22
REMARK    7  A    between atoms: C_27  and  N_28
REMARK                            x       y       z     vdW  Elec       q    Type
REMARK                         _______ _______ _______ _____ _____    ______ ____
ROOT
ATOM      1  O   UNL     1       2.320   5.037  18.153  0.00  0.00    +0.000 OA
ATOM      2  C   UNL     1       3.205   5.715  18.652  0.00  0.00    +0.000 C 
ATOM      3  N   UNL     1       3.409   7.044  18.430  0.00  0.00    +0.000 N 
ATOM      4  H   UNL     1       4.121   7.490  18.992  0.00  0.00    +0.000 HD
ENDROOT
BRANCH   3   5
ATOM      5  C   UNL     1       2.433   7.859  17.750  0.00  0.00    +0.000 C 
BRANCH   5   6
ATOM      6  C   UNL     1       1.795   8.876  18.660  0.00  0.00    +0.000 A 
ATOM      7  C   UNL     1       1.358   8.507  19.936  0.00  0.00    +0.000 A 
ATOM      8  C   UNL     1       0.784   9.450  20.800  0.00  0.00    +0.000 A 
ATOM      9  C   UNL     1       0.625  10.796  20.425  0.00  0.00    +0.000 A 
ATOM     10  C   UNL     1       1.068  11.151  19.137  0.00  0.00    +0.000 A 
ATOM     11  C   UNL     1       1.635  10.209  18.264  0.00  0.00    +0.000 A 
BRANCH   9  12
ATOM     12  C   UNL     1       0.001  11.786  21.334  0.00  0.00    +0.000 A 
ATOM     13  C   UNL     1       0.321  13.149  21.303  0.00  0.00    +0.000 A 
ATOM     14  C   UNL     1      -0.262  14.048  22.203  0.00  0.00    +0.000 A 
ATOM     15  C   UNL     1      -1.184  13.579  23.137  0.00  0.00    +0.000 A 
ATOM     16  N   UNL     1      -1.533  12.264  23.183  0.00  0.00    +0.000 NA
ATOM     17  C   UNL     1      -0.938  11.420  22.300  0.00  0.00    +0.000 A 
BRANCH  15  18
ATOM     18  C   UNL     1      -1.813  14.540  24.139  0.00  0.00    +0.000 C 
ATOM     19  F   UNL     1      -2.266  15.697  23.568  0.00  0.00    +0.000 F 
ATOM     20  F   UNL     1      -2.892  14.012  24.786  0.00  0.00    +0.000 F 
ATOM     21  F   UNL     1      -0.946  14.938  25.115  0.00  0.00    +0.000 F 
ENDBRANCH  15  18
ENDBRANCH   9  12
ENDBRANCH   5   6
ENDBRANCH   3   5
BRANCH   2  22
ATOM     22  O   UNL     1       4.096   5.266  19.557  0.00  0.00    +0.000 OA
BRANCH  22  23
ATOM     23  C   UNL     1       5.315   4.591  19.125  0.00  0.00    +0.000 C 
ATOM     24  C   UNL     1       6.535   5.522  19.222  0.00  0.00    +0.000 C 
ATOM     25  O   UNL     1       7.063   6.067  18.018  0.00  0.00    +0.000 OA
ATOM     26  C   UNL     1       6.883   5.381  16.899  0.00  0.00    +0.000 A 
ATOM     27  N   UNL     1       7.495   5.664  15.774  0.00  0.00    +0.000 NA
ATOM     28  C   UNL     1       6.927   4.815  14.843  0.00  0.00    +0.000 A 
ATOM     29  C   UNL     1       5.996   3.980  15.435  0.00  0.00    +0.000 A 
ATOM     30  N   UNL     1       5.993   4.359  16.747  0.00  0.00    +0.000 N 
ATOM     31  C   UNL     1       5.199   3.804  17.815  0.00  0.00    +0.000 C 
BRANCH  28  32
ATOM     32  N   UNL     1       7.295   4.874  13.445  0.00  0.00    +0.000 N 
ATOM     33  O   UNL     1       6.737   4.062  12.691  0.00  0.00    +0.000 OA
ATOM     34  O   UNL     1       8.133   5.718  13.100  0.00  0.00    +0.000 OA
ENDBRANCH  28  32
ENDBRANCH  22  23
ENDBRANCH   2  22
TORSDOF 7
ENDMDL
MODEL 7
REMARK VINA RESULT:      -8.5      1.085      1.604
REMARK  Name = 
REMARK  7 active torsions:
REMARK  status: ('A' for Active; 'I' for Inactive)
REMARK    1  A    between atoms: C_2  and  O_21
REMARK    2  A    between atoms: N_3  and  C_4
REMARK    3  A    between atoms: C_4  and  C_5
REMARK    4  A    between atoms: C_8  and  C_9
REMARK    5  A    between atoms: C_12  and  C_13
REMARK    6  A    between atoms: O_21  and  C_22
REMARK    7  A    between atoms: C_27  and  N_28
REMARK                            x       y       z     vdW  Elec       q    Type
REMARK                         _______ _______ _______ _____ _____    ______ ____
ROOT
ATOM      1  O   UNL     1       2.322   5.010  18.702  0.00  0.00    +0.000 OA
ATOM      2  C   UNL     1       3.320   5.683  18.916  0.00  0.00    +0.000 C 
ATOM      3  N   UNL     1       3.563   6.926  18.413  0.00  0.00    +0.000 N 
ATOM      4  H   UNL     1       4.386   7.399  18.760  0.00  0.00    +0.000 HD
ENDROOT
BRANCH   3   5
ATOM      5  C   UNL     1       2.537   7.690  17.748  0.00  0.00    +0.000 C 
BRANCH   5   6
ATOM      6  C   UNL     1       1.892   8.704  18.656  0.00  0.00    +0.000 A 
ATOM      7  C   UNL     1       1.591   9.985  18.184  0.00  0.00    +0.000 A 
ATOM      8  C   UNL     1       0.969  10.929  19.013  0.00  0.00    +0.000 A 
ATOM      9  C   UNL     1       0.625  10.631  20.343  0.00  0.00    +0.000 A 
ATOM     10  C   UNL     1       0.936   9.338  20.804  0.00  0.00    +0.000 A 
ATOM     11  C   UNL     1       1.567   8.392  19.981  0.00  0.00    +0.000 A 
BRANCH   9  12
ATOM     12  C   UNL     1      -0.016  11.638  21.222  0.00  0.00    +0.000 A 
ATOM     13  C   UNL     1       0.046  13.014  20.967  0.00  0.00    +0.000 A 
ATOM     14  C   UNL     1      -0.541  13.937  21.841  0.00  0.00    +0.000 A 
ATOM     15  C   UNL     1      -1.207  13.477  22.975  0.00  0.00    +0.000 A 
ATOM     16  N   UNL     1      -1.303  12.146  23.243  0.00  0.00    +0.000 NA
ATOM     17  C   UNL     1      -0.712  11.281  22.379  0.00  0.00    +0.000 A 
BRANCH  15  18
ATOM     18  C   UNL     1      -1.833  14.469  23.949  0.00  0.00    +0.000 C 
ATOM     19  F   UNL     1      -2.972  13.999  24.541  0.00  0.00    +0.000 F 
ATOM     20  F   UNL     1      -1.005  14.805  24.979  0.00  0.00    +0.000 F 
ATOM     21  F   UNL     1      -2.195  15.643  23.357  0.00  0.00    +0.000 F 
ENDBRANCH  15  18
ENDBRANCH   9  12
ENDBRANCH   5   6
ENDBRANCH   3   5
BRANCH   2  22
ATOM     22  O   UNL     1       4.322   5.325  19.742  0.00  0.00    +0.000 OA
BRANCH  22  23
ATOM     23  C   UNL     1       5.471   4.585  19.234  0.00  0.00    +0.000 C 
ATOM     24  C   UNL     1       6.749   5.440  19.266  0.00  0.00    +0.000 C 
ATOM     25  O   UNL     1       7.236   5.967  18.037  0.00  0.00    +0.000 OA
ATOM     26  C   UNL     1       6.951   5.304  16.926  0.00  0.00    +0.000 A 
ATOM     27  N   UNL     1       7.513   5.563  15.769  0.00  0.00    +0.000 NA
ATOM     28  C   UNL     1       6.842   4.759  14.867  0.00  0.00    +0.000 A 
ATOM     29  C   UNL     1       5.899   3.974  15.506  0.00  0.00    +0.000 A 
ATOM     30  N   UNL     1       5.994   4.339  16.819  0.00  0.00    +0.000 N 
ATOM     31  C   UNL     1       5.232   3.820  17.927  0.00  0.00    +0.000 C 
BRANCH  28  32
ATOM     32  N   UNL     1       7.131   4.812  13.450  0.00  0.00    +0.000 N 
ATOM     33  O   UNL     1       6.559   3.973  12.737  0.00  0.00    +0.000 OA
ATOM     34  O   UNL     1       7.921   5.677  13.049  0.00  0.00    +0.000 OA
ENDBRANCH  28  32
ENDBRANCH  22  23
ENDBRANCH   2  22
TORSDOF 7
ENDMDL
MODEL 8
REMARK VINA RESULT:      -8.5      2.009      4.071
REMARK  Name = 
REMARK  7 active torsions:
REMARK  status: ('A' for Active; 'I' for Inactive)
REMARK    1  A    between atoms: C_2  and  O_21
REMARK    2  A    between atoms: N_3  and  C_4
REMARK    3  A    between atoms: C_4  and  C_5
REMARK    4  A    between atoms: C_8  and  C_9
REMARK    5  A    between atoms: C_12  and  C_13
REMARK    6  A    between atoms: O_21  and  C_22
REMARK    7  A    between atoms: C_27  and  N_28
REMARK                            x       y       z     vdW  Elec       q    Type
REMARK                         _______ _______ _______ _____ _____    ______ ____
ROOT
ATOM      1  O   UNL     1       5.316   6.986  15.526  0.00  0.00    +0.000 OA
ATOM      2  C   UNL     1       5.334   6.939  16.747  0.00  0.00    +0.000 C 
ATOM      3  N   UNL     1       4.302   7.279  17.570  0.00  0.00    +0.000 N 
ATOM      4  H   UNL     1       4.431   7.092  18.555  0.00  0.00    +0.000 HD
ENDROOT
BRANCH   3   5
ATOM      5  C   UNL     1       2.972   7.511  17.064  0.00  0.00    +0.000 C 
BRANCH   5   6
ATOM      6  C   UNL     1       2.113   8.284  18.030  0.00  0.00    +0.000 A 
ATOM      7  C   UNL     1       2.003   7.873  19.362  0.00  0.00    +0.000 A 
ATOM      8  C   UNL     1       1.226   8.599  20.276  0.00  0.00    +0.000 A 
ATOM      9  C   UNL     1       0.529   9.759  19.896  0.00  0.00    +0.000 A 
ATOM     10  C   UNL     1       0.649  10.159  18.552  0.00  0.00    +0.000 A 
ATOM     11  C   UNL     1       1.419   9.431  17.630  0.00  0.00    +0.000 A 
BRANCH   9  12
ATOM     12  C   UNL     1      -0.306  10.513  20.861  0.00  0.00    +0.000 A 
ATOM     13  C   UNL     1      -0.345  10.207  22.228  0.00  0.00    +0.000 A 
ATOM     14  C   UNL     1      -1.176  10.919  23.102  0.00  0.00    +0.000 A 
ATOM     15  C   UNL     1      -1.965  11.954  22.605  0.00  0.00    +0.000 A 
ATOM     16  N   UNL     1      -1.937  12.290  21.287  0.00  0.00    +0.000 NA
ATOM     17  C   UNL     1      -1.128  11.570  20.466  0.00  0.00    +0.000 A 
BRANCH  15  18
ATOM     18  C   UNL     1      -2.891  12.724  23.540  0.00  0.00    +0.000 C 
ATOM     19  F   UNL     1      -3.602  11.916  24.383  0.00  0.00    +0.000 F 
ATOM     20  F   UNL     1      -2.229  13.598  24.352  0.00  0.00    +0.000 F 
ATOM     21  F   UNL     1      -3.828  13.461  22.876  0.00  0.00    +0.000 F 
ENDBRANCH  15  18
ENDBRANCH   9  12
ENDBRANCH   5   6
ENDBRANCH   3   5
BRANCH   2  22
ATOM     22  O   UNL     1       6.366   6.482  17.481  0.00  0.00    +0.000 OA
BRANCH  22  23
ATOM     23  C   UNL     1       6.317   5.151  18.079  0.00  0.00    +0.000 C 
ATOM     24  C   UNL     1       6.033   4.072  17.022  0.00  0.00    +0.000 C 
ATOM     25  O   UNL     1       4.730   3.501  16.977  0.00  0.00    +0.000 OA
ATOM     26  C   UNL     1       4.026   3.484  18.099  0.00  0.00    +0.000 A 
ATOM     27  N   UNL     1       2.912   2.804  18.240  0.00  0.00    +0.000 NA
ATOM     28  C   UNL     1       2.435   3.169  19.484  0.00  0.00    +0.000 A 
ATOM     29  C   UNL     1       3.304   4.042  20.114  0.00  0.00    +0.000 A 
ATOM     30  N   UNL     1       4.312   4.221  19.209  0.00  0.00    +0.000 N 
ATOM     31  C   UNL     1       5.488   5.040  19.363  0.00  0.00    +0.000 C 
BRANCH  28  32
ATOM     32  N   UNL     1       1.168   2.676  19.980  0.00  0.00    +0.000 N 
ATOM     33  O   UNL     1       0.344   2.312  19.126  0.00  0.00    +0.000 OA
ATOM     34  O   UNL     1       0.991   2.653  21.205  0.00  0.00    +0.000 OA
ENDBRANCH  28  32
ENDBRANCH  22  23
ENDBRANCH   2  22
TORSDOF 7
ENDMDL
MODEL 9
REMARK VINA RESULT:      -8.4      2.840      3.612
REMARK  Name = 
REMARK  7 active torsions:
REMARK  status: ('A' for Active; 'I' for Inactive)
REMARK    1  A    between atoms: C_2  and  O_21
REMARK    2  A    between atoms: N_3  and  C_4
REMARK    3  A    between atoms: C_4  and  C_5
REMARK    4  A    between atoms: C_8  and  C_9
REMARK    5  A    between atoms: C_12  and  C_13
REMARK    6  A    between atoms: O_21  and  C_22
REMARK    7  A    between atoms: C_27  and  N_28
REMARK                            x       y       z     vdW  Elec       q    Type
REMARK                         _______ _______ _______ _____ _____    ______ ____
ROOT
ATOM      1  O   UNL     1       0.563   3.312  19.966  0.00  0.00    +0.000 OA
ATOM      2  C   UNL     1       1.274   3.820  19.113  0.00  0.00    +0.000 C 
ATOM      3  N   UNL     1       1.913   5.019  19.222  0.00  0.00    +0.000 N 
ATOM      4  H   UNL     1       2.547   5.261  18.473  0.00  0.00    +0.000 HD
ENDROOT
BRANCH   3   5
ATOM      5  C   UNL     1       2.008   5.717  20.481  0.00  0.00    +0.000 C 
BRANCH   5   6
ATOM      6  C   UNL     1       1.664   7.178  20.357  0.00  0.00    +0.000 A 
ATOM      7  C   UNL     1       1.956   7.876  19.181  0.00  0.00    +0.000 A 
ATOM      8  C   UNL     1       1.618   9.230  19.047  0.00  0.00    +0.000 A 
ATOM      9  C   UNL     1       0.979   9.939  20.079  0.00  0.00    +0.000 A 
ATOM     10  C   UNL     1       0.694   9.223  21.257  0.00  0.00    +0.000 A 
ATOM     11  C   UNL     1       1.037   7.869  21.401  0.00  0.00    +0.000 A 
BRANCH   9  12
ATOM     12  C   UNL     1       0.641  11.375  19.939  0.00  0.00    +0.000 A 
ATOM     13  C   UNL     1       0.260  12.172  21.027  0.00  0.00    +0.000 A 
ATOM     14  C   UNL     1      -0.087  13.516  20.849  0.00  0.00    +0.000 A 
ATOM     15  C   UNL     1      -0.042  14.071  19.572  0.00  0.00    +0.000 A 
ATOM     16  N   UNL     1       0.342  13.331  18.496  0.00  0.00    +0.000 NA
ATOM     17  C   UNL     1       0.662  12.027  18.705  0.00  0.00    +0.000 A 
BRANCH  15  18
ATOM     18  C   UNL     1      -0.438  15.527  19.357  0.00  0.00    +0.000 C 
ATOM     19  F   UNL     1       0.434  16.414  19.926  0.00  0.00    +0.000 F 
ATOM     20  F   UNL     1      -0.500  15.879  18.040  0.00  0.00    +0.000 F 
ATOM     21  F   UNL     1      -1.657  15.834  19.887  0.00  0.00    +0.000 F 
ENDBRANCH  15  18
ENDBRANCH   9  12
ENDBRANCH   5   6
ENDBRANCH   3   5
BRANCH   2  22
ATOM     22  O   UNL     1       1.591   3.244  17.938  0.00  0.00    +0.000 OA
BRANCH  22  23
ATOM     23  C   UNL     1       2.960   2.816  17.669  0.00  0.00    +0.000 C 
ATOM     24  C   UNL     1       3.692   2.429  18.965  0.00  0.00    +0.000 C 
ATOM     25  O   UNL     1       4.658   3.334  19.487  0.00  0.00    +0.000 OA
ATOM     26  C   UNL     1       5.274   4.139  18.634  0.00  0.00    +0.000 A 
ATOM     27  N   UNL     1       6.323   4.861  18.953  0.00  0.00    +0.000 NA
ATOM     28  C   UNL     1       6.556   5.648  17.841  0.00  0.00    +0.000 A 
ATOM     29  C   UNL     1       5.662   5.356  16.828  0.00  0.00    +0.000 A 
ATOM     30  N   UNL     1       4.859   4.387  17.359  0.00  0.00    +0.000 N 
ATOM     31  C   UNL     1       3.754   3.719  16.718  0.00  0.00    +0.000 C 
BRANCH  28  32
ATOM     32  N   UNL     1       7.606   6.644  17.831  0.00  0.00    +0.000 N 
ATOM     33  O   UNL     1       8.215   6.817  18.898  0.00  0.00    +0.000 OA
ATOM     34  O   UNL     1       7.821   7.251  16.774  0.00  0.00    +0.000 OA
ENDBRANCH  28  32
ENDBRANCH  22  23
ENDBRANCH   2  22
TORSDOF 7
ENDMDL
