MODEL 1
REMARK VINA RESULT:      -8.4      0.000      0.000
REMARK  Name = 
REMARK  18 active torsions:
REMARK  status: ('A' for Active; 'I' for Inactive)
REMARK    1  A    between atoms: C_1  and  C_2
REMARK    2  A    between atoms: C_2  and  C_3
REMARK    3  A    between atoms: C_3  and  C_4
REMARK    4  A    between atoms: C_4  and  C_5
REMARK    5  A    between atoms: C_5  and  N_6
REMARK    6  A    between atoms: C_5  and  C_24
REMARK    7  A    between atoms: C_7  and  C_9
REMARK    8  A    between atoms: C_9  and  N_10
REMARK    9  A    between atoms: C_9  and  C_21
REMARK   10  A    between atoms: C_11  and  O_13
REMARK   11  A    between atoms: O_13  and  C_14
REMARK   12  A    between atoms: C_14  and  C_15
REMARK   13  A    between atoms: C_21  and  C_22
REMARK   14  A    between atoms: C_21  and  C_23
REMARK   15  A    between atoms: C_24  and  C_26
REMARK   16  A    between atoms: N_28  and  O_29
REMARK   17  A    between atoms: O_29  and  C_30
REMARK   18  A    between atoms: C_30  and  C_31
REMARK                            x       y       z     vdW  Elec       q    Type
REMARK                         _______ _______ _______ _____ _____    ______ ____
ROOT
ATOM      1  N   UNL     1       4.545   4.456  17.247  0.00  0.00    +0.000 N 
ATOM      2  C   UNL     1       4.767   3.960  18.514  0.00  0.00    +0.000 C 
ATOM      3  O   UNL     1       5.885   3.803  18.989  0.00  0.00    +0.000 OA
ATOM      4  H   UNL     1       3.625   4.341  16.835  0.00  0.00    +0.000 HD
ENDROOT
BRANCH   1   5
ATOM      5  C   UNL     1       5.641   4.864  16.367  0.00  0.00    +0.000 C 
BRANCH   5   6
ATOM      6  C   UNL     1       5.822   6.376  16.457  0.00  0.00    +0.000 C 
ATOM      7  O   UNL     1       5.127   7.194  15.854  0.00  0.00    +0.000 OA
BRANCH   6   8
ATOM      8  C   UNL     1       6.976   6.890  17.319  0.00  0.00    +0.000 C 
ATOM      9  O   UNL     1       7.739   6.115  17.868  0.00  0.00    +0.000 OA
ATOM     10  N   UNL     1       7.027   8.261  17.341  0.00  0.00    +0.000 N 
ATOM     11  H   UNL     1       6.498   8.809  16.670  0.00  0.00    +0.000 HD
BRANCH  10  12
ATOM     12  O   UNL     1       8.116   8.837  18.030  0.00  0.00    +0.000 OA
BRANCH  12  13
ATOM     13  C   UNL     1       8.277  10.203  17.640  0.00  0.00    +0.000 C 
BRANCH  13  14
ATOM     14  C   UNL     1       9.338  10.826  18.506  0.00  0.00    +0.000 A 
ATOM     15  C   UNL     1      10.479  11.403  17.928  0.00  0.00    +0.000 A 
ATOM     16  C   UNL     1      11.492  11.928  18.733  0.00  0.00    +0.000 A 
ATOM     17  C   UNL     1      11.371  11.889  20.121  0.00  0.00    +0.000 A 
ATOM     18  C   UNL     1      10.231  11.339  20.705  0.00  0.00    +0.000 A 
ATOM     19  C   UNL     1       9.219  10.813  19.903  0.00  0.00    +0.000 A 
ENDBRANCH  13  14
ENDBRANCH  12  13
ENDBRANCH  10  12
ENDBRANCH   6   8
ENDBRANCH   5   6
BRANCH   5  20
ATOM     20  C   UNL     1       5.297   4.496  14.913  0.00  0.00    +0.000 C 
BRANCH  20  21
ATOM     21  C   UNL     1       6.526   4.621  14.015  0.00  0.00    +0.000 C 
BRANCH  21  23
ATOM     22  C   UNL     1       5.172   3.606  12.215  0.00  0.00    +0.000 C 
ATOM     23  C   UNL     1       6.543   3.620  12.863  0.00  0.00    +0.000 C 
ENDBRANCH  21  23
ENDBRANCH  20  21
ENDBRANCH   5  20
ENDBRANCH   1   5
BRANCH   2  24
ATOM     24  C   UNL     1       3.485   3.575  19.282  0.00  0.00    +0.000 C 
BRANCH  24  25
ATOM     25  N   UNL     1       2.766   4.817  19.521  0.00  0.00    +0.000 N 
ATOM     26  C   UNL     1       2.195   5.077  20.730  0.00  0.00    +0.000 C 
ATOM     27  O   UNL     1       2.159   4.291  21.653  0.00  0.00    +0.000 OA
ATOM     28  H   UNL     1       2.914   5.605  18.898  0.00  0.00    +0.000 HD
BRANCH  26  29
ATOM     29  O   UNL     1       1.683   6.334  20.743  0.00  0.00    +0.000 OA
BRANCH  29  30
ATOM     30  C   UNL     1       2.237   7.227  19.763  0.00  0.00    +0.000 C 
BRANCH  30  31
ATOM     31  C   UNL     1       1.407   8.482  19.764  0.00  0.00    +0.000 A 
ATOM     32  C   UNL     1       1.411   9.346  18.662  0.00  0.00    +0.000 A 
ATOM     33  C   UNL     1       0.712  10.553  18.707  0.00  0.00    +0.000 A 
ATOM     34  C   UNL     1      -0.005  10.901  19.849  0.00  0.00    +0.000 A 
ATOM     35  C   UNL     1      -0.046  10.030  20.932  0.00  0.00    +0.000 A 
ATOM     36  C   UNL     1       0.668   8.832  20.901  0.00  0.00    +0.000 A 
ENDBRANCH  30  31
ENDBRANCH  29  30
ENDBRANCH  26  29
ENDBRANCH  24  25
BRANCH  24  37
ATOM     37  C   UNL     1       2.656   2.552  18.472  0.00  0.00    +0.000 C 
ATOM     38  C   UNL     1       3.476   1.287  18.188  0.00  0.00    +0.000 C 
ATOM     39  C   UNL     1       1.373   2.147  19.209  0.00  0.00    +0.000 C 
ENDBRANCH  24  37
ENDBRANCH   2  24
TORSDOF 15
ENDMDL
MODEL 2
REMARK VINA RESULT:      -8.2      0.958      1.196
REMARK  Name = 
REMARK  18 active torsions:
REMARK  status: ('A' for Active; 'I' for Inactive)
REMARK    1  A    between atoms: C_1  and  C_2
REMARK    2  A    between atoms: C_2  and  C_3
REMARK    3  A    between atoms: C_3  and  C_4
REMARK    4  A    between atoms: C_4  and  C_5
REMARK    5  A    between atoms: C_5  and  N_6
REMARK    6  A    between atoms: C_5  and  C_24
REMARK    7  A    between atoms: C_7  and  C_9
REMARK    8  A    between atoms: C_9  and  N_10
REMARK    9  A    between atoms: C_9  and  C_21
REMARK   10  A    between atoms: C_11  and  O_13
REMARK   11  A    between atoms: O_13  and  C_14
REMARK   12  A    between atoms: C_14  and  C_15
REMARK   13  A    between atoms: C_21  and  C_22
REMARK   14  A    between atoms: C_21  and  C_23
REMARK   15  A    between atoms: C_24  and  C_26
REMARK   16  A    between atoms: N_28  and  O_29
REMARK   17  A    between atoms: O_29  and  C_30
REMARK   18  A    between atoms: C_30  and  C_31
REMARK                            x       y       z     vdW  Elec       q    Type
REMARK                         _______ _______ _______ _____ _____    ______ ____
ROOT
ATOM      1  N   UNL     1       5.050   4.837  17.944  0.00  0.00    +0.000 N 
ATOM      2  C   UNL     1       4.674   3.961  18.941  0.00  0.00    +0.000 C 
ATOM      3  O   UNL     1       5.457   3.205  19.502  0.00  0.00    +0.000 OA
ATOM      4  H   UNL     1       4.328   5.258  17.370  0.00  0.00    +0.000 HD
ENDROOT
BRANCH   1   5
ATOM      5  C   UNL     1       6.437   4.953  17.491  0.00  0.00    +0.000 C 
BRANCH   5   6
ATOM      6  C   UNL     1       6.736   6.409  17.152  0.00  0.00    +0.000 C 
ATOM      7  O   UNL     1       6.285   6.999  16.170  0.00  0.00    +0.000 OA
BRANCH   6   8
ATOM      8  C   UNL     1       7.697   7.157  18.078  0.00  0.00    +0.000 C 
ATOM      9  O   UNL     1       8.303   6.568  18.956  0.00  0.00    +0.000 OA
ATOM     10  N   UNL     1       7.786   8.488  17.756  0.00  0.00    +0.000 N 
ATOM     11  H   UNL     1       7.429   8.831  16.871  0.00  0.00    +0.000 HD
BRANCH  10  12
ATOM     12  O   UNL     1       8.723   9.249  18.489  0.00  0.00    +0.000 OA
BRANCH  12  13
ATOM     13  C   UNL     1       8.822  10.565  17.941  0.00  0.00    +0.000 C 
BRANCH  13  14
ATOM     14  C   UNL     1      10.006  11.255  18.562  0.00  0.00    +0.000 A 
ATOM     15  C   UNL     1      11.038  11.759  17.758  0.00  0.00    +0.000 A 
ATOM     16  C   UNL     1      12.165  12.346  18.337  0.00  0.00    +0.000 A 
ATOM     17  C   UNL     1      12.266  12.442  19.724  0.00  0.00    +0.000 A 
ATOM     18  C   UNL     1      11.235  11.965  20.532  0.00  0.00    +0.000 A 
ATOM     19  C   UNL     1      10.110  11.377  19.955  0.00  0.00    +0.000 A 
ENDBRANCH  13  14
ENDBRANCH  12  13
ENDBRANCH  10  12
ENDBRANCH   6   8
ENDBRANCH   5   6
BRANCH   5  20
ATOM     20  C   UNL     1       6.636   4.102  16.224  0.00  0.00    +0.000 C 
BRANCH  20  21
ATOM     21  C   UNL     1       5.306   3.870  15.509  0.00  0.00    +0.000 C 
BRANCH  21  23
ATOM     22  C   UNL     1       6.656   4.006  13.445  0.00  0.00    +0.000 C 
ATOM     23  C   UNL     1       5.307   4.333  14.055  0.00  0.00    +0.000 C 
ENDBRANCH  21  23
ENDBRANCH  20  21
ENDBRANCH   5  20
ENDBRANCH   1   5
BRANCH   2  24
ATOM     24  C   UNL     1       3.167   3.980  19.270  0.00  0.00    +0.000 C 
BRANCH  24  25
ATOM     25  N   UNL     1       2.764   5.377  19.256  0.00  0.00    +0.000 N 
ATOM     26  C   UNL     1       2.153   5.943  20.333  0.00  0.00    +0.000 C 
ATOM     27  O   UNL     1       1.822   5.337  21.330  0.00  0.00    +0.000 OA
ATOM     28  H   UNL     1       3.171   6.006  18.569  0.00  0.00    +0.000 HD
BRANCH  26  29
ATOM     29  O   UNL     1       1.977   7.273  20.124  0.00  0.00    +0.000 OA
BRANCH  29  30
ATOM     30  C   UNL     1       1.046   7.910  21.014  0.00  0.00    +0.000 C 
BRANCH  30  31
ATOM     31  C   UNL     1       0.842   9.321  20.532  0.00  0.00    +0.000 A 
ATOM     32  C   UNL     1       0.867   9.622  19.164  0.00  0.00    +0.000 A 
ATOM     33  C   UNL     1       0.770  10.944  18.729  0.00  0.00    +0.000 A 
ATOM     34  C   UNL     1       0.637  11.975  19.656  0.00  0.00    +0.000 A 
ATOM     35  C   UNL     1       0.571  11.680  21.013  0.00  0.00    +0.000 A 
ATOM     36  C   UNL     1       0.690  10.363  21.455  0.00  0.00    +0.000 A 
ENDBRANCH  30  31
ENDBRANCH  29  30
ENDBRANCH  26  29
ENDBRANCH  24  25
BRANCH  24  37
ATOM     37  C   UNL     1       2.380   3.122  18.253  0.00  0.00    +0.000 C 
ATOM     38  C   UNL     1       3.180   1.875  17.855  0.00  0.00    +0.000 C 
ATOM     39  C   UNL     1       1.024   2.673  18.812  0.00  0.00    +0.000 C 
ENDBRANCH  24  37
ENDBRANCH   2  24
TORSDOF 15
ENDMDL
MODEL 3
REMARK VINA RESULT:      -8.0      1.390      2.086
REMARK  Name = 
REMARK  18 active torsions:
REMARK  status: ('A' for Active; 'I' for Inactive)
REMARK    1  A    between atoms: C_1  and  C_2
REMARK    2  A    between atoms: C_2  and  C_3
REMARK    3  A    between atoms: C_3  and  C_4
REMARK    4  A    between atoms: C_4  and  C_5
REMARK    5  A    between atoms: C_5  and  N_6
REMARK    6  A    between atoms: C_5  and  C_24
REMARK    7  A    between atoms: C_7  and  C_9
REMARK    8  A    between atoms: C_9  and  N_10
REMARK    9  A    between atoms: C_9  and  C_21
REMARK   10  A    between atoms: C_11  and  O_13
REMARK   11  A    between atoms: O_13  and  C_14
REMARK   12  A    between atoms: C_14  and  C_15
REMARK   13  A    between atoms: C_21  and  C_22
REMARK   14  A    between atoms: C_21  and  C_23
REMARK   15  A    between atoms: C_24  and  C_26
REMARK   16  A    between atoms: N_28  and  O_29
REMARK   17  A    between atoms: O_29  and  C_30
REMARK   18  A    between atoms: C_30  and  C_31
REMARK                            x       y       z     vdW  Elec       q    Type
REMARK                         _______ _______ _______ _____ _____    ______ ____
ROOT
ATOM      1  N   UNL     1       4.446   4.802  17.445  0.00  0.00    +0.000 N 
ATOM      2  C   UNL     1       4.124   4.387  18.719  0.00  0.00    +0.000 C 
ATOM      3  O   UNL     1       4.735   3.509  19.316  0.00  0.00    +0.000 OA
ATOM      4  H   UNL     1       3.770   5.355  16.928  0.00  0.00    +0.000 HD
ENDROOT
BRANCH   1   5
ATOM      5  C   UNL     1       5.575   4.239  16.704  0.00  0.00    +0.000 C 
BRANCH   5   6
ATOM      6  C   UNL     1       6.851   4.978  17.091  0.00  0.00    +0.000 C 
ATOM      7  O   UNL     1       7.894   4.424  17.437  0.00  0.00    +0.000 OA
BRANCH   6   8
ATOM      8  C   UNL     1       6.799   6.507  17.089  0.00  0.00    +0.000 C 
ATOM      9  O   UNL     1       5.875   7.100  16.560  0.00  0.00    +0.000 OA
ATOM     10  N   UNL     1       7.862   7.056  17.761  0.00  0.00    +0.000 N 
ATOM     11  H   UNL     1       8.445   6.483  18.363  0.00  0.00    +0.000 HD
BRANCH  10  12
ATOM     12  O   UNL     1       7.857   8.461  17.902  0.00  0.00    +0.000 OA
BRANCH  12  13
ATOM     13  C   UNL     1       8.840   8.861  18.860  0.00  0.00    +0.000 C 
BRANCH  13  14
ATOM     14  C   UNL     1       9.008  10.354  18.777  0.00  0.00    +0.000 A 
ATOM     15  C   UNL     1       8.430  11.077  17.723  0.00  0.00    +0.000 A 
ATOM     16  C   UNL     1       8.636  12.454  17.612  0.00  0.00    +0.000 A 
ATOM     17  C   UNL     1       9.411  13.122  18.559  0.00  0.00    +0.000 A 
ATOM     18  C   UNL     1       9.969  12.417  19.624  0.00  0.00    +0.000 A 
ATOM     19  C   UNL     1       9.768  11.041  19.735  0.00  0.00    +0.000 A 
ENDBRANCH  13  14
ENDBRANCH  12  13
ENDBRANCH  10  12
ENDBRANCH   6   8
ENDBRANCH   5   6
BRANCH   5  20
ATOM     20  C   UNL     1       5.340   4.420  15.194  0.00  0.00    +0.000 C 
BRANCH  20  21
ATOM     21  C   UNL     1       6.470   3.783  14.387  0.00  0.00    +0.000 C 
BRANCH  21  23
ATOM     22  C   UNL     1       4.952   3.452  12.467  0.00  0.00    +0.000 C 
ATOM     23  C   UNL     1       6.318   3.963  12.879  0.00  0.00    +0.000 C 
ENDBRANCH  21  23
ENDBRANCH  20  21
ENDBRANCH   5  20
ENDBRANCH   1   5
BRANCH   2  24
ATOM     24  C   UNL     1       2.894   5.094  19.328  0.00  0.00    +0.000 C 
BRANCH  24  25
ATOM     25  N   UNL     1       2.815   6.397  18.687  0.00  0.00    +0.000 N 
ATOM     26  C   UNL     1       2.312   7.476  19.347  0.00  0.00    +0.000 C 
ATOM     27  O   UNL     1       1.822   7.433  20.456  0.00  0.00    +0.000 OA
ATOM     28  H   UNL     1       3.374   6.579  17.858  0.00  0.00    +0.000 HD
BRANCH  26  29
ATOM     29  O   UNL     1       2.445   8.593  18.587  0.00  0.00    +0.000 OA
BRANCH  29  30
ATOM     30  C   UNL     1       1.384   8.816  17.643  0.00  0.00    +0.000 C 
BRANCH  30  31
ATOM     31  C   UNL     1       0.448   9.834  18.237  0.00  0.00    +0.000 A 
ATOM     32  C   UNL     1       0.852  10.640  19.308  0.00  0.00    +0.000 A 
ATOM     33  C   UNL     1      -0.050  11.516  19.913  0.00  0.00    +0.000 A 
ATOM     34  C   UNL     1      -1.360  11.600  19.447  0.00  0.00    +0.000 A 
ATOM     35  C   UNL     1      -1.757  10.831  18.358  0.00  0.00    +0.000 A 
ATOM     36  C   UNL     1      -0.866   9.938  17.764  0.00  0.00    +0.000 A 
ENDBRANCH  30  31
ENDBRANCH  29  30
ENDBRANCH  26  29
ENDBRANCH  24  25
BRANCH  24  37
ATOM     37  C   UNL     1       1.620   4.245  19.113  0.00  0.00    +0.000 C 
ATOM     38  C   UNL     1       1.798   3.282  17.933  0.00  0.00    +0.000 C 
ATOM     39  C   UNL     1       1.262   3.428  20.361  0.00  0.00    +0.000 C 
ENDBRANCH  24  37
ENDBRANCH   2  24
TORSDOF 15
ENDMDL
MODEL 4
REMARK VINA RESULT:      -7.9      2.715      9.120
REMARK  Name = 
REMARK  18 active torsions:
REMARK  status: ('A' for Active; 'I' for Inactive)
REMARK    1  A    between atoms: C_1  and  C_2
REMARK    2  A    between atoms: C_2  and  C_3
REMARK    3  A    between atoms: C_3  and  C_4
REMARK    4  A    between atoms: C_4  and  C_5
REMARK    5  A    between atoms: C_5  and  N_6
REMARK    6  A    between atoms: C_5  and  C_24
REMARK    7  A    between atoms: C_7  and  C_9
REMARK    8  A    between atoms: C_9  and  N_10
REMARK    9  A    between atoms: C_9  and  C_21
REMARK   10  A    between atoms: C_11  and  O_13
REMARK   11  A    between atoms: O_13  and  C_14
REMARK   12  A    between atoms: C_14  and  C_15
REMARK   13  A    between atoms: C_21  and  C_22
REMARK   14  A    between atoms: C_21  and  C_23
REMARK   15  A    between atoms: C_24  and  C_26
REMARK   16  A    between atoms: N_28  and  O_29
REMARK   17  A    between atoms: O_29  and  C_30
REMARK   18  A    between atoms: C_30  and  C_31
REMARK                            x       y       z     vdW  Elec       q    Type
REMARK                         _______ _______ _______ _____ _____    ______ ____
ROOT
ATOM      1  N   UNL     1       4.101   5.803  17.963  0.00  0.00    +0.000 N 
ATOM      2  C   UNL     1       5.022   6.206  17.021  0.00  0.00    +0.000 C 
ATOM      3  O   UNL     1       4.727   6.854  16.025  0.00  0.00    +0.000 OA
ATOM      4  H   UNL     1       4.368   5.083  18.628  0.00  0.00    +0.000 HD
ENDROOT
BRANCH   1   5
ATOM      5  C   UNL     1       2.681   6.144  17.861  0.00  0.00    +0.000 C 
BRANCH   5   6
ATOM      6  C   UNL     1       2.359   7.262  18.847  0.00  0.00    +0.000 C 
ATOM      7  O   UNL     1       2.331   7.120  20.069  0.00  0.00    +0.000 OA
BRANCH   6   8
ATOM      8  C   UNL     1       2.005   8.629  18.259  0.00  0.00    +0.000 C 
ATOM      9  O   UNL     1       2.556   9.037  17.251  0.00  0.00    +0.000 OA
ATOM     10  N   UNL     1       1.017   9.254  18.977  0.00  0.00    +0.000 N 
ATOM     11  H   UNL     1       0.464   8.738  19.653  0.00  0.00    +0.000 HD
BRANCH  10  12
ATOM     12  O   UNL     1       0.548  10.481  18.461  0.00  0.00    +0.000 OA
BRANCH  12  13
ATOM     13  C   UNL     1      -0.635  10.886  19.154  0.00  0.00    +0.000 C 
BRANCH  13  14
ATOM     14  C   UNL     1      -1.804  10.773  18.213  0.00  0.00    +0.000 A 
ATOM     15  C   UNL     1      -1.710   9.990  17.054  0.00  0.00    +0.000 A 
ATOM     16  C   UNL     1      -2.772   9.933  16.150  0.00  0.00    +0.000 A 
ATOM     17  C   UNL     1      -3.941  10.650  16.401  0.00  0.00    +0.000 A 
ATOM     18  C   UNL     1      -4.054  11.413  17.562  0.00  0.00    +0.000 A 
ATOM     19  C   UNL     1      -2.992  11.473  18.465  0.00  0.00    +0.000 A 
ENDBRANCH  13  14
ENDBRANCH  12  13
ENDBRANCH  10  12
ENDBRANCH   6   8
ENDBRANCH   5   6
BRANCH   5  20
ATOM     20  C   UNL     1       1.830   4.913  18.219  0.00  0.00    +0.000 C 
BRANCH  20  21
ATOM     21  C   UNL     1       2.715   3.738  18.629  0.00  0.00    +0.000 C 
BRANCH  21  23
ATOM     22  C   UNL     1       3.429   1.399  18.283  0.00  0.00    +0.000 C 
ATOM     23  C   UNL     1       2.510   2.492  17.773  0.00  0.00    +0.000 C 
ENDBRANCH  21  23
ENDBRANCH  20  21
ENDBRANCH   5  20
ENDBRANCH   1   5
BRANCH   2  24
ATOM     24  C   UNL     1       6.466   5.738  17.301  0.00  0.00    +0.000 C 
BRANCH  24  25
ATOM     25  N   UNL     1       7.148   5.732  16.016  0.00  0.00    +0.000 N 
ATOM     26  C   UNL     1       7.065   4.660  15.181  0.00  0.00    +0.000 C 
ATOM     27  O   UNL     1       6.509   3.618  15.458  0.00  0.00    +0.000 OA
ATOM     28  H   UNL     1       7.459   6.612  15.613  0.00  0.00    +0.000 HD
BRANCH  26  29
ATOM     29  O   UNL     1       7.688   4.934  14.007  0.00  0.00    +0.000 OA
BRANCH  29  30
ATOM     30  C   UNL     1       6.812   5.115  12.882  0.00  0.00    +0.000 C 
BRANCH  30  31
ATOM     31  C   UNL     1       6.604   3.769  12.240  0.00  0.00    +0.000 A 
ATOM     32  C   UNL     1       7.690   3.035  11.748  0.00  0.00    +0.000 A 
ATOM     33  C   UNL     1       7.481   1.832  11.072  0.00  0.00    +0.000 A 
ATOM     34  C   UNL     1       6.187   1.348  10.892  0.00  0.00    +0.000 A 
ATOM     35  C   UNL     1       5.107   2.053  11.414  0.00  0.00    +0.000 A 
ATOM     36  C   UNL     1       5.308   3.267  12.071  0.00  0.00    +0.000 A 
ENDBRANCH  30  31
ENDBRANCH  29  30
ENDBRANCH  26  29
ENDBRANCH  24  25
BRANCH  24  37
ATOM     37  C   UNL     1       7.146   6.667  18.333  0.00  0.00    +0.000 C 
ATOM     38  C   UNL     1       8.177   5.897  19.166  0.00  0.00    +0.000 C 
ATOM     39  C   UNL     1       7.849   7.852  17.659  0.00  0.00    +0.000 C 
ENDBRANCH  24  37
ENDBRANCH   2  24
TORSDOF 15
ENDMDL
MODEL 5
REMARK VINA RESULT:      -7.9      1.903      6.160
REMARK  Name = 
REMARK  18 active torsions:
REMARK  status: ('A' for Active; 'I' for Inactive)
REMARK    1  A    between atoms: C_1  and  C_2
REMARK    2  A    between atoms: C_2  and  C_3
REMARK    3  A    between atoms: C_3  and  C_4
REMARK    4  A    between atoms: C_4  and  C_5
REMARK    5  A    between atoms: C_5  and  N_6
REMARK    6  A    between atoms: C_5  and  C_24
REMARK    7  A    between atoms: C_7  and  C_9
REMARK    8  A    between atoms: C_9  and  N_10
REMARK    9  A    between atoms: C_9  and  C_21
REMARK   10  A    between atoms: C_11  and  O_13
REMARK   11  A    between atoms: O_13  and  C_14
REMARK   12  A    between atoms: C_14  and  C_15
REMARK   13  A    between atoms: C_21  and  C_22
REMARK   14  A    between atoms: C_21  and  C_23
REMARK   15  A    between atoms: C_24  and  C_26
REMARK   16  A    between atoms: N_28  and  O_29
REMARK   17  A    between atoms: O_29  and  C_30
REMARK   18  A    between atoms: C_30  and  C_31
REMARK                            x       y       z     vdW  Elec       q    Type
REMARK                         _______ _______ _______ _____ _____    ______ ____
ROOT
ATOM      1  N   UNL     1       5.149   5.215  18.109  0.00  0.00    +0.000 N 
ATOM      2  C   UNL     1       5.020   4.213  19.047  0.00  0.00    +0.000 C 
ATOM      3  O   UNL     1       5.972   3.713  19.634  0.00  0.00    +0.000 OA
ATOM      4  H   UNL     1       4.362   5.416  17.501  0.00  0.00    +0.000 HD
ENDROOT
BRANCH   1   5
ATOM      5  C   UNL     1       6.448   5.787  17.754  0.00  0.00    +0.000 C 
BRANCH   5   6
ATOM      6  C   UNL     1       7.229   4.782  16.914  0.00  0.00    +0.000 C 
ATOM      7  O   UNL     1       8.216   4.165  17.313  0.00  0.00    +0.000 OA
BRANCH   6   8
ATOM      8  C   UNL     1       6.771   4.576  15.469  0.00  0.00    +0.000 C 
ATOM      9  O   UNL     1       6.015   3.666  15.177  0.00  0.00    +0.000 OA
ATOM     10  N   UNL     1       7.283   5.533  14.629  0.00  0.00    +0.000 N 
ATOM     11  H   UNL     1       7.706   6.376  15.002  0.00  0.00    +0.000 HD
BRANCH  10  12
ATOM     12  O   UNL     1       6.842   5.490  13.288  0.00  0.00    +0.000 OA
BRANCH  12  13
ATOM     13  C   UNL     1       7.745   4.712  12.499  0.00  0.00    +0.000 C 
BRANCH  13  14
ATOM     14  C   UNL     1       6.999   3.527  11.947  0.00  0.00    +0.000 A 
ATOM     15  C   UNL     1       5.598   3.483  11.999  0.00  0.00    +0.000 A 
ATOM     16  C   UNL     1       4.908   2.358  11.542  0.00  0.00    +0.000 A 
ATOM     17  C   UNL     1       5.611   1.273  11.020  0.00  0.00    +0.000 A 
ATOM     18  C   UNL     1       7.002   1.317  10.943  0.00  0.00    +0.000 A 
ATOM     19  C   UNL     1       7.693   2.438  11.401  0.00  0.00    +0.000 A 
ENDBRANCH  13  14
ENDBRANCH  12  13
ENDBRANCH  10  12
ENDBRANCH   6   8
ENDBRANCH   5   6
BRANCH   5  20
ATOM     20  C   UNL     1       7.247   6.083  19.036  0.00  0.00    +0.000 C 
BRANCH  20  21
ATOM     21  C   UNL     1       8.320   7.138  18.778  0.00  0.00    +0.000 C 
BRANCH  21  23
ATOM     22  C   UNL     1       8.580   9.527  18.205  0.00  0.00    +0.000 C 
ATOM     23  C   UNL     1       7.874   8.241  17.822  0.00  0.00    +0.000 C 
ENDBRANCH  21  23
ENDBRANCH  20  21
ENDBRANCH   5  20
ENDBRANCH   1   5
BRANCH   2  24
ATOM     24  C   UNL     1       3.570   3.736  19.274  0.00  0.00    +0.000 C 
BRANCH  24  25
ATOM     25  N   UNL     1       2.783   4.932  19.527  0.00  0.00    +0.000 N 
ATOM     26  C   UNL     1       2.181   5.136  20.731  0.00  0.00    +0.000 C 
ATOM     27  O   UNL     1       2.173   4.330  21.638  0.00  0.00    +0.000 OA
ATOM     28  H   UNL     1       2.897   5.740  18.922  0.00  0.00    +0.000 HD
BRANCH  26  29
ATOM     29  O   UNL     1       1.602   6.363  20.762  0.00  0.00    +0.000 OA
BRANCH  29  30
ATOM     30  C   UNL     1       2.160   7.322  19.848  0.00  0.00    +0.000 C 
BRANCH  30  31
ATOM     31  C   UNL     1       1.406   8.613  20.020  0.00  0.00    +0.000 A 
ATOM     32  C   UNL     1       0.853   8.960  21.259  0.00  0.00    +0.000 A 
ATOM     33  C   UNL     1       0.077  10.113  21.388  0.00  0.00    +0.000 A 
ATOM     34  C   UNL     1      -0.143  10.933  20.284  0.00  0.00    +0.000 A 
ATOM     35  C   UNL     1       0.437  10.615  19.060  0.00  0.00    +0.000 A 
ATOM     36  C   UNL     1       1.195   9.453  18.920  0.00  0.00    +0.000 A 
ENDBRANCH  30  31
ENDBRANCH  29  30
ENDBRANCH  26  29
ENDBRANCH  24  25
BRANCH  24  37
ATOM     37  C   UNL     1       3.065   2.937  18.050  0.00  0.00    +0.000 C 
ATOM     38  C   UNL     1       3.527   1.476  18.123  0.00  0.00    +0.000 C 
ATOM     39  C   UNL     1       1.535   2.961  17.945  0.00  0.00    +0.000 C 
ENDBRANCH  24  37
ENDBRANCH   2  24
TORSDOF 15
ENDMDL
MODEL 6
REMARK VINA RESULT:      -7.8      1.534      2.121
REMARK  Name = 
REMARK  18 active torsions:
REMARK  status: ('A' for Active; 'I' for Inactive)
REMARK    1  A    between atoms: C_1  and  C_2
REMARK    2  A    between atoms: C_2  and  C_3
REMARK    3  A    between atoms: C_3  and  C_4
REMARK    4  A    between atoms: C_4  and  C_5
REMARK    5  A    between atoms: C_5  and  N_6
REMARK    6  A    between atoms: C_5  and  C_24
REMARK    7  A    between atoms: C_7  and  C_9
REMARK    8  A    between atoms: C_9  and  N_10
REMARK    9  A    between atoms: C_9  and  C_21
REMARK   10  A    between atoms: C_11  and  O_13
REMARK   11  A    between atoms: O_13  and  C_14
REMARK   12  A    between atoms: C_14  and  C_15
REMARK   13  A    between atoms: C_21  and  C_22
REMARK   14  A    between atoms: C_21  and  C_23
REMARK   15  A    between atoms: C_24  and  C_26
REMARK   16  A    between atoms: N_28  and  O_29
REMARK   17  A    between atoms: O_29  and  C_30
REMARK   18  A    between atoms: C_30  and  C_31
REMARK                            x       y       z     vdW  Elec       q    Type
REMARK                         _______ _______ _______ _____ _____    ______ ____
ROOT
ATOM      1  N   UNL     1       5.311   4.892  17.878  0.00  0.00    +0.000 N 
ATOM      2  C   UNL     1       4.546   4.281  18.849  0.00  0.00    +0.000 C 
ATOM      3  O   UNL     1       4.973   3.403  19.588  0.00  0.00    +0.000 OA
ATOM      4  H   UNL     1       4.841   5.433  17.159  0.00  0.00    +0.000 HD
ENDROOT
BRANCH   1   5
ATOM      5  C   UNL     1       6.719   4.555  17.668  0.00  0.00    +0.000 C 
BRANCH   5   6
ATOM      6  C   UNL     1       7.594   5.604  18.345  0.00  0.00    +0.000 C 
ATOM      7  O   UNL     1       8.331   5.377  19.305  0.00  0.00    +0.000 OA
BRANCH   6   8
ATOM      8  C   UNL     1       7.503   7.036  17.815  0.00  0.00    +0.000 C 
ATOM      9  O   UNL     1       6.809   7.302  16.850  0.00  0.00    +0.000 OA
ATOM     10  N   UNL     1       8.245   7.909  18.570  0.00  0.00    +0.000 N 
ATOM     11  H   UNL     1       8.595   7.636  19.483  0.00  0.00    +0.000 HD
BRANCH  10  12
ATOM     12  O   UNL     1       8.151   9.275  18.223  0.00  0.00    +0.000 OA
BRANCH  12  13
ATOM     13  C   UNL     1       9.433   9.898  18.332  0.00  0.00    +0.000 C 
BRANCH  13  14
ATOM     14  C   UNL     1       9.305  11.103  19.224  0.00  0.00    +0.000 A 
ATOM     15  C   UNL     1       9.135  12.381  18.671  0.00  0.00    +0.000 A 
ATOM     16  C   UNL     1       9.076  13.507  19.496  0.00  0.00    +0.000 A 
ATOM     17  C   UNL     1       9.178  13.364  20.879  0.00  0.00    +0.000 A 
ATOM     18  C   UNL     1       9.323  12.096  21.439  0.00  0.00    +0.000 A 
ATOM     19  C   UNL     1       9.385  10.971  20.617  0.00  0.00    +0.000 A 
ENDBRANCH  13  14
ENDBRANCH  12  13
ENDBRANCH  10  12
ENDBRANCH   6   8
ENDBRANCH   5   6
BRANCH   5  20
ATOM     20  C   UNL     1       7.028   4.555  16.160  0.00  0.00    +0.000 C 
BRANCH  20  21
ATOM     21  C   UNL     1       6.028   3.689  15.399  0.00  0.00    +0.000 C 
BRANCH  21  23
ATOM     22  C   UNL     1       7.144   4.899  13.557  0.00  0.00    +0.000 C 
ATOM     23  C   UNL     1       5.996   3.969  13.899  0.00  0.00    +0.000 C 
ENDBRANCH  21  23
ENDBRANCH  20  21
ENDBRANCH   5  20
ENDBRANCH   1   5
BRANCH   2  24
ATOM     24  C   UNL     1       3.082   4.766  18.906  0.00  0.00    +0.000 C 
BRANCH  24  25
ATOM     25  N   UNL     1       3.064   6.079  18.280  0.00  0.00    +0.000 N 
ATOM     26  C   UNL     1       2.625   7.175  18.959  0.00  0.00    +0.000 C 
ATOM     27  O   UNL     1       2.148   7.145  20.073  0.00  0.00    +0.000 OA
ATOM     28  H   UNL     1       3.621   6.241  17.447  0.00  0.00    +0.000 HD
BRANCH  26  29
ATOM     29  O   UNL     1       2.807   8.292  18.209  0.00  0.00    +0.000 OA
BRANCH  29  30
ATOM     30  C   UNL     1       1.599   8.913  17.740  0.00  0.00    +0.000 C 
BRANCH  30  31
ATOM     31  C   UNL     1       1.454  10.230  18.454  0.00  0.00    +0.000 A 
ATOM     32  C   UNL     1       2.207  11.344  18.062  0.00  0.00    +0.000 A 
ATOM     33  C   UNL     1       2.136  12.535  18.786  0.00  0.00    +0.000 A 
ATOM     34  C   UNL     1       1.303  12.626  19.899  0.00  0.00    +0.000 A 
ATOM     35  C   UNL     1       0.522  11.537  20.269  0.00  0.00    +0.000 A 
ATOM     36  C   UNL     1       0.606  10.337  19.563  0.00  0.00    +0.000 A 
ENDBRANCH  30  31
ENDBRANCH  29  30
ENDBRANCH  26  29
ENDBRANCH  24  25
BRANCH  24  37
ATOM     37  C   UNL     1       2.149   3.755  18.201  0.00  0.00    +0.000 C 
ATOM     38  C   UNL     1       2.961   2.681  17.469  0.00  0.00    +0.000 C 
ATOM     39  C   UNL     1       1.205   3.063  19.192  0.00  0.00    +0.000 C 
ENDBRANCH  24  37
ENDBRANCH   2  24
TORSDOF 15
ENDMDL
MODEL 7
REMARK VINA RESULT:      -7.7      1.353      2.205
REMARK  Name = 
REMARK  18 active torsions:
REMARK  status: ('A' for Active; 'I' for Inactive)
REMARK    1  A    between atoms: C_1  and  C_2
REMARK    2  A    between atoms: C_2  and  C_3
REMARK    3  A    between atoms: C_3  and  C_4
REMARK    4  A    between atoms: C_4  and  C_5
REMARK    5  A    between atoms: C_5  and  N_6
REMARK    6  A    between atoms: C_5  and  C_24
REMARK    7  A    between atoms: C_7  and  C_9
REMARK    8  A    between atoms: C_9  and  N_10
REMARK    9  A    between atoms: C_9  and  C_21
REMARK   10  A    between atoms: C_11  and  O_13
REMARK   11  A    between atoms: O_13  and  C_14
REMARK   12  A    between atoms: C_14  and  C_15
REMARK   13  A    between atoms: C_21  and  C_22
REMARK   14  A    between atoms: C_21  and  C_23
REMARK   15  A    between atoms: C_24  and  C_26
REMARK   16  A    between atoms: N_28  and  O_29
REMARK   17  A    between atoms: O_29  and  C_30
REMARK   18  A    between atoms: C_30  and  C_31
REMARK                            x       y       z     vdW  Elec       q    Type
REMARK                         _______ _______ _______ _____ _____    ______ ____
ROOT
ATOM      1  N   UNL     1       4.218   5.208  17.774  0.00  0.00    +0.000 N 
ATOM      2  C   UNL     1       4.272   5.364  19.142  0.00  0.00    +0.000 C 
ATOM      3  O   UNL     1       5.307   5.271  19.790  0.00  0.00    +0.000 OA
ATOM      4  H   UNL     1       3.314   5.067  17.336  0.00  0.00    +0.000 HD
ENDROOT
BRANCH   1   5
ATOM      5  C   UNL     1       5.413   4.942  16.972  0.00  0.00    +0.000 C 
BRANCH   5   6
ATOM      6  C   UNL     1       6.032   6.265  16.535  0.00  0.00    +0.000 C 
ATOM      7  O   UNL     1       5.680   6.899  15.541  0.00  0.00    +0.000 OA
BRANCH   6   8
ATOM      8  C   UNL     1       7.197   6.800  17.370  0.00  0.00    +0.000 C 
ATOM      9  O   UNL     1       8.008   6.040  17.869  0.00  0.00    +0.000 OA
ATOM     10  N   UNL     1       7.198   8.171  17.428  0.00  0.00    +0.000 N 
ATOM     11  H   UNL     1       6.625   8.716  16.792  0.00  0.00    +0.000 HD
BRANCH  10  12
ATOM     12  O   UNL     1       8.289   8.770  18.094  0.00  0.00    +0.000 OA
BRANCH  12  13
ATOM     13  C   UNL     1       8.473  10.109  17.630  0.00  0.00    +0.000 C 
BRANCH  13  14
ATOM     14  C   UNL     1       9.509  10.777  18.493  0.00  0.00    +0.000 A 
ATOM     15  C   UNL     1       9.349  10.827  19.886  0.00  0.00    +0.000 A 
ATOM     16  C   UNL     1      10.279  11.498  20.681  0.00  0.00    +0.000 A 
ATOM     17  C   UNL     1      11.382  12.117  20.094  0.00  0.00    +0.000 A 
ATOM     18  C   UNL     1      11.562  12.053  18.713  0.00  0.00    +0.000 A 
ATOM     19  C   UNL     1      10.633  11.385  17.916  0.00  0.00    +0.000 A 
ENDBRANCH  13  14
ENDBRANCH  12  13
ENDBRANCH  10  12
ENDBRANCH   6   8
ENDBRANCH   5   6
BRANCH   5  20
ATOM     20  C   UNL     1       5.022   4.142  15.717  0.00  0.00    +0.000 C 
BRANCH  20  21
ATOM     21  C   UNL     1       6.216   3.986  14.777  0.00  0.00    +0.000 C 
BRANCH  21  23
ATOM     22  C   UNL     1       7.008   4.071  12.439  0.00  0.00    +0.000 C 
ATOM     23  C   UNL     1       5.820   3.747  13.323  0.00  0.00    +0.000 C 
ENDBRANCH  21  23
ENDBRANCH  20  21
ENDBRANCH   5  20
ENDBRANCH   1   5
BRANCH   2  24
ATOM     24  C   UNL     1       2.905   5.629  19.808  0.00  0.00    +0.000 C 
BRANCH  24  25
ATOM     25  N   UNL     1       2.238   6.625  18.984  0.00  0.00    +0.000 N 
ATOM     26  C   UNL     1       1.831   7.814  19.510  0.00  0.00    +0.000 C 
ATOM     27  O   UNL     1       1.906   8.105  20.685  0.00  0.00    +0.000 OA
ATOM     28  H   UNL     1       2.312   6.566  17.973  0.00  0.00    +0.000 HD
BRANCH  26  29
ATOM     29  O   UNL     1       1.340   8.614  18.529  0.00  0.00    +0.000 OA
BRANCH  29  30
ATOM     30  C   UNL     1       2.195   9.703  18.147  0.00  0.00    +0.000 C 
BRANCH  30  31
ATOM     31  C   UNL     1       1.477  10.986  18.468  0.00  0.00    +0.000 A 
ATOM     32  C   UNL     1       0.108  10.986  18.764  0.00  0.00    +0.000 A 
ATOM     33  C   UNL     1      -0.571  12.188  18.969  0.00  0.00    +0.000 A 
ATOM     34  C   UNL     1       0.115  13.398  18.891  0.00  0.00    +0.000 A 
ATOM     35  C   UNL     1       1.482  13.403  18.638  0.00  0.00    +0.000 A 
ATOM     36  C   UNL     1       2.161  12.206  18.410  0.00  0.00    +0.000 A 
ENDBRANCH  30  31
ENDBRANCH  29  30
ENDBRANCH  26  29
ENDBRANCH  24  25
BRANCH  24  37
ATOM     37  C   UNL     1       2.098   4.316  19.928  0.00  0.00    +0.000 C 
ATOM     38  C   UNL     1       1.378   3.995  18.612  0.00  0.00    +0.000 C 
ATOM     39  C   UNL     1       2.994   3.127  20.297  0.00  0.00    +0.000 C 
ENDBRANCH  24  37
ENDBRANCH   2  24
TORSDOF 15
ENDMDL
MODEL 8
REMARK VINA RESULT:      -7.6      1.451      2.007
REMARK  Name = 
REMARK  18 active torsions:
REMARK  status: ('A' for Active; 'I' for Inactive)
REMARK    1  A    between atoms: C_1  and  C_2
REMARK    2  A    between atoms: C_2  and  C_3
REMARK    3  A    between atoms: C_3  and  C_4
REMARK    4  A    between atoms: C_4  and  C_5
REMARK    5  A    between atoms: C_5  and  N_6
REMARK    6  A    between atoms: C_5  and  C_24
REMARK    7  A    between atoms: C_7  and  C_9
REMARK    8  A    between atoms: C_9  and  N_10
REMARK    9  A    between atoms: C_9  and  C_21
REMARK   10  A    between atoms: C_11  and  O_13
REMARK   11  A    between atoms: O_13  and  C_14
REMARK   12  A    between atoms: C_14  and  C_15
REMARK   13  A    between atoms: C_21  and  C_22
REMARK   14  A    between atoms: C_21  and  C_23
REMARK   15  A    between atoms: C_24  and  C_26
REMARK   16  A    between atoms: N_28  and  O_29
REMARK   17  A    between atoms: O_29  and  C_30
REMARK   18  A    between atoms: C_30  and  C_31
REMARK                            x       y       z     vdW  Elec       q    Type
REMARK                         _______ _______ _______ _____ _____    ______ ____
ROOT
ATOM      1  N   UNL     1       4.191   5.140  17.907  0.00  0.00    +0.000 N 
ATOM      2  C   UNL     1       4.334   5.419  19.250  0.00  0.00    +0.000 C 
ATOM      3  O   UNL     1       5.421   5.510  19.806  0.00  0.00    +0.000 OA
ATOM      4  H   UNL     1       3.280   4.852  17.566  0.00  0.00    +0.000 HD
ENDROOT
BRANCH   1   5
ATOM      5  C   UNL     1       5.341   4.955  17.023  0.00  0.00    +0.000 C 
BRANCH   5   6
ATOM      6  C   UNL     1       5.728   6.297  16.411  0.00  0.00    +0.000 C 
ATOM      7  O   UNL     1       5.026   6.925  15.618  0.00  0.00    +0.000 OA
BRANCH   6   8
ATOM      8  C   UNL     1       7.100   6.863  16.781  0.00  0.00    +0.000 C 
ATOM      9  O   UNL     1       8.089   6.580  16.127  0.00  0.00    +0.000 OA
ATOM     10  N   UNL     1       7.032   7.705  17.862  0.00  0.00    +0.000 N 
ATOM     11  H   UNL     1       6.138   8.058  18.187  0.00  0.00    +0.000 HD
BRANCH  10  12
ATOM     12  O   UNL     1       8.230   8.358  18.225  0.00  0.00    +0.000 OA
BRANCH  12  13
ATOM     13  C   UNL     1       8.330   9.613  17.548  0.00  0.00    +0.000 C 
BRANCH  13  14
ATOM     14  C   UNL     1       9.077  10.575  18.432  0.00  0.00    +0.000 A 
ATOM     15  C   UNL     1       9.590  11.770  17.907  0.00  0.00    +0.000 A 
ATOM     16  C   UNL     1      10.334  12.635  18.712  0.00  0.00    +0.000 A 
ATOM     17  C   UNL     1      10.564  12.317  20.050  0.00  0.00    +0.000 A 
ATOM     18  C   UNL     1      10.038  11.144  20.588  0.00  0.00    +0.000 A 
ATOM     19  C   UNL     1       9.296  10.278  19.784  0.00  0.00    +0.000 A 
ENDBRANCH  13  14
ENDBRANCH  12  13
ENDBRANCH  10  12
ENDBRANCH   6   8
ENDBRANCH   5   6
BRANCH   5  20
ATOM     20  C   UNL     1       4.966   3.987  15.887  0.00  0.00    +0.000 C 
BRANCH  20  21
ATOM     21  C   UNL     1       6.064   3.939  14.826  0.00  0.00    +0.000 C 
BRANCH  21  23
ATOM     22  C   UNL     1       6.674   3.596  12.458  0.00  0.00    +0.000 C 
ATOM     23  C   UNL     1       5.530   3.924  13.397  0.00  0.00    +0.000 C 
ENDBRANCH  21  23
ENDBRANCH  20  21
ENDBRANCH   5  20
ENDBRANCH   1   5
BRANCH   2  24
ATOM     24  C   UNL     1       3.002   5.569  20.015  0.00  0.00    +0.000 C 
BRANCH  24  25
ATOM     25  N   UNL     1       2.319   6.708  19.422  0.00  0.00    +0.000 N 
ATOM     26  C   UNL     1       1.836   7.719  20.196  0.00  0.00    +0.000 C 
ATOM     27  O   UNL     1       1.854   7.722  21.409  0.00  0.00    +0.000 OA
ATOM     28  H   UNL     1       2.433   6.896  18.431  0.00  0.00    +0.000 HD
BRANCH  26  29
ATOM     29  O   UNL     1       1.343   8.712  19.413  0.00  0.00    +0.000 OA
BRANCH  29  30
ATOM     30  C   UNL     1       0.809   9.840  20.124  0.00  0.00    +0.000 C 
BRANCH  30  31
ATOM     31  C   UNL     1      -0.387  10.341  19.359  0.00  0.00    +0.000 A 
ATOM     32  C   UNL     1      -0.739   9.774  18.128  0.00  0.00    +0.000 A 
ATOM     33  C   UNL     1      -1.792  10.304  17.381  0.00  0.00    +0.000 A 
ATOM     34  C   UNL     1      -2.507  11.398  17.863  0.00  0.00    +0.000 A 
ATOM     35  C   UNL     1      -2.188  11.941  19.103  0.00  0.00    +0.000 A 
ATOM     36  C   UNL     1      -1.123  11.429  19.843  0.00  0.00    +0.000 A 
ENDBRANCH  30  31
ENDBRANCH  29  30
ENDBRANCH  26  29
ENDBRANCH  24  25
BRANCH  24  37
ATOM     37  C   UNL     1       2.177   4.265  19.927  0.00  0.00    +0.000 C 
ATOM     38  C   UNL     1       2.756   3.188  20.853  0.00  0.00    +0.000 C 
ATOM     39  C   UNL     1       0.707   4.493  20.303  0.00  0.00    +0.000 C 
ENDBRANCH  24  37
ENDBRANCH   2  24
TORSDOF 15
ENDMDL
MODEL 9
REMARK VINA RESULT:      -7.3      1.357      2.022
REMARK  Name = 
REMARK  18 active torsions:
REMARK  status: ('A' for Active; 'I' for Inactive)
REMARK    1  A    between atoms: C_1  and  C_2
REMARK    2  A    between atoms: C_2  and  C_3
REMARK    3  A    between atoms: C_3  and  C_4
REMARK    4  A    between atoms: C_4  and  C_5
REMARK    5  A    between atoms: C_5  and  N_6
REMARK    6  A    between atoms: C_5  and  C_24
REMARK    7  A    between atoms: C_7  and  C_9
REMARK    8  A    between atoms: C_9  and  N_10
REMARK    9  A    between atoms: C_9  and  C_21
REMARK   10  A    between atoms: C_11  and  O_13
REMARK   11  A    between atoms: O_13  and  C_14
REMARK   12  A    between atoms: C_14  and  C_15
REMARK   13  A    between atoms: C_21  and  C_22
REMARK   14  A    between atoms: C_21  and  C_23
REMARK   15  A    between atoms: C_24  and  C_26
REMARK   16  A    between atoms: N_28  and  O_29
REMARK   17  A    between atoms: O_29  and  C_30
REMARK   18  A    between atoms: C_30  and  C_31
REMARK                            x       y       z     vdW  Elec       q    Type
REMARK                         _______ _______ _______ _____ _____    ______ ____
ROOT
ATOM      1  N   UNL     1       4.743   4.692  18.417  0.00  0.00    +0.000 N 
ATOM      2  C   UNL     1       4.418   3.775  19.395  0.00  0.00    +0.000 C 
ATOM      3  O   UNL     1       5.178   2.889  19.765  0.00  0.00    +0.000 OA
ATOM      4  H   UNL     1       3.998   5.241  18.000  0.00  0.00    +0.000 HD
ENDROOT
BRANCH   1   5
ATOM      5  C   UNL     1       6.047   4.696  17.755  0.00  0.00    +0.000 C 
BRANCH   5   6
ATOM      6  C   UNL     1       6.983   5.650  18.490  0.00  0.00    +0.000 C 
ATOM      7  O   UNL     1       7.212   5.601  19.698  0.00  0.00    +0.000 OA
BRANCH   6   8
ATOM      8  C   UNL     1       7.633   6.762  17.666  0.00  0.00    +0.000 C 
ATOM      9  O   UNL     1       7.643   6.713  16.448  0.00  0.00    +0.000 OA
ATOM     10  N   UNL     1       8.129   7.765  18.460  0.00  0.00    +0.000 N 
ATOM     11  H   UNL     1       7.866   7.828  19.438  0.00  0.00    +0.000 HD
BRANCH  10  12
ATOM     12  O   UNL     1       8.664   8.888  17.792  0.00  0.00    +0.000 OA
BRANCH  12  13
ATOM     13  C   UNL     1       8.259  10.090  18.451  0.00  0.00    +0.000 C 
BRANCH  13  14
ATOM     14  C   UNL     1       9.328  11.129  18.251  0.00  0.00    +0.000 A 
ATOM     15  C   UNL     1      10.645  10.884  18.668  0.00  0.00    +0.000 A 
ATOM     16  C   UNL     1      11.624  11.871  18.537  0.00  0.00    +0.000 A 
ATOM     17  C   UNL     1      11.299  13.106  17.979  0.00  0.00    +0.000 A 
ATOM     18  C   UNL     1      10.000  13.351  17.540  0.00  0.00    +0.000 A 
ATOM     19  C   UNL     1       9.019  12.368  17.672  0.00  0.00    +0.000 A 
ENDBRANCH  13  14
ENDBRANCH  12  13
ENDBRANCH  10  12
ENDBRANCH   6   8
ENDBRANCH   5   6
BRANCH   5  20
ATOM     20  C   UNL     1       5.886   5.185  16.305  0.00  0.00    +0.000 C 
BRANCH  20  21
ATOM     21  C   UNL     1       5.875   4.008  15.331  0.00  0.00    +0.000 C 
BRANCH  21  23
ATOM     22  C   UNL     1       5.848   3.563  12.902  0.00  0.00    +0.000 C 
ATOM     23  C   UNL     1       6.572   4.306  14.007  0.00  0.00    +0.000 C 
ENDBRANCH  21  23
ENDBRANCH  20  21
ENDBRANCH   5  20
ENDBRANCH   1   5
BRANCH   2  24
ATOM     24  C   UNL     1       2.992   3.929  19.964  0.00  0.00    +0.000 C 
BRANCH  24  25
ATOM     25  N   UNL     1       2.841   5.334  20.309  0.00  0.00    +0.000 N 
ATOM     26  C   UNL     1       2.432   6.245  19.383  0.00  0.00    +0.000 C 
ATOM     27  O   UNL     1       2.246   5.994  18.211  0.00  0.00    +0.000 OA
ATOM     28  H   UNL     1       2.772   5.602  21.287  0.00  0.00    +0.000 HD
BRANCH  26  29
ATOM     29  O   UNL     1       2.261   7.458  19.967  0.00  0.00    +0.000 OA
BRANCH  29  30
ATOM     30  C   UNL     1       1.429   7.458  21.138  0.00  0.00    +0.000 C 
BRANCH  30  31
ATOM     31  C   UNL     1       0.815   8.827  21.266  0.00  0.00    +0.000 A 
ATOM     32  C   UNL     1       0.204   9.230  22.460  0.00  0.00    +0.000 A 
ATOM     33  C   UNL     1      -0.444  10.464  22.540  0.00  0.00    +0.000 A 
ATOM     34  C   UNL     1      -0.478  11.308  21.433  0.00  0.00    +0.000 A 
ATOM     35  C   UNL     1       0.161  10.930  20.256  0.00  0.00    +0.000 A 
ATOM     36  C   UNL     1       0.791   9.689  20.163  0.00  0.00    +0.000 A 
ENDBRANCH  30  31
ENDBRANCH  29  30
ENDBRANCH  26  29
ENDBRANCH  24  25
BRANCH  24  37
ATOM     37  C   UNL     1       1.943   3.451  18.934  0.00  0.00    +0.000 C 
ATOM     38  C   UNL     1       2.470   2.254  18.134  0.00  0.00    +0.000 C 
ATOM     39  C   UNL     1       0.625   3.047  19.607  0.00  0.00    +0.000 C 
ENDBRANCH  24  37
ENDBRANCH   2  24
TORSDOF 15
ENDMDL
