MODEL 1
REMARK VINA RESULT:      -9.6      0.000      0.000
REMARK  Name = 
REMARK  7 active torsions:
REMARK  status: ('A' for Active; 'I' for Inactive)
REMARK    1  A    between atoms: C_2  and  C_3
REMARK    2  A    between atoms: C_6  and  N_7
REMARK    3  A    between atoms: C_10  and  N_11
REMARK    4  A    between atoms: N_11  and  S_12
REMARK    5  A    between atoms: S_12  and  C_15
REMARK    6  A    between atoms: C_17  and  C_18
REMARK    7  A    between atoms: C_23  and  C_24
REMARK                            x       y       z     vdW  Elec       q    Type
REMARK                         _______ _______ _______ _____ _____    ______ ____
ROOT
ATOM      1  N   UNL     1       2.709   4.178  19.531  0.00  0.00    +0.000 N 
ATOM      2  H   UNL     1       2.948   3.735  20.416  0.00  0.00    +0.000 HD
ENDROOT
BRANCH   1   6
ATOM      3  N   UNL     1       1.363   8.271  21.735  0.00  0.00    +0.000 N 
ATOM      4  C   UNL     1       1.731   7.592  20.552  0.00  0.00    +0.000 A 
ATOM      5  C   UNL     1       2.046   6.238  20.631  0.00  0.00    +0.000 A 
ATOM      6  C   UNL     1       2.399   5.558  19.469  0.00  0.00    +0.000 A 
ATOM      7  C   UNL     1       2.478   6.228  18.260  0.00  0.00    +0.000 A 
ATOM      8  C   UNL     1       2.155   7.565  18.262  0.00  0.00    +0.000 A 
ATOM      9  N   UNL     1       1.792   8.240  19.370  0.00  0.00    +0.000 NA
ATOM     10  H   UNL     1       1.251   7.646  22.523  0.00  0.00    +0.000 HD
BRANCH   3  14
ATOM     11  C   UNL     1      -0.852  11.845  22.257  0.00  0.00    +0.000 A 
ATOM     12  C   UNL     1      -1.066  10.739  23.079  0.00  0.00    +0.000 A 
ATOM     13  C   UNL     1      -0.304   9.579  22.906  0.00  0.00    +0.000 A 
ATOM     14  C   UNL     1       0.668   9.489  21.896  0.00  0.00    +0.000 A 
ATOM     15  C   UNL     1       0.898  10.628  21.114  0.00  0.00    +0.000 A 
ATOM     16  C   UNL     1       0.144  11.792  21.279  0.00  0.00    +0.000 A 
BRANCH  11  18
ATOM     17  N   UNL     1      -2.283  13.985  22.534  0.00  0.00    +0.000 NA
ATOM     18  C   UNL     1      -1.642  13.029  22.412  0.00  0.00    +0.000 C 
ENDBRANCH  11  18
ENDBRANCH   3  14
ENDBRANCH   1   6
BRANCH   1  19
ATOM     19  S   UNL     1       2.900   3.269  18.137  0.00  0.00    +0.000 S 
ATOM     20  O   UNL     1       3.104   1.903  18.568  0.00  0.00    +0.000 OA
ATOM     21  O   UNL     1       1.862   3.619  17.194  0.00  0.00    +0.000 OA
BRANCH  19  22
ATOM     22  C   UNL     1       4.455   3.856  17.491  0.00  0.00    +0.000 A 
ATOM     23  C   UNL     1       5.419   4.365  18.369  0.00  0.00    +0.000 A 
ATOM     24  C   UNL     1       6.631   4.865  17.869  0.00  0.00    +0.000 A 
ATOM     25  C   UNL     1       6.868   4.814  16.483  0.00  0.00    +0.000 A 
ATOM     26  C   UNL     1       5.910   4.289  15.595  0.00  0.00    +0.000 A 
ATOM     27  C   UNL     1       4.702   3.799  16.114  0.00  0.00    +0.000 A 
BRANCH  24  28
ATOM     28  C   UNL     1       7.665   5.481  18.787  0.00  0.00    +0.000 C 
ATOM     29  F   UNL     1       8.114   6.692  18.361  0.00  0.00    +0.000 F 
ATOM     30  F   UNL     1       7.200   5.669  20.050  0.00  0.00    +0.000 F 
ATOM     31  F   UNL     1       8.770   4.694  18.903  0.00  0.00    +0.000 F 
ENDBRANCH  24  28
BRANCH  26  32
ATOM     32  C   UNL     1       6.151   4.276  14.102  0.00  0.00    +0.000 C 
ATOM     33  F   UNL     1       6.616   3.083  13.641  0.00  0.00    +0.000 F 
ATOM     34  F   UNL     1       5.027   4.546  13.387  0.00  0.00    +0.000 F 
ATOM     35  F   UNL     1       7.074   5.205  13.728  0.00  0.00    +0.000 F 
ENDBRANCH  26  32
ENDBRANCH  19  22
ENDBRANCH   1  19
TORSDOF 7
ENDMDL
MODEL 2
REMARK VINA RESULT:      -9.4      0.141      1.071
REMARK  Name = 
REMARK  7 active torsions:
REMARK  status: ('A' for Active; 'I' for Inactive)
REMARK    1  A    between atoms: C_2  and  C_3
REMARK    2  A    between atoms: C_6  and  N_7
REMARK    3  A    between atoms: C_10  and  N_11
REMARK    4  A    between atoms: N_11  and  S_12
REMARK    5  A    between atoms: S_12  and  C_15
REMARK    6  A    between atoms: C_17  and  C_18
REMARK    7  A    between atoms: C_23  and  C_24
REMARK                            x       y       z     vdW  Elec       q    Type
REMARK                         _______ _______ _______ _____ _____    ______ ____
ROOT
ATOM      1  N   UNL     1       2.723   4.135  19.514  0.00  0.00    +0.000 N 
ATOM      2  H   UNL     1       2.962   3.687  20.397  0.00  0.00    +0.000 HD
ENDROOT
BRANCH   1   6
ATOM      3  N   UNL     1       1.321   8.198  21.740  0.00  0.00    +0.000 N 
ATOM      4  C   UNL     1       1.711   7.534  20.556  0.00  0.00    +0.000 A 
ATOM      5  C   UNL     1       2.032   6.180  20.626  0.00  0.00    +0.000 A 
ATOM      6  C   UNL     1       2.407   5.514  19.462  0.00  0.00    +0.000 A 
ATOM      7  C   UNL     1       2.502   6.198  18.262  0.00  0.00    +0.000 A 
ATOM      8  C   UNL     1       2.172   7.533  18.273  0.00  0.00    +0.000 A 
ATOM      9  N   UNL     1       1.787   8.195  19.382  0.00  0.00    +0.000 NA
ATOM     10  H   UNL     1       1.199   7.564  22.519  0.00  0.00    +0.000 HD
BRANCH   3  14
ATOM     11  C   UNL     1      -0.659  11.916  22.193  0.00  0.00    +0.000 A 
ATOM     12  C   UNL     1       0.320  11.737  21.218  0.00  0.00    +0.000 A 
ATOM     13  C   UNL     1       0.942  10.492  21.068  0.00  0.00    +0.000 A 
ATOM     14  C   UNL     1       0.617   9.410  21.903  0.00  0.00    +0.000 A 
ATOM     15  C   UNL     1      -0.402   9.601  22.844  0.00  0.00    +0.000 A 
ATOM     16  C   UNL     1      -1.030  10.839  23.001  0.00  0.00    +0.000 A 
BRANCH  11  18
ATOM     17  N   UNL     1      -1.789  14.224  22.515  0.00  0.00    +0.000 NA
ATOM     18  C   UNL     1      -1.284  13.192  22.369  0.00  0.00    +0.000 C 
ENDBRANCH  11  18
ENDBRANCH   3  14
ENDBRANCH   1   6
BRANCH   1  19
ATOM     19  S   UNL     1       2.920   3.237  18.114  0.00  0.00    +0.000 S 
ATOM     20  O   UNL     1       3.131   1.869  18.536  0.00  0.00    +0.000 OA
ATOM     21  O   UNL     1       1.882   3.589  17.173  0.00  0.00    +0.000 OA
BRANCH  19  22
ATOM     22  C   UNL     1       4.473   3.837  17.474  0.00  0.00    +0.000 A 
ATOM     23  C   UNL     1       5.436   4.337  18.358  0.00  0.00    +0.000 A 
ATOM     24  C   UNL     1       6.647   4.846  17.863  0.00  0.00    +0.000 A 
ATOM     25  C   UNL     1       6.882   4.815  16.476  0.00  0.00    +0.000 A 
ATOM     26  C   UNL     1       5.925   4.300  15.582  0.00  0.00    +0.000 A 
ATOM     27  C   UNL     1       4.718   3.800  16.096  0.00  0.00    +0.000 A 
BRANCH  24  28
ATOM     28  C   UNL     1       7.680   5.453  18.789  0.00  0.00    +0.000 C 
ATOM     29  F   UNL     1       7.217   5.667  20.050  0.00  0.00    +0.000 F 
ATOM     30  F   UNL     1       8.790   4.681  18.915  0.00  0.00    +0.000 F 
ATOM     31  F   UNL     1       8.110   6.665  18.339  0.00  0.00    +0.000 F 
ENDBRANCH  24  28
BRANCH  26  32
ATOM     32  C   UNL     1       6.164   4.308  14.089  0.00  0.00    +0.000 C 
ATOM     33  F   UNL     1       6.591   3.109  13.605  0.00  0.00    +0.000 F 
ATOM     34  F   UNL     1       5.048   4.626  13.381  0.00  0.00    +0.000 F 
ATOM     35  F   UNL     1       7.114   5.214  13.732  0.00  0.00    +0.000 F 
ENDBRANCH  26  32
ENDBRANCH  19  22
ENDBRANCH   1  19
TORSDOF 7
ENDMDL
MODEL 3
REMARK VINA RESULT:      -9.3      0.145      3.181
REMARK  Name = 
REMARK  7 active torsions:
REMARK  status: ('A' for Active; 'I' for Inactive)
REMARK    1  A    between atoms: C_2  and  C_3
REMARK    2  A    between atoms: C_6  and  N_7
REMARK    3  A    between atoms: C_10  and  N_11
REMARK    4  A    between atoms: N_11  and  S_12
REMARK    5  A    between atoms: S_12  and  C_15
REMARK    6  A    between atoms: C_17  and  C_18
REMARK    7  A    between atoms: C_23  and  C_24
REMARK                            x       y       z     vdW  Elec       q    Type
REMARK                         _______ _______ _______ _____ _____    ______ ____
ROOT
ATOM      1  N   UNL     1       2.750   4.161  19.510  0.00  0.00    +0.000 N 
ATOM      2  H   UNL     1       2.994   3.716  20.393  0.00  0.00    +0.000 HD
ENDROOT
BRANCH   1   6
ATOM      3  N   UNL     1       1.347   8.217  21.747  0.00  0.00    +0.000 N 
ATOM      4  C   UNL     1       1.717   7.551  20.557  0.00  0.00    +0.000 A 
ATOM      5  C   UNL     1       2.059   6.203  20.626  0.00  0.00    +0.000 A 
ATOM      6  C   UNL     1       2.414   5.535  19.457  0.00  0.00    +0.000 A 
ATOM      7  C   UNL     1       2.469   6.212  18.252  0.00  0.00    +0.000 A 
ATOM      8  C   UNL     1       2.121   7.543  18.263  0.00  0.00    +0.000 A 
ATOM      9  N   UNL     1       1.755   8.206  19.378  0.00  0.00    +0.000 NA
ATOM     10  H   UNL     1       1.255   7.586  22.532  0.00  0.00    +0.000 HD
BRANCH   3  14
ATOM     11  C   UNL     1      -0.670  11.910  22.239  0.00  0.00    +0.000 A 
ATOM     12  C   UNL     1       0.346  11.766  21.296  0.00  0.00    +0.000 A 
ATOM     13  C   UNL     1       0.980  10.529  21.131  0.00  0.00    +0.000 A 
ATOM     14  C   UNL     1       0.631   9.420  21.920  0.00  0.00    +0.000 A 
ATOM     15  C   UNL     1      -0.424   9.576  22.827  0.00  0.00    +0.000 A 
ATOM     16  C   UNL     1      -1.065  10.806  22.999  0.00  0.00    +0.000 A 
BRANCH  11  18
ATOM     17  N   UNL     1      -1.827  14.201  22.581  0.00  0.00    +0.000 NA
ATOM     18  C   UNL     1      -1.309  13.176  22.430  0.00  0.00    +0.000 C 
ENDBRANCH  11  18
ENDBRANCH   3  14
ENDBRANCH   1   6
BRANCH   1  19
ATOM     19  S   UNL     1       2.965   3.267  18.110  0.00  0.00    +0.000 S 
ATOM     20  O   UNL     1       3.233   1.909  18.532  0.00  0.00    +0.000 OA
ATOM     21  O   UNL     1       1.903   3.576  17.180  0.00  0.00    +0.000 OA
BRANCH  19  22
ATOM     22  C   UNL     1       4.486   3.923  17.449  0.00  0.00    +0.000 A 
ATOM     23  C   UNL     1       4.706   3.899  16.067  0.00  0.00    +0.000 A 
ATOM     24  C   UNL     1       5.914   4.379  15.540  0.00  0.00    +0.000 A 
ATOM     25  C   UNL     1       6.878   4.908  16.417  0.00  0.00    +0.000 A 
ATOM     26  C   UNL     1       6.659   4.949  17.807  0.00  0.00    +0.000 A 
ATOM     27  C   UNL     1       5.445   4.460  18.316  0.00  0.00    +0.000 A 
BRANCH  24  28
ATOM     28  C   UNL     1       6.206   4.306  14.056  0.00  0.00    +0.000 C 
ATOM     29  F   UNL     1       6.646   3.085  13.650  0.00  0.00    +0.000 F 
ATOM     30  F   UNL     1       5.120   4.594  13.292  0.00  0.00    +0.000 F 
ATOM     31  F   UNL     1       7.175   5.191  13.688  0.00  0.00    +0.000 F 
ENDBRANCH  24  28
BRANCH  26  32
ATOM     32  C   UNL     1       7.715   5.478  18.751  0.00  0.00    +0.000 C 
ATOM     33  F   UNL     1       7.266   5.641  20.026  0.00  0.00    +0.000 F 
ATOM     34  F   UNL     1       8.801   4.665  18.833  0.00  0.00    +0.000 F 
ATOM     35  F   UNL     1       8.180   6.697  18.361  0.00  0.00    +0.000 F 
ENDBRANCH  26  32
ENDBRANCH  19  22
ENDBRANCH   1  19
TORSDOF 7
ENDMDL
MODEL 4
REMARK VINA RESULT:      -9.3      1.057      1.621
REMARK  Name = 
REMARK  7 active torsions:
REMARK  status: ('A' for Active; 'I' for Inactive)
REMARK    1  A    between atoms: C_2  and  C_3
REMARK    2  A    between atoms: C_6  and  N_7
REMARK    3  A    between atoms: C_10  and  N_11
REMARK    4  A    between atoms: N_11  and  S_12
REMARK    5  A    between atoms: S_12  and  C_15
REMARK    6  A    between atoms: C_17  and  C_18
REMARK    7  A    between atoms: C_23  and  C_24
REMARK                            x       y       z     vdW  Elec       q    Type
REMARK                         _______ _______ _______ _____ _____    ______ ____
ROOT
ATOM      1  N   UNL     1       2.646   4.259  18.635  0.00  0.00    +0.000 N 
ATOM      2  H   UNL     1       1.872   3.625  18.443  0.00  0.00    +0.000 HD
ENDROOT
BRANCH   1   6
ATOM      3  N   UNL     1       1.349   7.975  21.452  0.00  0.00    +0.000 N 
ATOM      4  C   UNL     1       1.781   7.496  20.195  0.00  0.00    +0.000 A 
ATOM      5  C   UNL     1       2.009   6.130  20.045  0.00  0.00    +0.000 A 
ATOM      6  C   UNL     1       2.423   5.646  18.807  0.00  0.00    +0.000 A 
ATOM      7  C   UNL     1       2.647   6.515  17.754  0.00  0.00    +0.000 A 
ATOM      8  C   UNL     1       2.403   7.851  17.979  0.00  0.00    +0.000 A 
ATOM      9  N   UNL     1       1.983   8.340  19.162  0.00  0.00    +0.000 NA
ATOM     10  H   UNL     1       1.132   7.229  22.099  0.00  0.00    +0.000 HD
BRANCH   3  14
ATOM     11  C   UNL     1      -0.686  11.545  22.483  0.00  0.00    +0.000 A 
ATOM     12  C   UNL     1      -0.892  10.367  23.199  0.00  0.00    +0.000 A 
ATOM     13  C   UNL     1      -0.189   9.207  22.858  0.00  0.00    +0.000 A 
ATOM     14  C   UNL     1       0.714   9.191  21.782  0.00  0.00    +0.000 A 
ATOM     15  C   UNL     1       0.940  10.398  21.108  0.00  0.00    +0.000 A 
ATOM     16  C   UNL     1       0.244  11.563  21.441  0.00  0.00    +0.000 A 
BRANCH  11  18
ATOM     17  N   UNL     1      -2.010  13.691  23.071  0.00  0.00    +0.000 NA
ATOM     18  C   UNL     1      -1.418  12.731  22.810  0.00  0.00    +0.000 C 
ENDBRANCH  11  18
ENDBRANCH   3  14
ENDBRANCH   1   6
BRANCH   1  19
ATOM     19  S   UNL     1       4.144   3.576  18.945  0.00  0.00    +0.000 S 
ATOM     20  O   UNL     1       4.531   4.028  20.264  0.00  0.00    +0.000 OA
ATOM     21  O   UNL     1       4.106   2.172  18.606  0.00  0.00    +0.000 OA
BRANCH  19  22
ATOM     22  C   UNL     1       5.205   4.400  17.773  0.00  0.00    +0.000 A 
ATOM     23  C   UNL     1       5.988   5.482  18.192  0.00  0.00    +0.000 A 
ATOM     24  C   UNL     1       6.799   6.161  17.270  0.00  0.00    +0.000 A 
ATOM     25  C   UNL     1       6.832   5.717  15.936  0.00  0.00    +0.000 A 
ATOM     26  C   UNL     1       6.059   4.620  15.510  0.00  0.00    +0.000 A 
ATOM     27  C   UNL     1       5.251   3.957  16.446  0.00  0.00    +0.000 A 
BRANCH  24  28
ATOM     28  C   UNL     1       7.606   7.375  17.680  0.00  0.00    +0.000 C 
ATOM     29  F   UNL     1       8.376   7.165  18.781  0.00  0.00    +0.000 F 
ATOM     30  F   UNL     1       8.446   7.802  16.701  0.00  0.00    +0.000 F 
ATOM     31  F   UNL     1       6.805   8.435  17.982  0.00  0.00    +0.000 F 
ENDBRANCH  24  28
BRANCH  26  32
ATOM     32  C   UNL     1       6.065   4.173  14.065  0.00  0.00    +0.000 C 
ATOM     33  F   UNL     1       6.947   4.862  13.290  0.00  0.00    +0.000 F 
ATOM     34  F   UNL     1       6.383   2.859  13.924  0.00  0.00    +0.000 F 
ATOM     35  F   UNL     1       4.847   4.337  13.478  0.00  0.00    +0.000 F 
ENDBRANCH  26  32
ENDBRANCH  19  22
ENDBRANCH   1  19
TORSDOF 7
ENDMDL
MODEL 5
REMARK VINA RESULT:      -9.3      0.452      3.101
REMARK  Name = 
REMARK  7 active torsions:
REMARK  status: ('A' for Active; 'I' for Inactive)
REMARK    1  A    between atoms: C_2  and  C_3
REMARK    2  A    between atoms: C_6  and  N_7
REMARK    3  A    between atoms: C_10  and  N_11
REMARK    4  A    between atoms: N_11  and  S_12
REMARK    5  A    between atoms: S_12  and  C_15
REMARK    6  A    between atoms: C_17  and  C_18
REMARK    7  A    between atoms: C_23  and  C_24
REMARK                            x       y       z     vdW  Elec       q    Type
REMARK                         _______ _______ _______ _____ _____    ______ ____
ROOT
ATOM      1  N   UNL     1       2.712   4.305  19.654  0.00  0.00    +0.000 N 
ATOM      2  H   UNL     1       2.954   3.900  20.556  0.00  0.00    +0.000 HD
ENDROOT
BRANCH   1   6
ATOM      3  N   UNL     1       0.896   8.344  21.607  0.00  0.00    +0.000 N 
ATOM      4  C   UNL     1       1.472   7.682  20.500  0.00  0.00    +0.000 A 
ATOM      5  C   UNL     1       1.814   6.339  20.631  0.00  0.00    +0.000 A 
ATOM      6  C   UNL     1       2.371   5.674  19.541  0.00  0.00    +0.000 A 
ATOM      7  C   UNL     1       2.621   6.351  18.360  0.00  0.00    +0.000 A 
ATOM      8  C   UNL     1       2.258   7.677  18.307  0.00  0.00    +0.000 A 
ATOM      9  N   UNL     1       1.700   8.336  19.342  0.00  0.00    +0.000 NA
ATOM     10  H   UNL     1       0.680   7.713  22.368  0.00  0.00    +0.000 HD
BRANCH   3  14
ATOM     11  C   UNL     1      -1.444  11.867  21.862  0.00  0.00    +0.000 A 
ATOM     12  C   UNL     1      -1.111  11.140  23.004  0.00  0.00    +0.000 A 
ATOM     13  C   UNL     1      -0.314   9.995  22.899  0.00  0.00    +0.000 A 
ATOM     14  C   UNL     1       0.145   9.538  21.653  0.00  0.00    +0.000 A 
ATOM     15  C   UNL     1      -0.162  10.310  20.526  0.00  0.00    +0.000 A 
ATOM     16  C   UNL     1      -0.956  11.456  20.619  0.00  0.00    +0.000 A 
BRANCH  11  18
ATOM     17  N   UNL     1      -2.949  13.967  22.030  0.00  0.00    +0.000 NA
ATOM     18  C   UNL     1      -2.277  13.027  21.956  0.00  0.00    +0.000 C 
ENDBRANCH  11  18
ENDBRANCH   3  14
ENDBRANCH   1   6
BRANCH   1  19
ATOM     19  S   UNL     1       2.934   3.352  18.294  0.00  0.00    +0.000 S 
ATOM     20  O   UNL     1       3.202   2.014  18.776  0.00  0.00    +0.000 OA
ATOM     21  O   UNL     1       1.875   3.619  17.348  0.00  0.00    +0.000 OA
BRANCH  19  22
ATOM     22  C   UNL     1       4.457   3.982  17.613  0.00  0.00    +0.000 A 
ATOM     23  C   UNL     1       4.661   3.945  16.229  0.00  0.00    +0.000 A 
ATOM     24  C   UNL     1       5.871   4.403  15.685  0.00  0.00    +0.000 A 
ATOM     25  C   UNL     1       6.852   4.925  16.549  0.00  0.00    +0.000 A 
ATOM     26  C   UNL     1       6.648   4.979  17.941  0.00  0.00    +0.000 A 
ATOM     27  C   UNL     1       5.433   4.511  18.466  0.00  0.00    +0.000 A 
BRANCH  24  28
ATOM     28  C   UNL     1       6.146   4.316  14.199  0.00  0.00    +0.000 C 
ATOM     29  F   UNL     1       7.073   5.213  13.767  0.00  0.00    +0.000 F 
ATOM     30  F   UNL     1       6.593   3.091  13.819  0.00  0.00    +0.000 F 
ATOM     31  F   UNL     1       5.025   4.556  13.463  0.00  0.00    +0.000 F 
ENDBRANCH  24  28
BRANCH  26  32
ATOM     32  C   UNL     1       7.721   5.500  18.869  0.00  0.00    +0.000 C 
ATOM     33  F   UNL     1       8.214   6.714  18.497  0.00  0.00    +0.000 F 
ATOM     34  F   UNL     1       7.284   5.645  20.148  0.00  0.00    +0.000 F 
ATOM     35  F   UNL     1       8.794   4.664  18.925  0.00  0.00    +0.000 F 
ENDBRANCH  26  32
ENDBRANCH  19  22
ENDBRANCH   1  19
TORSDOF 7
ENDMDL
MODEL 6
REMARK VINA RESULT:      -9.2      5.106      7.395
REMARK  Name = 
REMARK  7 active torsions:
REMARK  status: ('A' for Active; 'I' for Inactive)
REMARK    1  A    between atoms: C_2  and  C_3
REMARK    2  A    between atoms: C_6  and  N_7
REMARK    3  A    between atoms: C_10  and  N_11
REMARK    4  A    between atoms: N_11  and  S_12
REMARK    5  A    between atoms: S_12  and  C_15
REMARK    6  A    between atoms: C_17  and  C_18
REMARK    7  A    between atoms: C_23  and  C_24
REMARK                            x       y       z     vdW  Elec       q    Type
REMARK                         _______ _______ _______ _____ _____    ______ ____
ROOT
ATOM      1  N   UNL     1       7.212   4.493  16.107  0.00  0.00    +0.000 N 
ATOM      2  H   UNL     1       7.900   3.811  15.790  0.00  0.00    +0.000 HD
ENDROOT
BRANCH   1   6
ATOM      3  N   UNL     1       7.921   9.069  17.514  0.00  0.00    +0.000 N 
ATOM      4  C   UNL     1       7.884   7.692  17.830  0.00  0.00    +0.000 A 
ATOM      5  C   UNL     1       7.557   6.787  16.824  0.00  0.00    +0.000 A 
ATOM      6  C   UNL     1       7.529   5.427  17.122  0.00  0.00    +0.000 A 
ATOM      7  C   UNL     1       7.781   4.986  18.410  0.00  0.00    +0.000 A 
ATOM      8  C   UNL     1       8.094   5.940  19.350  0.00  0.00    +0.000 A 
ATOM      9  N   UNL     1       8.146   7.260  19.080  0.00  0.00    +0.000 NA
ATOM     10  H   UNL     1       7.815   9.244  16.523  0.00  0.00    +0.000 HD
BRANCH   3  14
ATOM     11  C   UNL     1       9.838  12.331  19.422  0.00  0.00    +0.000 A 
ATOM     12  C   UNL     1       9.088  12.515  18.261  0.00  0.00    +0.000 A 
ATOM     13  C   UNL     1       8.441  11.428  17.663  0.00  0.00    +0.000 A 
ATOM     14  C   UNL     1       8.549  10.133  18.196  0.00  0.00    +0.000 A 
ATOM     15  C   UNL     1       9.268   9.980  19.387  0.00  0.00    +0.000 A 
ATOM     16  C   UNL     1       9.917  11.059  19.993  0.00  0.00    +0.000 A 
BRANCH  11  18
ATOM     17  N   UNL     1      11.077  14.321  20.520  0.00  0.00    +0.000 NA
ATOM     18  C   UNL     1      10.522  13.432  20.028  0.00  0.00    +0.000 C 
ENDBRANCH  11  18
ENDBRANCH   3  14
ENDBRANCH   1   6
BRANCH   1  19
ATOM     19  S   UNL     1       5.780   4.602  15.244  0.00  0.00    +0.000 S 
ATOM     20  O   UNL     1       5.813   5.879  14.564  0.00  0.00    +0.000 OA
ATOM     21  O   UNL     1       5.561   3.366  14.527  0.00  0.00    +0.000 OA
BRANCH  19  22
ATOM     22  C   UNL     1       4.551   4.721  16.531  0.00  0.00    +0.000 A 
ATOM     23  C   UNL     1       4.060   3.554  17.127  0.00  0.00    +0.000 A 
ATOM     24  C   UNL     1       3.066   3.633  18.113  0.00  0.00    +0.000 A 
ATOM     25  C   UNL     1       2.599   4.900  18.509  0.00  0.00    +0.000 A 
ATOM     26  C   UNL     1       3.098   6.080  17.925  0.00  0.00    +0.000 A 
ATOM     27  C   UNL     1       4.089   5.979  16.936  0.00  0.00    +0.000 A 
BRANCH  24  28
ATOM     28  C   UNL     1       2.470   2.385  18.729  0.00  0.00    +0.000 C 
ATOM     29  F   UNL     1       3.141   1.248  18.404  0.00  0.00    +0.000 F 
ATOM     30  F   UNL     1       2.435   2.434  20.086  0.00  0.00    +0.000 F 
ATOM     31  F   UNL     1       1.184   2.187  18.323  0.00  0.00    +0.000 F 
ENDBRANCH  24  28
BRANCH  26  32
ATOM     32  C   UNL     1       2.563   7.437  18.323  0.00  0.00    +0.000 C 
ATOM     33  F   UNL     1       1.423   7.782  17.663  0.00  0.00    +0.000 F 
ATOM     34  F   UNL     1       2.273   7.519  19.648  0.00  0.00    +0.000 F 
ATOM     35  F   UNL     1       3.457   8.431  18.065  0.00  0.00    +0.000 F 
ENDBRANCH  26  32
ENDBRANCH  19  22
ENDBRANCH   1  19
TORSDOF 7
ENDMDL
MODEL 7
REMARK VINA RESULT:      -9.2      0.764      1.433
REMARK  Name = 
REMARK  7 active torsions:
REMARK  status: ('A' for Active; 'I' for Inactive)
REMARK    1  A    between atoms: C_2  and  C_3
REMARK    2  A    between atoms: C_6  and  N_7
REMARK    3  A    between atoms: C_10  and  N_11
REMARK    4  A    between atoms: N_11  and  S_12
REMARK    5  A    between atoms: S_12  and  C_15
REMARK    6  A    between atoms: C_17  and  C_18
REMARK    7  A    between atoms: C_23  and  C_24
REMARK                            x       y       z     vdW  Elec       q    Type
REMARK                         _______ _______ _______ _____ _____    ______ ____
ROOT
ATOM      1  N   UNL     1       2.757   4.893  19.857  0.00  0.00    +0.000 N 
ATOM      2  H   UNL     1       3.163   4.539  20.722  0.00  0.00    +0.000 HD
ENDROOT
BRANCH   1   6
ATOM      3  N   UNL     1       0.600   8.771  21.789  0.00  0.00    +0.000 N 
ATOM      4  C   UNL     1       1.267   8.168  20.699  0.00  0.00    +0.000 A 
ATOM      5  C   UNL     1       1.688   6.847  20.824  0.00  0.00    +0.000 A 
ATOM      6  C   UNL     1       2.335   6.240  19.751  0.00  0.00    +0.000 A 
ATOM      7  C   UNL     1       2.595   6.954  18.594  0.00  0.00    +0.000 A 
ATOM      8  C   UNL     1       2.151   8.255  18.546  0.00  0.00    +0.000 A 
ATOM      9  N   UNL     1       1.505   8.857  19.564  0.00  0.00    +0.000 NA
ATOM     10  H   UNL     1       0.390   8.113  22.528  0.00  0.00    +0.000 HD
BRANCH   3  14
ATOM     11  C   UNL     1      -1.798  12.264  21.761  0.00  0.00    +0.000 A 
ATOM     12  C   UNL     1      -1.288  11.731  20.578  0.00  0.00    +0.000 A 
ATOM     13  C   UNL     1      -0.521  10.561  20.608  0.00  0.00    +0.000 A 
ATOM     14  C   UNL     1      -0.227   9.914  21.819  0.00  0.00    +0.000 A 
ATOM     15  C   UNL     1      -0.789  10.440  22.989  0.00  0.00    +0.000 A 
ATOM     16  C   UNL     1      -1.557  11.607  22.970  0.00  0.00    +0.000 A 
BRANCH  11  18
ATOM     17  N   UNL     1      -3.186  14.449  21.724  0.00  0.00    +0.000 NA
ATOM     18  C   UNL     1      -2.565  13.472  21.743  0.00  0.00    +0.000 C 
ENDBRANCH  11  18
ENDBRANCH   3  14
ENDBRANCH   1   6
BRANCH   1  19
ATOM     19  S   UNL     1       2.803   3.890  18.516  0.00  0.00    +0.000 S 
ATOM     20  O   UNL     1       2.862   2.536  19.024  0.00  0.00    +0.000 OA
ATOM     21  O   UNL     1       1.785   4.304  17.578  0.00  0.00    +0.000 OA
BRANCH  19  22
ATOM     22  C   UNL     1       4.395   4.255  17.802  0.00  0.00    +0.000 A 
ATOM     23  C   UNL     1       5.437   4.695  18.627  0.00  0.00    +0.000 A 
ATOM     24  C   UNL     1       6.683   5.021  18.071  0.00  0.00    +0.000 A 
ATOM     25  C   UNL     1       6.871   4.869  16.685  0.00  0.00    +0.000 A 
ATOM     26  C   UNL     1       5.833   4.413  15.850  0.00  0.00    +0.000 A 
ATOM     27  C   UNL     1       4.592   4.096  16.425  0.00  0.00    +0.000 A 
BRANCH  24  28
ATOM     28  C   UNL     1       7.808   5.561  18.928  0.00  0.00    +0.000 C 
ATOM     29  F   UNL     1       7.446   5.779  20.221  0.00  0.00    +0.000 F 
ATOM     30  F   UNL     1       8.883   4.731  18.967  0.00  0.00    +0.000 F 
ATOM     31  F   UNL     1       8.268   6.756  18.464  0.00  0.00    +0.000 F 
ENDBRANCH  24  28
BRANCH  26  32
ATOM     32  C   UNL     1       6.026   4.292  14.355  0.00  0.00    +0.000 C 
ATOM     33  F   UNL     1       4.890   4.530  13.644  0.00  0.00    +0.000 F 
ATOM     34  F   UNL     1       6.961   5.154  13.876  0.00  0.00    +0.000 F 
ATOM     35  F   UNL     1       6.437   3.045  13.996  0.00  0.00    +0.000 F 
ENDBRANCH  26  32
ENDBRANCH  19  22
ENDBRANCH   1  19
TORSDOF 7
ENDMDL
MODEL 8
REMARK VINA RESULT:      -9.1      1.066      3.175
REMARK  Name = 
REMARK  7 active torsions:
REMARK  status: ('A' for Active; 'I' for Inactive)
REMARK    1  A    between atoms: C_2  and  C_3
REMARK    2  A    between atoms: C_6  and  N_7
REMARK    3  A    between atoms: C_10  and  N_11
REMARK    4  A    between atoms: N_11  and  S_12
REMARK    5  A    between atoms: S_12  and  C_15
REMARK    6  A    between atoms: C_17  and  C_18
REMARK    7  A    between atoms: C_23  and  C_24
REMARK                            x       y       z     vdW  Elec       q    Type
REMARK                         _______ _______ _______ _____ _____    ______ ____
ROOT
ATOM      1  N   UNL     1       2.659   4.185  18.745  0.00  0.00    +0.000 N 
ATOM      2  H   UNL     1       1.887   3.529  18.638  0.00  0.00    +0.000 HD
ENDROOT
BRANCH   1   6
ATOM      3  N   UNL     1       1.349   7.950  21.489  0.00  0.00    +0.000 N 
ATOM      4  C   UNL     1       1.770   7.446  20.237  0.00  0.00    +0.000 A 
ATOM      5  C   UNL     1       2.015   6.081  20.118  0.00  0.00    +0.000 A 
ATOM      6  C   UNL     1       2.419   5.573  18.886  0.00  0.00    +0.000 A 
ATOM      7  C   UNL     1       2.615   6.419  17.808  0.00  0.00    +0.000 A 
ATOM      8  C   UNL     1       2.355   7.755  18.005  0.00  0.00    +0.000 A 
ATOM      9  N   UNL     1       1.945   8.267  19.182  0.00  0.00    +0.000 NA
ATOM     10  H   UNL     1       1.152   7.217  22.157  0.00  0.00    +0.000 HD
BRANCH   3  14
ATOM     11  C   UNL     1      -0.719  11.515  22.470  0.00  0.00    +0.000 A 
ATOM     12  C   UNL     1      -0.855  10.367  23.249  0.00  0.00    +0.000 A 
ATOM     13  C   UNL     1      -0.142   9.209  22.922  0.00  0.00    +0.000 A 
ATOM     14  C   UNL     1       0.702   9.165  21.799  0.00  0.00    +0.000 A 
ATOM     15  C   UNL     1       0.859  10.344  21.060  0.00  0.00    +0.000 A 
ATOM     16  C   UNL     1       0.152  11.506  21.378  0.00  0.00    +0.000 A 
BRANCH  11  18
ATOM     17  N   UNL     1      -2.063  13.655  23.033  0.00  0.00    +0.000 NA
ATOM     18  C   UNL     1      -1.463  12.698  22.783  0.00  0.00    +0.000 C 
ENDBRANCH  11  18
ENDBRANCH   3  14
ENDBRANCH   1   6
BRANCH   1  19
ATOM     19  S   UNL     1       4.192   3.544  18.955  0.00  0.00    +0.000 S 
ATOM     20  O   UNL     1       4.643   3.990  20.256  0.00  0.00    +0.000 OA
ATOM     21  O   UNL     1       4.175   2.143  18.598  0.00  0.00    +0.000 OA
BRANCH  19  22
ATOM     22  C   UNL     1       5.157   4.415  17.734  0.00  0.00    +0.000 A 
ATOM     23  C   UNL     1       5.141   3.981  16.404  0.00  0.00    +0.000 A 
ATOM     24  C   UNL     1       5.925   4.635  15.442  0.00  0.00    +0.000 A 
ATOM     25  C   UNL     1       6.696   5.745  15.833  0.00  0.00    +0.000 A 
ATOM     26  C   UNL     1       6.706   6.197  17.166  0.00  0.00    +0.000 A 
ATOM     27  C   UNL     1       5.918   5.526  18.115  0.00  0.00    +0.000 A 
BRANCH  24  28
ATOM     28  C   UNL     1       5.978   4.149  14.009  0.00  0.00    +0.000 C 
ATOM     29  F   UNL     1       6.384   2.856  13.892  0.00  0.00    +0.000 F 
ATOM     30  F   UNL     1       4.776   4.230  13.382  0.00  0.00    +0.000 F 
ATOM     31  F   UNL     1       6.848   4.881  13.259  0.00  0.00    +0.000 F 
ENDBRANCH  24  28
BRANCH  26  32
ATOM     32  C   UNL     1       7.569   7.364  17.590  0.00  0.00    +0.000 C 
ATOM     33  F   UNL     1       8.452   7.758  16.632  0.00  0.00    +0.000 F 
ATOM     34  F   UNL     1       6.841   8.466  17.911  0.00  0.00    +0.000 F 
ATOM     35  F   UNL     1       8.318   7.068  18.688  0.00  0.00    +0.000 F 
ENDBRANCH  26  32
ENDBRANCH  19  22
ENDBRANCH   1  19
TORSDOF 7
ENDMDL
MODEL 9
REMARK VINA RESULT:      -9.1      1.298      3.441
REMARK  Name = 
REMARK  7 active torsions:
REMARK  status: ('A' for Active; 'I' for Inactive)
REMARK    1  A    between atoms: C_2  and  C_3
REMARK    2  A    between atoms: C_6  and  N_7
REMARK    3  A    between atoms: C_10  and  N_11
REMARK    4  A    between atoms: N_11  and  S_12
REMARK    5  A    between atoms: S_12  and  C_15
REMARK    6  A    between atoms: C_17  and  C_18
REMARK    7  A    between atoms: C_23  and  C_24
REMARK                            x       y       z     vdW  Elec       q    Type
REMARK                         _______ _______ _______ _____ _____    ______ ____
ROOT
ATOM      1  N   UNL     1       2.749   6.061  19.979  0.00  0.00    +0.000 N 
ATOM      2  H   UNL     1       3.345   5.874  20.783  0.00  0.00    +0.000 HD
ENDROOT
BRANCH   1   6
ATOM      3  N   UNL     1       0.257   9.804  21.769  0.00  0.00    +0.000 N 
ATOM      4  C   UNL     1       0.912   9.191  20.678  0.00  0.00    +0.000 A 
ATOM      5  C   UNL     1       1.511   7.949  20.873  0.00  0.00    +0.000 A 
ATOM      6  C   UNL     1       2.148   7.331  19.800  0.00  0.00    +0.000 A 
ATOM      7  C   UNL     1       2.224   7.962  18.571  0.00  0.00    +0.000 A 
ATOM      8  C   UNL     1       1.612   9.188  18.456  0.00  0.00    +0.000 A 
ATOM      9  N   UNL     1       0.972   9.797  19.474  0.00  0.00    +0.000 NA
ATOM     10  H   UNL     1       0.192   9.196  22.575  0.00  0.00    +0.000 HD
BRANCH   3  14
ATOM     11  C   UNL     1      -2.719  12.817  21.904  0.00  0.00    +0.000 A 
ATOM     12  C   UNL     1      -2.334  12.134  23.057  0.00  0.00    +0.000 A 
ATOM     13  C   UNL     1      -1.330  11.162  22.993  0.00  0.00    +0.000 A 
ATOM     14  C   UNL     1      -0.707  10.834  21.777  0.00  0.00    +0.000 A 
ATOM     15  C   UNL     1      -1.077  11.566  20.642  0.00  0.00    +0.000 A 
ATOM     16  C   UNL     1      -2.078  12.540  20.694  0.00  0.00    +0.000 A 
BRANCH  11  18
ATOM     17  N   UNL     1      -4.602  14.592  21.996  0.00  0.00    +0.000 NA
ATOM     18  C   UNL     1      -3.761  13.797  21.954  0.00  0.00    +0.000 C 
ENDBRANCH  11  18
ENDBRANCH   3  14
ENDBRANCH   1   6
BRANCH   1  19
ATOM     19  S   UNL     1       2.680   4.893  18.781  0.00  0.00    +0.000 S 
ATOM     20  O   UNL     1       2.596   3.618  19.462  0.00  0.00    +0.000 OA
ATOM     21  O   UNL     1       1.707   5.287  17.788  0.00  0.00    +0.000 OA
BRANCH  19  22
ATOM     22  C   UNL     1       4.298   4.989  18.039  0.00  0.00    +0.000 A 
ATOM     23  C   UNL     1       4.449   4.719  16.674  0.00  0.00    +0.000 A 
ATOM     24  C   UNL     1       5.722   4.755  16.087  0.00  0.00    +0.000 A 
ATOM     25  C   UNL     1       6.830   5.095  16.884  0.00  0.00    +0.000 A 
ATOM     26  C   UNL     1       6.685   5.382  18.255  0.00  0.00    +0.000 A 
ATOM     27  C   UNL     1       5.404   5.336  18.825  0.00  0.00    +0.000 A 
BRANCH  24  28
ATOM     28  C   UNL     1       5.924   4.405  14.628  0.00  0.00    +0.000 C 
ATOM     29  F   UNL     1       6.809   5.220  13.993  0.00  0.00    +0.000 F 
ATOM     30  F   UNL     1       6.378   3.137  14.450  0.00  0.00    +0.000 F 
ATOM     31  F   UNL     1       4.763   4.495  13.922  0.00  0.00    +0.000 F 
ENDBRANCH  24  28
BRANCH  26  32
ATOM     32  C   UNL     1       7.885   5.705  19.118  0.00  0.00    +0.000 C 
ATOM     33  F   UNL     1       8.449   6.909  18.828  0.00  0.00    +0.000 F 
ATOM     34  F   UNL     1       7.584   5.737  20.443  0.00  0.00    +0.000 F 
ATOM     35  F   UNL     1       8.877   4.784  18.973  0.00  0.00    +0.000 F 
ENDBRANCH  26  32
ENDBRANCH  19  22
ENDBRANCH   1  19
TORSDOF 7
ENDMDL
