MODEL 1
REMARK VINA RESULT:      -7.2      0.000      0.000
REMARK  Name = 
REMARK  9 active torsions:
REMARK  status: ('A' for Active; 'I' for Inactive)
REMARK    1  A    between atoms: C_1  and  O_2
REMARK    2  A    between atoms: O_2  and  C_3
REMARK    3  A    between atoms: C_6  and  O_7
REMARK    4  A    between atoms: O_7  and  C_8
REMARK    5  A    between atoms: C_9  and  C_10
REMARK    6  A    between atoms: C_10  and  N_11
REMARK    7  A    between atoms: N_11  and  C_12
REMARK    8  A    between atoms: C_15  and  N_16
REMARK    9  A    between atoms: C_20  and  C_21
REMARK                            x       y       z     vdW  Elec       q    Type
REMARK                         _______ _______ _______ _____ _____    ______ ____
ROOT
ATOM      1  N   UNL     1       4.685   3.320  17.228  0.00  0.00    +0.000 N 
ATOM      2  H   UNL     1       5.076   3.494  18.153  0.00  0.00    +0.000 HD
ENDROOT
BRANCH   1   3
ATOM      3  C   UNL     1       5.511   3.928  16.266  0.00  0.00    +0.000 A 
ATOM      4  C   UNL     1       5.150   3.683  14.922  0.00  0.00    +0.000 A 
ATOM      5  C   UNL     1       5.920   4.131  13.839  0.00  0.00    +0.000 A 
ATOM      6  C   UNL     1       7.100   4.820  14.091  0.00  0.00    +0.000 A 
ATOM      7  C   UNL     1       7.509   5.047  15.409  0.00  0.00    +0.000 A 
ATOM      8  C   UNL     1       6.738   4.587  16.501  0.00  0.00    +0.000 A 
ATOM      9  C   UNL     1       7.323   4.831  17.865  0.00  0.00    +0.000 C 
BRANCH   6  10
ATOM     10  N   UNL     1       7.937   5.295  12.981  0.00  0.00    +0.000 N 
ATOM     11  O   UNL     1       7.609   4.963  11.832  0.00  0.00    +0.000 OA
ATOM     12  O   UNL     1       8.920   5.996  13.256  0.00  0.00    +0.000 OA
ENDBRANCH   6  10
ENDBRANCH   1   3
BRANCH   1  13
ATOM     13  C   UNL     1       3.236   3.567  17.249  0.00  0.00    +0.000 C 
BRANCH  13  18
ATOM     14  C   UNL     1       2.281   6.730  19.211  0.00  0.00    +0.000 A 
ATOM     15  C   UNL     1       2.030   6.191  20.472  0.00  0.00    +0.000 A 
ATOM     16  C   UNL     1       2.194   4.827  20.706  0.00  0.00    +0.000 A 
ATOM     17  C   UNL     1       2.611   3.980  19.675  0.00  0.00    +0.000 A 
ATOM     18  C   UNL     1       2.810   4.498  18.375  0.00  0.00    +0.000 A 
ATOM     19  C   UNL     1       2.669   5.885  18.169  0.00  0.00    +0.000 A 
BRANCH  14  21
ATOM     20  C   UNL     1       2.195   8.677  17.854  0.00  0.00    +0.000 C 
ATOM     21  O   UNL     1       2.115   8.085  19.142  0.00  0.00    +0.000 OA
ENDBRANCH  14  21
BRANCH  17  22
ATOM     22  O   UNL     1       2.820   2.633  19.847  0.00  0.00    +0.000 OA
ATOM     23  C   UNL     1       4.001   2.264  20.558  0.00  0.00    +0.000 C 
ENDBRANCH  17  22
ENDBRANCH  13  18
ENDBRANCH   1  13
TORSDOF 6
ENDMDL
MODEL 2
REMARK VINA RESULT:      -7.1      1.065      1.328
REMARK  Name = 
REMARK  9 active torsions:
REMARK  status: ('A' for Active; 'I' for Inactive)
REMARK    1  A    between atoms: C_1  and  O_2
REMARK    2  A    between atoms: O_2  and  C_3
REMARK    3  A    between atoms: C_6  and  O_7
REMARK    4  A    between atoms: O_7  and  C_8
REMARK    5  A    between atoms: C_9  and  C_10
REMARK    6  A    between atoms: C_10  and  N_11
REMARK    7  A    between atoms: N_11  and  C_12
REMARK    8  A    between atoms: C_15  and  N_16
REMARK    9  A    between atoms: C_20  and  C_21
REMARK                            x       y       z     vdW  Elec       q    Type
REMARK                         _______ _______ _______ _____ _____    ______ ____
ROOT
ATOM      1  N   UNL     1       4.707   3.865  17.963  0.00  0.00    +0.000 N 
ATOM      2  H   UNL     1       5.092   4.289  18.806  0.00  0.00    +0.000 HD
ENDROOT
BRANCH   1   3
ATOM      3  C   UNL     1       5.476   4.275  16.860  0.00  0.00    +0.000 A 
ATOM      4  C   UNL     1       4.882   4.054  15.596  0.00  0.00    +0.000 A 
ATOM      5  C   UNL     1       5.550   4.313  14.391  0.00  0.00    +0.000 A 
ATOM      6  C   UNL     1       6.858   4.780  14.434  0.00  0.00    +0.000 A 
ATOM      7  C   UNL     1       7.492   4.972  15.664  0.00  0.00    +0.000 A 
ATOM      8  C   UNL     1       6.822   4.702  16.880  0.00  0.00    +0.000 A 
ATOM      9  C   UNL     1       7.637   4.881  18.131  0.00  0.00    +0.000 C 
BRANCH   6  10
ATOM     10  N   UNL     1       7.592   5.052  13.190  0.00  0.00    +0.000 N 
ATOM     11  O   UNL     1       8.537   5.853  13.243  0.00  0.00    +0.000 OA
ATOM     12  O   UNL     1       7.224   4.467  12.162  0.00  0.00    +0.000 OA
ENDBRANCH   6  10
ENDBRANCH   1   3
BRANCH   1  13
ATOM     13  C   UNL     1       3.244   4.004  17.962  0.00  0.00    +0.000 C 
BRANCH  13  18
ATOM     14  C   UNL     1       2.369   7.681  18.661  0.00  0.00    +0.000 A 
ATOM     15  C   UNL     1       1.894   7.593  19.969  0.00  0.00    +0.000 A 
ATOM     16  C   UNL     1       1.882   6.371  20.639  0.00  0.00    +0.000 A 
ATOM     17  C   UNL     1       2.343   5.214  20.005  0.00  0.00    +0.000 A 
ATOM     18  C   UNL     1       2.770   5.272  18.658  0.00  0.00    +0.000 A 
ATOM     19  C   UNL     1       2.803   6.523  18.011  0.00  0.00    +0.000 A 
BRANCH  14  21
ATOM     20  C   UNL     1       1.095   9.590  18.051  0.00  0.00    +0.000 C 
ATOM     21  O   UNL     1       2.357   8.947  18.148  0.00  0.00    +0.000 OA
ENDBRANCH  14  21
BRANCH  17  22
ATOM     22  O   UNL     1       2.385   3.985  20.618  0.00  0.00    +0.000 OA
ATOM     23  C   UNL     1       1.127   3.356  20.855  0.00  0.00    +0.000 C 
ENDBRANCH  17  22
ENDBRANCH  13  18
ENDBRANCH   1  13
TORSDOF 6
ENDMDL
MODEL 3
REMARK VINA RESULT:      -6.9      2.256      2.972
REMARK  Name = 
REMARK  9 active torsions:
REMARK  status: ('A' for Active; 'I' for Inactive)
REMARK    1  A    between atoms: C_1  and  O_2
REMARK    2  A    between atoms: O_2  and  C_3
REMARK    3  A    between atoms: C_6  and  O_7
REMARK    4  A    between atoms: O_7  and  C_8
REMARK    5  A    between atoms: C_9  and  C_10
REMARK    6  A    between atoms: C_10  and  N_11
REMARK    7  A    between atoms: N_11  and  C_12
REMARK    8  A    between atoms: C_15  and  N_16
REMARK    9  A    between atoms: C_20  and  C_21
REMARK                            x       y       z     vdW  Elec       q    Type
REMARK                         _______ _______ _______ _____ _____    ______ ____
ROOT
ATOM      1  N   UNL     1       4.664   3.156  17.334  0.00  0.00    +0.000 N 
ATOM      2  H   UNL     1       4.927   2.502  18.071  0.00  0.00    +0.000 HD
ENDROOT
BRANCH   1   3
ATOM      3  C   UNL     1       5.546   4.250  17.365  0.00  0.00    +0.000 A 
ATOM      4  C   UNL     1       6.000   4.622  18.651  0.00  0.00    +0.000 A 
ATOM      5  C   UNL     1       6.805   5.748  18.871  0.00  0.00    +0.000 A 
ATOM      6  C   UNL     1       7.152   6.550  17.791  0.00  0.00    +0.000 A 
ATOM      7  C   UNL     1       6.690   6.235  16.510  0.00  0.00    +0.000 A 
ATOM      8  C   UNL     1       5.870   5.105  16.288  0.00  0.00    +0.000 A 
ATOM      9  C   UNL     1       5.380   4.917  14.878  0.00  0.00    +0.000 C 
BRANCH   6  10
ATOM     10  N   UNL     1       7.986   7.744  17.987  0.00  0.00    +0.000 N 
ATOM     11  O   UNL     1       8.734   7.766  18.976  0.00  0.00    +0.000 OA
ATOM     12  O   UNL     1       7.894   8.658  17.156  0.00  0.00    +0.000 OA
ENDBRANCH   6  10
ENDBRANCH   1   3
BRANCH   1  13
ATOM     13  C   UNL     1       3.208   3.356  17.347  0.00  0.00    +0.000 C 
BRANCH  13  18
ATOM     14  C   UNL     1       2.173   6.556  19.206  0.00  0.00    +0.000 A 
ATOM     15  C   UNL     1       1.912   6.048  20.478  0.00  0.00    +0.000 A 
ATOM     16  C   UNL     1       2.095   4.694  20.752  0.00  0.00    +0.000 A 
ATOM     17  C   UNL     1       2.540   3.825  19.752  0.00  0.00    +0.000 A 
ATOM     18  C   UNL     1       2.750   4.310  18.441  0.00  0.00    +0.000 A 
ATOM     19  C   UNL     1       2.590   5.689  18.194  0.00  0.00    +0.000 A 
BRANCH  14  21
ATOM     20  C   UNL     1       2.123   8.470  17.801  0.00  0.00    +0.000 C 
ATOM     21  O   UNL     1       1.987   7.905  19.096  0.00  0.00    +0.000 OA
ENDBRANCH  14  21
BRANCH  17  22
ATOM     22  O   UNL     1       2.769   2.487  19.964  0.00  0.00    +0.000 OA
ATOM     23  C   UNL     1       3.953   2.157  20.687  0.00  0.00    +0.000 C 
ENDBRANCH  17  22
ENDBRANCH  13  18
ENDBRANCH   1  13
TORSDOF 6
ENDMDL
MODEL 4
REMARK VINA RESULT:      -6.9      2.444      6.939
REMARK  Name = 
REMARK  9 active torsions:
REMARK  status: ('A' for Active; 'I' for Inactive)
REMARK    1  A    between atoms: C_1  and  O_2
REMARK    2  A    between atoms: O_2  and  C_3
REMARK    3  A    between atoms: C_6  and  O_7
REMARK    4  A    between atoms: O_7  and  C_8
REMARK    5  A    between atoms: C_9  and  C_10
REMARK    6  A    between atoms: C_10  and  N_11
REMARK    7  A    between atoms: N_11  and  C_12
REMARK    8  A    between atoms: C_15  and  N_16
REMARK    9  A    between atoms: C_20  and  C_21
REMARK                            x       y       z     vdW  Elec       q    Type
REMARK                         _______ _______ _______ _____ _____    ______ ____
ROOT
ATOM      1  N   UNL     1       2.970   3.907  18.353  0.00  0.00    +0.000 N 
ATOM      2  H   UNL     1       2.725   3.957  17.364  0.00  0.00    +0.000 HD
ENDROOT
BRANCH   1   3
ATOM      3  C   UNL     1       2.463   5.046  19.003  0.00  0.00    +0.000 A 
ATOM      4  C   UNL     1       2.604   6.258  18.291  0.00  0.00    +0.000 A 
ATOM      5  C   UNL     1       2.242   7.499  18.834  0.00  0.00    +0.000 A 
ATOM      6  C   UNL     1       1.749   7.549  20.132  0.00  0.00    +0.000 A 
ATOM      7  C   UNL     1       1.631   6.374  20.880  0.00  0.00    +0.000 A 
ATOM      8  C   UNL     1       2.005   5.124  20.337  0.00  0.00    +0.000 A 
ATOM      9  C   UNL     1       1.899   3.947  21.268  0.00  0.00    +0.000 C 
BRANCH   6  10
ATOM     10  N   UNL     1       1.369   8.833  20.735  0.00  0.00    +0.000 N 
ATOM     11  O   UNL     1       1.432   8.930  21.970  0.00  0.00    +0.000 OA
ATOM     12  O   UNL     1       1.009   9.745  19.978  0.00  0.00    +0.000 OA
ENDBRANCH   6  10
ENDBRANCH   1   3
BRANCH   1  13
ATOM     13  C   UNL     1       4.381   3.518  18.494  0.00  0.00    +0.000 C 
BRANCH  13  18
ATOM     14  C   UNL     1       5.672   4.280  14.956  0.00  0.00    +0.000 A 
ATOM     15  C   UNL     1       6.871   4.928  15.249  0.00  0.00    +0.000 A 
ATOM     16  C   UNL     1       7.284   5.095  16.569  0.00  0.00    +0.000 A 
ATOM     17  C   UNL     1       6.497   4.616  17.620  0.00  0.00    +0.000 A 
ATOM     18  C   UNL     1       5.249   4.012  17.346  0.00  0.00    +0.000 A 
ATOM     19  C   UNL     1       4.866   3.826  16.002  0.00  0.00    +0.000 A 
BRANCH  14  21
ATOM     20  C   UNL     1       6.475   3.671  12.806  0.00  0.00    +0.000 C 
ATOM     21  O   UNL     1       5.418   4.156  13.619  0.00  0.00    +0.000 OA
ENDBRANCH  14  21
BRANCH  17  22
ATOM     22  O   UNL     1       6.860   4.722  18.941  0.00  0.00    +0.000 OA
ATOM     23  C   UNL     1       7.826   5.724  19.250  0.00  0.00    +0.000 C 
ENDBRANCH  17  22
ENDBRANCH  13  18
ENDBRANCH   1  13
TORSDOF 6
ENDMDL
MODEL 5
REMARK VINA RESULT:      -6.9      2.412      6.900
REMARK  Name = 
REMARK  9 active torsions:
REMARK  status: ('A' for Active; 'I' for Inactive)
REMARK    1  A    between atoms: C_1  and  O_2
REMARK    2  A    between atoms: O_2  and  C_3
REMARK    3  A    between atoms: C_6  and  O_7
REMARK    4  A    between atoms: O_7  and  C_8
REMARK    5  A    between atoms: C_9  and  C_10
REMARK    6  A    between atoms: C_10  and  N_11
REMARK    7  A    between atoms: N_11  and  C_12
REMARK    8  A    between atoms: C_15  and  N_16
REMARK    9  A    between atoms: C_20  and  C_21
REMARK                            x       y       z     vdW  Elec       q    Type
REMARK                         _______ _______ _______ _____ _____    ______ ____
ROOT
ATOM      1  N   UNL     1       2.963   6.458  17.526  0.00  0.00    +0.000 N 
ATOM      2  H   UNL     1       2.276   7.205  17.629  0.00  0.00    +0.000 HD
ENDROOT
BRANCH   1   3
ATOM      3  C   UNL     1       2.680   5.452  18.467  0.00  0.00    +0.000 A 
ATOM      4  C   UNL     1       2.537   5.897  19.800  0.00  0.00    +0.000 A 
ATOM      5  C   UNL     1       2.351   5.017  20.875  0.00  0.00    +0.000 A 
ATOM      6  C   UNL     1       2.332   3.649  20.630  0.00  0.00    +0.000 A 
ATOM      7  C   UNL     1       2.510   3.170  19.329  0.00  0.00    +0.000 A 
ATOM      8  C   UNL     1       2.707   4.057  18.246  0.00  0.00    +0.000 A 
ATOM      9  C   UNL     1       2.958   3.415  16.909  0.00  0.00    +0.000 C 
BRANCH   6  10
ATOM     10  N   UNL     1       2.150   2.697  21.734  0.00  0.00    +0.000 N 
ATOM     11  O   UNL     1       3.139   2.044  22.100  0.00  0.00    +0.000 OA
ATOM     12  O   UNL     1       1.021   2.601  22.234  0.00  0.00    +0.000 OA
ENDBRANCH   6  10
ENDBRANCH   1   3
BRANCH   1  13
ATOM     13  C   UNL     1       4.310   7.036  17.416  0.00  0.00    +0.000 C 
BRANCH  13  18
ATOM     14  C   UNL     1       6.217   4.910  14.844  0.00  0.00    +0.000 A 
ATOM     15  C   UNL     1       7.175   4.309  15.660  0.00  0.00    +0.000 A 
ATOM     16  C   UNL     1       7.195   4.556  17.031  0.00  0.00    +0.000 A 
ATOM     17  C   UNL     1       6.254   5.413  17.608  0.00  0.00    +0.000 A 
ATOM     18  C   UNL     1       5.314   6.080  16.788  0.00  0.00    +0.000 A 
ATOM     19  C   UNL     1       5.293   5.792  15.409  0.00  0.00    +0.000 A 
BRANCH  14  21
ATOM     20  C   UNL     1       7.479   4.905  12.833  0.00  0.00    +0.000 C 
ATOM     21  O   UNL     1       6.296   4.546  13.530  0.00  0.00    +0.000 OA
ENDBRANCH  14  21
BRANCH  17  22
ATOM     22  O   UNL     1       6.200   5.675  18.955  0.00  0.00    +0.000 OA
ATOM     23  C   UNL     1       7.451   5.719  19.639  0.00  0.00    +0.000 C 
ENDBRANCH  17  22
ENDBRANCH  13  18
ENDBRANCH   1  13
TORSDOF 6
ENDMDL
MODEL 6
REMARK VINA RESULT:      -6.8      2.293      3.013
REMARK  Name = 
REMARK  9 active torsions:
REMARK  status: ('A' for Active; 'I' for Inactive)
REMARK    1  A    between atoms: C_1  and  O_2
REMARK    2  A    between atoms: O_2  and  C_3
REMARK    3  A    between atoms: C_6  and  O_7
REMARK    4  A    between atoms: O_7  and  C_8
REMARK    5  A    between atoms: C_9  and  C_10
REMARK    6  A    between atoms: C_10  and  N_11
REMARK    7  A    between atoms: N_11  and  C_12
REMARK    8  A    between atoms: C_15  and  N_16
REMARK    9  A    between atoms: C_20  and  C_21
REMARK                            x       y       z     vdW  Elec       q    Type
REMARK                         _______ _______ _______ _____ _____    ______ ____
ROOT
ATOM      1  N   UNL     1       4.520   2.939  17.936  0.00  0.00    +0.000 N 
ATOM      2  H   UNL     1       4.762   2.393  18.762  0.00  0.00    +0.000 HD
ENDROOT
BRANCH   1   3
ATOM      3  C   UNL     1       5.427   4.007  17.818  0.00  0.00    +0.000 A 
ATOM      4  C   UNL     1       5.846   4.578  19.041  0.00  0.00    +0.000 A 
ATOM      5  C   UNL     1       6.670   5.711  19.103  0.00  0.00    +0.000 A 
ATOM      6  C   UNL     1       7.073   6.317  17.918  0.00  0.00    +0.000 A 
ATOM      7  C   UNL     1       6.646   5.803  16.690  0.00  0.00    +0.000 A 
ATOM      8  C   UNL     1       5.807   4.666  16.628  0.00  0.00    +0.000 A 
ATOM      9  C   UNL     1       5.360   4.256  15.251  0.00  0.00    +0.000 C 
BRANCH   6  10
ATOM     10  N   UNL     1       7.928   7.511  17.946  0.00  0.00    +0.000 N 
ATOM     11  O   UNL     1       7.874   8.280  16.974  0.00  0.00    +0.000 OA
ATOM     12  O   UNL     1       8.653   7.681  18.936  0.00  0.00    +0.000 OA
ENDBRANCH   6  10
ENDBRANCH   1   3
BRANCH   1  13
ATOM     13  C   UNL     1       3.069   3.170  17.902  0.00  0.00    +0.000 C 
BRANCH  13  18
ATOM     14  C   UNL     1       2.145   6.834  18.602  0.00  0.00    +0.000 A 
ATOM     15  C   UNL     1       1.898   6.785  19.973  0.00  0.00    +0.000 A 
ATOM     16  C   UNL     1       2.055   5.595  20.680  0.00  0.00    +0.000 A 
ATOM     17  C   UNL     1       2.461   4.431  20.021  0.00  0.00    +0.000 A 
ATOM     18  C   UNL     1       2.656   4.446  18.621  0.00  0.00    +0.000 A 
ATOM     19  C   UNL     1       2.521   5.668  17.931  0.00  0.00    +0.000 A 
BRANCH  14  21
ATOM     20  C   UNL     1       1.671   9.136  18.938  0.00  0.00    +0.000 C 
ATOM     21  O   UNL     1       1.987   8.074  18.051  0.00  0.00    +0.000 OA
ENDBRANCH  14  21
BRANCH  17  22
ATOM     22  O   UNL     1       2.663   3.234  20.664  0.00  0.00    +0.000 OA
ATOM     23  C   UNL     1       1.568   2.738  21.431  0.00  0.00    +0.000 C 
ENDBRANCH  17  22
ENDBRANCH  13  18
ENDBRANCH   1  13
TORSDOF 6
ENDMDL
MODEL 7
REMARK VINA RESULT:      -6.8      3.745      8.283
REMARK  Name = 
REMARK  9 active torsions:
REMARK  status: ('A' for Active; 'I' for Inactive)
REMARK    1  A    between atoms: C_1  and  O_2
REMARK    2  A    between atoms: O_2  and  C_3
REMARK    3  A    between atoms: C_6  and  O_7
REMARK    4  A    between atoms: O_7  and  C_8
REMARK    5  A    between atoms: C_9  and  C_10
REMARK    6  A    between atoms: C_10  and  N_11
REMARK    7  A    between atoms: N_11  and  C_12
REMARK    8  A    between atoms: C_15  and  N_16
REMARK    9  A    between atoms: C_20  and  C_21
REMARK                            x       y       z     vdW  Elec       q    Type
REMARK                         _______ _______ _______ _____ _____    ______ ____
ROOT
ATOM      1  N   UNL     1       1.749   8.309  18.047  0.00  0.00    +0.000 N 
ATOM      2  H   UNL     1       1.572   8.965  17.286  0.00  0.00    +0.000 HD
ENDROOT
BRANCH   1   3
ATOM      3  C   UNL     1       1.247   8.856  19.241  0.00  0.00    +0.000 A 
ATOM      4  C   UNL     1       1.735   8.262  20.427  0.00  0.00    +0.000 A 
ATOM      5  C   UNL     1       1.266   8.619  21.699  0.00  0.00    +0.000 A 
ATOM      6  C   UNL     1       0.263   9.576  21.803  0.00  0.00    +0.000 A 
ATOM      7  C   UNL     1      -0.271  10.157  20.649  0.00  0.00    +0.000 A 
ATOM      8  C   UNL     1       0.195   9.790  19.366  0.00  0.00    +0.000 A 
ATOM      9  C   UNL     1      -0.511  10.434  18.203  0.00  0.00    +0.000 C 
BRANCH   6  10
ATOM     10  N   UNL     1      -0.259   9.967  23.119  0.00  0.00    +0.000 N 
ATOM     11  O   UNL     1      -1.321  10.606  23.151  0.00  0.00    +0.000 OA
ATOM     12  O   UNL     1       0.391   9.637  24.121  0.00  0.00    +0.000 OA
ENDBRANCH   6  10
ENDBRANCH   1   3
BRANCH   1  13
ATOM     13  C   UNL     1       3.130   7.812  17.961  0.00  0.00    +0.000 C 
BRANCH  13  18
ATOM     14  C   UNL     1       2.143   4.103  17.761  0.00  0.00    +0.000 A 
ATOM     15  C   UNL     1       3.377   3.519  17.481  0.00  0.00    +0.000 A 
ATOM     16  C   UNL     1       4.528   4.300  17.388  0.00  0.00    +0.000 A 
ATOM     17  C   UNL     1       4.458   5.683  17.570  0.00  0.00    +0.000 A 
ATOM     18  C   UNL     1       3.206   6.301  17.792  0.00  0.00    +0.000 A 
ATOM     19  C   UNL     1       2.061   5.489  17.914  0.00  0.00    +0.000 A 
BRANCH  14  21
ATOM     20  C   UNL     1       0.887   2.631  19.137  0.00  0.00    +0.000 C 
ATOM     21  O   UNL     1       1.114   3.211  17.861  0.00  0.00    +0.000 OA
ENDBRANCH  14  21
BRANCH  17  22
ATOM     22  O   UNL     1       5.557   6.506  17.520  0.00  0.00    +0.000 OA
ATOM     23  C   UNL     1       6.627   6.076  16.680  0.00  0.00    +0.000 C 
ENDBRANCH  17  22
ENDBRANCH  13  18
ENDBRANCH   1  13
TORSDOF 6
ENDMDL
MODEL 8
REMARK VINA RESULT:      -6.7      2.525      6.934
REMARK  Name = 
REMARK  9 active torsions:
REMARK  status: ('A' for Active; 'I' for Inactive)
REMARK    1  A    between atoms: C_1  and  O_2
REMARK    2  A    between atoms: O_2  and  C_3
REMARK    3  A    between atoms: C_6  and  O_7
REMARK    4  A    between atoms: O_7  and  C_8
REMARK    5  A    between atoms: C_9  and  C_10
REMARK    6  A    between atoms: C_10  and  N_11
REMARK    7  A    between atoms: N_11  and  C_12
REMARK    8  A    between atoms: C_15  and  N_16
REMARK    9  A    between atoms: C_20  and  C_21
REMARK                            x       y       z     vdW  Elec       q    Type
REMARK                         _______ _______ _______ _____ _____    ______ ____
ROOT
ATOM      1  N   UNL     1       3.107   6.604  17.514  0.00  0.00    +0.000 N 
ATOM      2  H   UNL     1       2.440   7.371  17.585  0.00  0.00    +0.000 HD
ENDROOT
BRANCH   1   3
ATOM      3  C   UNL     1       2.944   5.759  18.627  0.00  0.00    +0.000 A 
ATOM      4  C   UNL     1       3.207   4.391  18.388  0.00  0.00    +0.000 A 
ATOM      5  C   UNL     1       3.000   3.401  19.358  0.00  0.00    +0.000 A 
ATOM      6  C   UNL     1       2.490   3.769  20.598  0.00  0.00    +0.000 A 
ATOM      7  C   UNL     1       2.180   5.107  20.857  0.00  0.00    +0.000 A 
ATOM      8  C   UNL     1       2.380   6.105  19.875  0.00  0.00    +0.000 A 
ATOM      9  C   UNL     1       1.940   7.493  20.252  0.00  0.00    +0.000 C 
BRANCH   6  10
ATOM     10  N   UNL     1       2.250   2.756  21.634  0.00  0.00    +0.000 N 
ATOM     11  O   UNL     1       1.093   2.636  22.065  0.00  0.00    +0.000 OA
ATOM     12  O   UNL     1       3.216   2.083  22.019  0.00  0.00    +0.000 OA
ENDBRANCH   6  10
ENDBRANCH   1   3
BRANCH   1  13
ATOM     13  C   UNL     1       4.430   7.129  17.149  0.00  0.00    +0.000 C 
BRANCH  13  18
ATOM     14  C   UNL     1       5.769   4.523  14.663  0.00  0.00    +0.000 A 
ATOM     15  C   UNL     1       6.969   4.168  15.276  0.00  0.00    +0.000 A 
ATOM     16  C   UNL     1       7.338   4.735  16.495  0.00  0.00    +0.000 A 
ATOM     17  C   UNL     1       6.508   5.670  17.118  0.00  0.00    +0.000 A 
ATOM     18  C   UNL     1       5.317   6.088  16.481  0.00  0.00    +0.000 A 
ATOM     19  C   UNL     1       4.948   5.479  15.265  0.00  0.00    +0.000 A 
BRANCH  14  21
ATOM     20  C   UNL     1       6.593   3.772  12.566  0.00  0.00    +0.000 C 
ATOM     21  O   UNL     1       5.522   3.858  13.494  0.00  0.00    +0.000 OA
ENDBRANCH  14  21
BRANCH  17  22
ATOM     22  O   UNL     1       6.798   6.243  18.332  0.00  0.00    +0.000 OA
ATOM     23  C   UNL     1       6.788   5.369  19.460  0.00  0.00    +0.000 C 
ENDBRANCH  17  22
ENDBRANCH  13  18
ENDBRANCH   1  13
TORSDOF 6
ENDMDL
MODEL 9
REMARK VINA RESULT:      -6.7      3.588      7.261
REMARK  Name = 
REMARK  9 active torsions:
REMARK  status: ('A' for Active; 'I' for Inactive)
REMARK    1  A    between atoms: C_1  and  O_2
REMARK    2  A    between atoms: O_2  and  C_3
REMARK    3  A    between atoms: C_6  and  O_7
REMARK    4  A    between atoms: O_7  and  C_8
REMARK    5  A    between atoms: C_9  and  C_10
REMARK    6  A    between atoms: C_10  and  N_11
REMARK    7  A    between atoms: N_11  and  C_12
REMARK    8  A    between atoms: C_15  and  N_16
REMARK    9  A    between atoms: C_20  and  C_21
REMARK                            x       y       z     vdW  Elec       q    Type
REMARK                         _______ _______ _______ _____ _____    ______ ____
ROOT
ATOM      1  N   UNL     1       2.421   6.859  20.506  0.00  0.00    +0.000 N 
ATOM      2  H   UNL     1       2.470   6.926  21.522  0.00  0.00    +0.000 HD
ENDROOT
BRANCH   1   3
ATOM      3  C   UNL     1       1.770   8.002  20.008  0.00  0.00    +0.000 A 
ATOM      4  C   UNL     1       0.771   8.540  20.851  0.00  0.00    +0.000 A 
ATOM      5  C   UNL     1      -0.041   9.617  20.467  0.00  0.00    +0.000 A 
ATOM      6  C   UNL     1       0.120  10.164  19.199  0.00  0.00    +0.000 A 
ATOM      7  C   UNL     1       1.072   9.632  18.324  0.00  0.00    +0.000 A 
ATOM      8  C   UNL     1       1.884   8.540  18.708  0.00  0.00    +0.000 A 
ATOM      9  C   UNL     1       2.817   8.015  17.651  0.00  0.00    +0.000 C 
BRANCH   6  10
ATOM     10  N   UNL     1      -0.720  11.286  18.761  0.00  0.00    +0.000 N 
ATOM     11  O   UNL     1      -0.231  12.424  18.809  0.00  0.00    +0.000 OA
ATOM     12  O   UNL     1      -1.868  11.031  18.370  0.00  0.00    +0.000 OA
ENDBRANCH   6  10
ENDBRANCH   1   3
BRANCH   1  13
ATOM     13  C   UNL     1       1.986   5.509  20.120  0.00  0.00    +0.000 C 
BRANCH  13  18
ATOM     14  C   UNL     1       5.298   4.384  18.528  0.00  0.00    +0.000 A 
ATOM     15  C   UNL     1       4.838   3.455  17.595  0.00  0.00    +0.000 A 
ATOM     16  C   UNL     1       3.474   3.211  17.451  0.00  0.00    +0.000 A 
ATOM     17  C   UNL     1       2.547   3.892  18.244  0.00  0.00    +0.000 A 
ATOM     18  C   UNL     1       2.997   4.791  19.238  0.00  0.00    +0.000 A 
ATOM     19  C   UNL     1       4.379   5.047  19.345  0.00  0.00    +0.000 A 
BRANCH  14  21
ATOM     20  C   UNL     1       7.291   4.653  17.266  0.00  0.00    +0.000 C 
ATOM     21  O   UNL     1       6.654   4.547  18.530  0.00  0.00    +0.000 OA
ENDBRANCH  14  21
BRANCH  17  22
ATOM     22  O   UNL     1       1.188   3.719  18.131  0.00  0.00    +0.000 OA
ATOM     23  C   UNL     1       0.659   2.516  18.685  0.00  0.00    +0.000 C 
ENDBRANCH  17  22
ENDBRANCH  13  18
ENDBRANCH   1  13
TORSDOF 6
ENDMDL
