MODEL 1
REMARK VINA RESULT:      -7.7      0.000      0.000
REMARK  Name = 
REMARK  8 active torsions:
REMARK  status: ('A' for Active; 'I' for Inactive)
REMARK    1  A    between atoms: C_1  and  O_2
REMARK    2  A    between atoms: O_2  and  C_3
REMARK    3  A    between atoms: C_3  and  C_4
REMARK    4  A    between atoms: C_4  and  N_5
REMARK    5  A    between atoms: N_5  and  C_6
REMARK    6  A    between atoms: C_6  and  C_7
REMARK    7  A    between atoms: C_13  and  C_15
REMARK    8  A    between atoms: N_20  and  C_21
REMARK                            x       y       z     vdW  Elec       q    Type
REMARK                         _______ _______ _______ _____ _____    ______ ____
ROOT
ATOM      1  N   UNL     1       6.078   4.777  17.253  0.00  0.00    +0.000 N 
ATOM      2  C   UNL     1       5.452   4.243  18.388  0.00  0.00    +0.000 C 
ATOM      3  O   UNL     1       6.006   4.191  19.492  0.00  0.00    +0.000 OA
ENDROOT
BRANCH   2   4
ATOM      4  C   UNL     1       4.057   3.705  18.355  0.00  0.00    +0.000 A 
ATOM      5  C   UNL     1       3.621   2.554  17.608  0.00  0.00    +0.000 A 
ATOM      6  C   UNL     1       2.360   2.116  17.699  0.00  0.00    +0.000 A 
ATOM      7  C   UNL     1       1.402   2.747  18.650  0.00  0.00    +0.000 A 
ATOM      8  O   UNL     1       0.256   2.317  18.727  0.00  0.00    +0.000 OA
ATOM      9  N   UNL     1       1.925   3.774  19.434  0.00  0.00    +0.000 N 
ATOM     10  C   UNL     1       1.128   4.326  20.520  0.00  0.00    +0.000 C 
ATOM     11  C   UNL     1       3.214   4.245  19.260  0.00  0.00    +0.000 A 
ENDBRANCH   2   4
BRANCH   1  12
ATOM     12  C   UNL     1       7.442   5.378  17.394  0.00  0.00    +0.000 C 
BRANCH  12  13
ATOM     13  C   UNL     1       7.517   6.791  17.998  0.00  0.00    +0.000 C 
BRANCH  13  15
ATOM     14  C   UNL     1       8.006   9.046  17.806  0.00  0.00    +0.000 C 
ATOM     15  O   UNL     1       7.798   7.835  17.063  0.00  0.00    +0.000 OA
ENDBRANCH  13  15
ENDBRANCH  12  13
ENDBRANCH   1  12
BRANCH   1  16
ATOM     16  C   UNL     1       5.325   5.217  16.057  0.00  0.00    +0.000 C 
BRANCH  16  17
ATOM     17  C   UNL     1       5.856   4.850  14.677  0.00  0.00    +0.000 A 
ATOM     18  C   UNL     1       5.271   3.888  13.858  0.00  0.00    +0.000 A 
ATOM     19  C   UNL     1       5.921   3.503  12.681  0.00  0.00    +0.000 A 
ATOM     20  C   UNL     1       7.129   4.092  12.336  0.00  0.00    +0.000 A 
ATOM     21  C   UNL     1       7.634   5.063  13.179  0.00  0.00    +0.000 A 
ATOM     22  N   UNL     1       7.032   5.446  14.329  0.00  0.00    +0.000 NA
ENDBRANCH  16  17
ENDBRANCH   1  16
TORSDOF 6
ENDMDL
MODEL 2
REMARK VINA RESULT:      -7.3      0.610      1.027
REMARK  Name = 
REMARK  8 active torsions:
REMARK  status: ('A' for Active; 'I' for Inactive)
REMARK    1  A    between atoms: C_1  and  O_2
REMARK    2  A    between atoms: O_2  and  C_3
REMARK    3  A    between atoms: C_3  and  C_4
REMARK    4  A    between atoms: C_4  and  N_5
REMARK    5  A    between atoms: N_5  and  C_6
REMARK    6  A    between atoms: C_6  and  C_7
REMARK    7  A    between atoms: C_13  and  C_15
REMARK    8  A    between atoms: N_20  and  C_21
REMARK                            x       y       z     vdW  Elec       q    Type
REMARK                         _______ _______ _______ _____ _____    ______ ____
ROOT
ATOM      1  N   UNL     1       6.108   4.668  17.260  0.00  0.00    +0.000 N 
ATOM      2  C   UNL     1       5.439   4.235  18.413  0.00  0.00    +0.000 C 
ATOM      3  O   UNL     1       5.950   4.285  19.538  0.00  0.00    +0.000 OA
ENDROOT
BRANCH   2   4
ATOM      4  C   UNL     1       4.047   3.690  18.375  0.00  0.00    +0.000 A 
ATOM      5  C   UNL     1       3.629   2.512  17.662  0.00  0.00    +0.000 A 
ATOM      6  C   UNL     1       2.368   2.071  17.747  0.00  0.00    +0.000 A 
ATOM      7  C   UNL     1       1.391   2.731  18.659  0.00  0.00    +0.000 A 
ATOM      8  O   UNL     1       0.246   2.298  18.732  0.00  0.00    +0.000 OA
ATOM      9  N   UNL     1       1.897   3.787  19.415  0.00  0.00    +0.000 N 
ATOM     10  C   UNL     1       1.079   4.372  20.468  0.00  0.00    +0.000 C 
ATOM     11  C   UNL     1       3.187   4.257  19.247  0.00  0.00    +0.000 A 
ENDBRANCH   2   4
BRANCH   1  12
ATOM     12  C   UNL     1       7.465   5.285  17.398  0.00  0.00    +0.000 C 
BRANCH  12  13
ATOM     13  C   UNL     1       7.525   6.693  18.015  0.00  0.00    +0.000 C 
BRANCH  13  15
ATOM     14  C   UNL     1       8.075   8.931  17.783  0.00  0.00    +0.000 C 
ATOM     15  O   UNL     1       7.637   7.762  17.073  0.00  0.00    +0.000 OA
ENDBRANCH  13  15
ENDBRANCH  12  13
ENDBRANCH   1  12
BRANCH   1  16
ATOM     16  C   UNL     1       5.401   4.994  16.001  0.00  0.00    +0.000 C 
BRANCH  16  17
ATOM     17  C   UNL     1       6.051   4.623  14.674  0.00  0.00    +0.000 A 
ATOM     18  C   UNL     1       7.224   5.207  14.202  0.00  0.00    +0.000 A 
ATOM     19  C   UNL     1       7.657   4.922  12.903  0.00  0.00    +0.000 A 
ATOM     20  C   UNL     1       6.923   4.053  12.107  0.00  0.00    +0.000 A 
ATOM     21  C   UNL     1       5.788   3.486  12.653  0.00  0.00    +0.000 A 
ATOM     22  N   UNL     1       5.342   3.752  13.902  0.00  0.00    +0.000 NA
ENDBRANCH  16  17
ENDBRANCH   1  16
TORSDOF 6
ENDMDL
MODEL 3
REMARK VINA RESULT:      -7.2      3.289      5.819
REMARK  Name = 
REMARK  8 active torsions:
REMARK  status: ('A' for Active; 'I' for Inactive)
REMARK    1  A    between atoms: C_1  and  O_2
REMARK    2  A    between atoms: O_2  and  C_3
REMARK    3  A    between atoms: C_3  and  C_4
REMARK    4  A    between atoms: C_4  and  N_5
REMARK    5  A    between atoms: N_5  and  C_6
REMARK    6  A    between atoms: C_6  and  C_7
REMARK    7  A    between atoms: C_13  and  C_15
REMARK    8  A    between atoms: N_20  and  C_21
REMARK                            x       y       z     vdW  Elec       q    Type
REMARK                         _______ _______ _______ _____ _____    ______ ____
ROOT
ATOM      1  N   UNL     1       3.978   4.924  17.287  0.00  0.00    +0.000 N 
ATOM      2  C   UNL     1       4.055   6.299  17.550  0.00  0.00    +0.000 C 
ATOM      3  O   UNL     1       4.953   7.016  17.094  0.00  0.00    +0.000 OA
ENDROOT
BRANCH   2   4
ATOM      4  C   UNL     1       3.047   7.010  18.395  0.00  0.00    +0.000 A 
ATOM      5  C   UNL     1       2.697   6.666  19.749  0.00  0.00    +0.000 A 
ATOM      6  C   UNL     1       1.826   7.410  20.442  0.00  0.00    +0.000 A 
ATOM      7  C   UNL     1       1.273   8.668  19.865  0.00  0.00    +0.000 A 
ATOM      8  O   UNL     1       0.489   9.341  20.526  0.00  0.00    +0.000 OA
ATOM      9  N   UNL     1       1.751   9.009  18.601  0.00  0.00    +0.000 N 
ATOM     10  C   UNL     1       1.418  10.307  18.033  0.00  0.00    +0.000 C 
ATOM     11  C   UNL     1       2.596   8.177  17.889  0.00  0.00    +0.000 A 
ENDBRANCH   2   4
BRANCH   1  12
ATOM     12  C   UNL     1       4.976   4.309  16.356  0.00  0.00    +0.000 C 
BRANCH  12  13
ATOM     13  C   UNL     1       6.423   4.199  16.867  0.00  0.00    +0.000 C 
BRANCH  13  15
ATOM     14  C   UNL     1       6.800   4.822  14.669  0.00  0.00    +0.000 C 
ATOM     15  O   UNL     1       7.424   4.646  15.950  0.00  0.00    +0.000 OA
ENDBRANCH  13  15
ENDBRANCH  12  13
ENDBRANCH   1  12
BRANCH   1  16
ATOM     16  C   UNL     1       2.734   4.143  17.471  0.00  0.00    +0.000 C 
BRANCH  16  17
ATOM     17  C   UNL     1       2.447   3.527  18.834  0.00  0.00    +0.000 A 
ATOM     18  C   UNL     1       1.181   3.498  19.413  0.00  0.00    +0.000 A 
ATOM     19  C   UNL     1       1.041   3.059  20.734  0.00  0.00    +0.000 A 
ATOM     20  C   UNL     1       2.160   2.647  21.445  0.00  0.00    +0.000 A 
ATOM     21  C   UNL     1       3.379   2.672  20.796  0.00  0.00    +0.000 A 
ATOM     22  N   UNL     1       3.543   3.101  19.523  0.00  0.00    +0.000 NA
ENDBRANCH  16  17
ENDBRANCH   1  16
TORSDOF 6
ENDMDL
MODEL 4
REMARK VINA RESULT:      -7.1      1.271      1.767
REMARK  Name = 
REMARK  8 active torsions:
REMARK  status: ('A' for Active; 'I' for Inactive)
REMARK    1  A    between atoms: C_1  and  O_2
REMARK    2  A    between atoms: O_2  and  C_3
REMARK    3  A    between atoms: C_3  and  C_4
REMARK    4  A    between atoms: C_4  and  N_5
REMARK    5  A    between atoms: N_5  and  C_6
REMARK    6  A    between atoms: C_6  and  C_7
REMARK    7  A    between atoms: C_13  and  C_15
REMARK    8  A    between atoms: N_20  and  C_21
REMARK                            x       y       z     vdW  Elec       q    Type
REMARK                         _______ _______ _______ _____ _____    ______ ____
ROOT
ATOM      1  N   UNL     1       6.489   5.990  17.660  0.00  0.00    +0.000 N 
ATOM      2  C   UNL     1       5.839   5.431  18.770  0.00  0.00    +0.000 C 
ATOM      3  O   UNL     1       6.338   5.427  19.902  0.00  0.00    +0.000 OA
ENDROOT
BRANCH   2   4
ATOM      4  C   UNL     1       4.484   4.806  18.674  0.00  0.00    +0.000 A 
ATOM      5  C   UNL     1       3.262   5.500  18.363  0.00  0.00    +0.000 A 
ATOM      6  C   UNL     1       2.108   4.834  18.238  0.00  0.00    +0.000 A 
ATOM      7  C   UNL     1       2.076   3.346  18.318  0.00  0.00    +0.000 A 
ATOM      8  O   UNL     1       1.009   2.757  18.182  0.00  0.00    +0.000 OA
ATOM      9  N   UNL     1       3.313   2.729  18.493  0.00  0.00    +0.000 N 
ATOM     10  C   UNL     1       3.414   1.280  18.396  0.00  0.00    +0.000 C 
ATOM     11  C   UNL     1       4.474   3.456  18.690  0.00  0.00    +0.000 A 
ENDBRANCH   2   4
BRANCH   1  12
ATOM     12  C   UNL     1       7.803   6.677  17.862  0.00  0.00    +0.000 C 
BRANCH  12  13
ATOM     13  C   UNL     1       7.807   8.211  17.755  0.00  0.00    +0.000 C 
BRANCH  13  15
ATOM     14  C   UNL     1       8.804  10.240  18.257  0.00  0.00    +0.000 C 
ATOM     15  O   UNL     1       8.647   8.881  18.697  0.00  0.00    +0.000 OA
ENDBRANCH  13  15
ENDBRANCH  12  13
ENDBRANCH   1  12
BRANCH   1  16
ATOM     16  C   UNL     1       5.772   6.367  16.421  0.00  0.00    +0.000 C 
BRANCH  16  17
ATOM     17  C   UNL     1       5.953   5.507  15.176  0.00  0.00    +0.000 A 
ATOM     18  C   UNL     1       4.997   4.604  14.720  0.00  0.00    +0.000 A 
ATOM     19  C   UNL     1       5.316   3.743  13.665  0.00  0.00    +0.000 A 
ATOM     20  C   UNL     1       6.572   3.807  13.079  0.00  0.00    +0.000 A 
ATOM     21  C   UNL     1       7.459   4.750  13.561  0.00  0.00    +0.000 A 
ATOM     22  N   UNL     1       7.179   5.588  14.586  0.00  0.00    +0.000 NA
ENDBRANCH  16  17
ENDBRANCH   1  16
TORSDOF 6
ENDMDL
MODEL 5
REMARK VINA RESULT:      -7.1      3.417      5.356
REMARK  Name = 
REMARK  8 active torsions:
REMARK  status: ('A' for Active; 'I' for Inactive)
REMARK    1  A    between atoms: C_1  and  O_2
REMARK    2  A    between atoms: O_2  and  C_3
REMARK    3  A    between atoms: C_3  and  C_4
REMARK    4  A    between atoms: C_4  and  N_5
REMARK    5  A    between atoms: N_5  and  C_6
REMARK    6  A    between atoms: C_6  and  C_7
REMARK    7  A    between atoms: C_13  and  C_15
REMARK    8  A    between atoms: N_20  and  C_21
REMARK                            x       y       z     vdW  Elec       q    Type
REMARK                         _______ _______ _______ _____ _____    ______ ____
ROOT
ATOM      1  N   UNL     1       3.670   5.113  19.317  0.00  0.00    +0.000 N 
ATOM      2  C   UNL     1       2.478   5.749  19.697  0.00  0.00    +0.000 C 
ATOM      3  O   UNL     1       1.587   5.170  20.330  0.00  0.00    +0.000 OA
ENDROOT
BRANCH   2   4
ATOM      4  C   UNL     1       2.197   7.182  19.376  0.00  0.00    +0.000 A 
ATOM      5  C   UNL     1       2.262   7.774  18.065  0.00  0.00    +0.000 A 
ATOM      6  C   UNL     1       1.926   9.056  17.876  0.00  0.00    +0.000 A 
ATOM      7  C   UNL     1       1.383   9.875  18.997  0.00  0.00    +0.000 A 
ATOM      8  O   UNL     1       1.067  11.042  18.795  0.00  0.00    +0.000 OA
ATOM      9  N   UNL     1       1.227   9.202  20.208  0.00  0.00    +0.000 N 
ATOM     10  C   UNL     1       0.533   9.855  21.308  0.00  0.00    +0.000 C 
ATOM     11  C   UNL     1       1.652   7.897  20.382  0.00  0.00    +0.000 A 
ENDBRANCH   2   4
BRANCH   1  12
ATOM     12  C   UNL     1       3.910   3.703  19.758  0.00  0.00    +0.000 C 
BRANCH  12  13
ATOM     13  C   UNL     1       3.569   2.594  18.748  0.00  0.00    +0.000 C 
BRANCH  13  15
ATOM     14  C   UNL     1       1.278   2.314  18.558  0.00  0.00    +0.000 C 
ATOM     15  O   UNL     1       2.475   1.753  19.120  0.00  0.00    +0.000 OA
ENDBRANCH  13  15
ENDBRANCH  12  13
ENDBRANCH   1  12
BRANCH   1  16
ATOM     16  C   UNL     1       4.887   5.862  18.934  0.00  0.00    +0.000 C 
BRANCH  16  17
ATOM     17  C   UNL     1       5.531   5.579  17.583  0.00  0.00    +0.000 A 
ATOM     18  C   UNL     1       4.957   5.940  16.366  0.00  0.00    +0.000 A 
ATOM     19  C   UNL     1       5.540   5.495  15.175  0.00  0.00    +0.000 A 
ATOM     20  C   UNL     1       6.685   4.713  15.218  0.00  0.00    +0.000 A 
ATOM     21  C   UNL     1       7.217   4.421  16.459  0.00  0.00    +0.000 A 
ATOM     22  N   UNL     1       6.669   4.830  17.626  0.00  0.00    +0.000 NA
ENDBRANCH  16  17
ENDBRANCH   1  16
TORSDOF 6
ENDMDL
MODEL 6
REMARK VINA RESULT:      -6.9      2.920      6.830
REMARK  Name = 
REMARK  8 active torsions:
REMARK  status: ('A' for Active; 'I' for Inactive)
REMARK    1  A    between atoms: C_1  and  O_2
REMARK    2  A    between atoms: O_2  and  C_3
REMARK    3  A    between atoms: C_3  and  C_4
REMARK    4  A    between atoms: C_4  and  N_5
REMARK    5  A    between atoms: N_5  and  C_6
REMARK    6  A    between atoms: C_6  and  C_7
REMARK    7  A    between atoms: C_13  and  C_15
REMARK    8  A    between atoms: N_20  and  C_21
REMARK                            x       y       z     vdW  Elec       q    Type
REMARK                         _______ _______ _______ _____ _____    ______ ____
ROOT
ATOM      1  N   UNL     1       3.105   5.252  19.446  0.00  0.00    +0.000 N 
ATOM      2  C   UNL     1       4.205   4.415  19.207  0.00  0.00    +0.000 C 
ATOM      3  O   UNL     1       4.477   3.449  19.930  0.00  0.00    +0.000 OA
ENDROOT
BRANCH   2   4
ATOM      4  C   UNL     1       5.128   4.617  18.048  0.00  0.00    +0.000 A 
ATOM      5  C   UNL     1       5.031   3.953  16.775  0.00  0.00    +0.000 A 
ATOM      6  C   UNL     1       5.873   4.255  15.779  0.00  0.00    +0.000 A 
ATOM      7  C   UNL     1       6.868   5.355  15.930  0.00  0.00    +0.000 A 
ATOM      8  O   UNL     1       7.617   5.624  14.998  0.00  0.00    +0.000 OA
ATOM      9  N   UNL     1       6.823   6.040  17.143  0.00  0.00    +0.000 N 
ATOM     10  C   UNL     1       7.620   7.246  17.317  0.00  0.00    +0.000 C 
ATOM     11  C   UNL     1       5.985   5.652  18.174  0.00  0.00    +0.000 A 
ENDBRANCH   2   4
BRANCH   1  12
ATOM     12  C   UNL     1       2.179   4.924  20.575  0.00  0.00    +0.000 C 
BRANCH  12  13
ATOM     13  C   UNL     1       0.930   4.096  20.228  0.00  0.00    +0.000 C 
BRANCH  13  15
ATOM     14  C   UNL     1       1.630   2.512  21.766  0.00  0.00    +0.000 C 
ATOM     15  O   UNL     1       1.051   2.691  20.464  0.00  0.00    +0.000 OA
ENDBRANCH  13  15
ENDBRANCH  12  13
ENDBRANCH   1  12
BRANCH   1  16
ATOM     16  C   UNL     1       2.532   6.135  18.406  0.00  0.00    +0.000 C 
BRANCH  16  17
ATOM     17  C   UNL     1       2.149   7.561  18.780  0.00  0.00    +0.000 A 
ATOM     18  C   UNL     1       1.675   7.925  20.038  0.00  0.00    +0.000 A 
ATOM     19  C   UNL     1       1.196   9.224  20.240  0.00  0.00    +0.000 A 
ATOM     20  C   UNL     1       1.212  10.135  19.193  0.00  0.00    +0.000 A 
ATOM     21  C   UNL     1       1.727   9.714  17.982  0.00  0.00    +0.000 A 
ATOM     22  N   UNL     1       2.187   8.461  17.757  0.00  0.00    +0.000 NA
ENDBRANCH  16  17
ENDBRANCH   1  16
TORSDOF 6
ENDMDL
MODEL 7
REMARK VINA RESULT:      -6.9      2.684      6.672
REMARK  Name = 
REMARK  8 active torsions:
REMARK  status: ('A' for Active; 'I' for Inactive)
REMARK    1  A    between atoms: C_1  and  O_2
REMARK    2  A    between atoms: O_2  and  C_3
REMARK    3  A    between atoms: C_3  and  C_4
REMARK    4  A    between atoms: C_4  and  N_5
REMARK    5  A    between atoms: N_5  and  C_6
REMARK    6  A    between atoms: C_6  and  C_7
REMARK    7  A    between atoms: C_13  and  C_15
REMARK    8  A    between atoms: N_20  and  C_21
REMARK                            x       y       z     vdW  Elec       q    Type
REMARK                         _______ _______ _______ _____ _____    ______ ____
ROOT
ATOM      1  N   UNL     1       4.019   4.072  18.982  0.00  0.00    +0.000 N 
ATOM      2  C   UNL     1       4.309   3.550  17.714  0.00  0.00    +0.000 C 
ATOM      3  O   UNL     1       3.765   2.531  17.273  0.00  0.00    +0.000 OA
ENDROOT
BRANCH   2   4
ATOM      4  C   UNL     1       5.292   4.192  16.788  0.00  0.00    +0.000 A 
ATOM      5  C   UNL     1       6.436   4.969  17.189  0.00  0.00    +0.000 A 
ATOM      6  C   UNL     1       7.293   5.447  16.279  0.00  0.00    +0.000 A 
ATOM      7  C   UNL     1       7.140   5.104  14.837  0.00  0.00    +0.000 A 
ATOM      8  O   UNL     1       7.948   5.540  14.024  0.00  0.00    +0.000 OA
ATOM      9  N   UNL     1       6.086   4.244  14.534  0.00  0.00    +0.000 N 
ATOM     10  C   UNL     1       5.966   3.700  13.189  0.00  0.00    +0.000 C 
ATOM     11  C   UNL     1       5.180   3.828  15.493  0.00  0.00    +0.000 A 
ENDBRANCH   2   4
BRANCH   1  12
ATOM     12  C   UNL     1       2.956   3.419  19.808  0.00  0.00    +0.000 C 
BRANCH  12  13
ATOM     13  C   UNL     1       3.428   2.452  20.907  0.00  0.00    +0.000 C 
BRANCH  13  15
ATOM     14  C   UNL     1       1.282   2.745  21.725  0.00  0.00    +0.000 C 
ATOM     15  O   UNL     1       2.638   2.456  22.098  0.00  0.00    +0.000 OA
ENDBRANCH  13  15
ENDBRANCH  12  13
ENDBRANCH   1  12
BRANCH   1  16
ATOM     16  C   UNL     1       4.335   5.468  19.363  0.00  0.00    +0.000 C 
BRANCH  16  17
ATOM     17  C   UNL     1       3.346   6.569  19.004  0.00  0.00    +0.000 A 
ATOM     18  C   UNL     1       3.369   7.260  17.795  0.00  0.00    +0.000 A 
ATOM     19  C   UNL     1       2.527   8.363  17.620  0.00  0.00    +0.000 A 
ATOM     20  C   UNL     1       1.672   8.747  18.643  0.00  0.00    +0.000 A 
ATOM     21  C   UNL     1       1.680   7.996  19.803  0.00  0.00    +0.000 A 
ATOM     22  N   UNL     1       2.491   6.931  20.002  0.00  0.00    +0.000 NA
ENDBRANCH  16  17
ENDBRANCH   1  16
TORSDOF 6
ENDMDL
MODEL 8
REMARK VINA RESULT:      -6.9      3.347      5.462
REMARK  Name = 
REMARK  8 active torsions:
REMARK  status: ('A' for Active; 'I' for Inactive)
REMARK    1  A    between atoms: C_1  and  O_2
REMARK    2  A    between atoms: O_2  and  C_3
REMARK    3  A    between atoms: C_3  and  C_4
REMARK    4  A    between atoms: C_4  and  N_5
REMARK    5  A    between atoms: N_5  and  C_6
REMARK    6  A    between atoms: C_6  and  C_7
REMARK    7  A    between atoms: C_13  and  C_15
REMARK    8  A    between atoms: N_20  and  C_21
REMARK                            x       y       z     vdW  Elec       q    Type
REMARK                         _______ _______ _______ _____ _____    ______ ____
ROOT
ATOM      1  N   UNL     1       3.519   4.912  19.651  0.00  0.00    +0.000 N 
ATOM      2  C   UNL     1       2.342   5.633  19.901  0.00  0.00    +0.000 C 
ATOM      3  O   UNL     1       1.377   5.146  20.501  0.00  0.00    +0.000 OA
ENDROOT
BRANCH   2   4
ATOM      4  C   UNL     1       2.167   7.055  19.471  0.00  0.00    +0.000 A 
ATOM      5  C   UNL     1       2.346   7.552  18.132  0.00  0.00    +0.000 A 
ATOM      6  C   UNL     1       2.100   8.835  17.839  0.00  0.00    +0.000 A 
ATOM      7  C   UNL     1       1.539   9.756  18.867  0.00  0.00    +0.000 A 
ATOM      8  O   UNL     1       1.306  10.922  18.570  0.00  0.00    +0.000 OA
ATOM      9  N   UNL     1       1.270   9.177  20.107  0.00  0.00    +0.000 N 
ATOM     10  C   UNL     1       0.549   9.941  21.115  0.00  0.00    +0.000 C 
ATOM     11  C   UNL     1       1.605   7.865  20.391  0.00  0.00    +0.000 A 
ENDBRANCH   2   4
BRANCH   1  12
ATOM     12  C   UNL     1       3.647   3.524  20.196  0.00  0.00    +0.000 C 
BRANCH  12  13
ATOM     13  C   UNL     1       3.347   2.369  19.226  0.00  0.00    +0.000 C 
BRANCH  13  15
ATOM     14  C   UNL     1       1.096   2.259  18.694  0.00  0.00    +0.000 C 
ATOM     15  O   UNL     1       2.385   2.665  18.211  0.00  0.00    +0.000 OA
ENDBRANCH  13  15
ENDBRANCH  12  13
ENDBRANCH   1  12
BRANCH   1  16
ATOM     16  C   UNL     1       4.802   5.569  19.312  0.00  0.00    +0.000 C 
BRANCH  16  17
ATOM     17  C   UNL     1       5.547   5.126  18.060  0.00  0.00    +0.000 A 
ATOM     18  C   UNL     1       6.910   4.839  18.036  0.00  0.00    +0.000 A 
ATOM     19  C   UNL     1       7.538   4.598  16.811  0.00  0.00    +0.000 A 
ATOM     20  C   UNL     1       6.798   4.633  15.638  0.00  0.00    +0.000 A 
ATOM     21  C   UNL     1       5.445   4.891  15.740  0.00  0.00    +0.000 A 
ATOM     22  N   UNL     1       4.813   5.138  16.911  0.00  0.00    +0.000 NA
ENDBRANCH  16  17
ENDBRANCH   1  16
TORSDOF 6
ENDMDL
MODEL 9
REMARK VINA RESULT:      -6.9      2.699      6.699
REMARK  Name = 
REMARK  8 active torsions:
REMARK  status: ('A' for Active; 'I' for Inactive)
REMARK    1  A    between atoms: C_1  and  O_2
REMARK    2  A    between atoms: O_2  and  C_3
REMARK    3  A    between atoms: C_3  and  C_4
REMARK    4  A    between atoms: C_4  and  N_5
REMARK    5  A    between atoms: N_5  and  C_6
REMARK    6  A    between atoms: C_6  and  C_7
REMARK    7  A    between atoms: C_13  and  C_15
REMARK    8  A    between atoms: N_20  and  C_21
REMARK                            x       y       z     vdW  Elec       q    Type
REMARK                         _______ _______ _______ _____ _____    ______ ____
ROOT
ATOM      1  N   UNL     1       2.705   4.414  18.773  0.00  0.00    +0.000 N 
ATOM      2  C   UNL     1       3.063   3.801  17.564  0.00  0.00    +0.000 C 
ATOM      3  O   UNL     1       2.353   2.953  17.011  0.00  0.00    +0.000 OA
ENDROOT
BRANCH   2   4
ATOM      4  C   UNL     1       4.329   4.134  16.842  0.00  0.00    +0.000 A 
ATOM      5  C   UNL     1       4.435   4.453  15.442  0.00  0.00    +0.000 A 
ATOM      6  C   UNL     1       5.611   4.802  14.906  0.00  0.00    +0.000 A 
ATOM      7  C   UNL     1       6.820   4.964  15.762  0.00  0.00    +0.000 A 
ATOM      8  O   UNL     1       7.882   5.301  15.250  0.00  0.00    +0.000 OA
ATOM      9  N   UNL     1       6.618   4.763  17.127  0.00  0.00    +0.000 N 
ATOM     10  C   UNL     1       7.685   5.080  18.065  0.00  0.00    +0.000 C 
ATOM     11  C   UNL     1       5.404   4.335  17.633  0.00  0.00    +0.000 A 
ENDBRANCH   2   4
BRANCH   1  12
ATOM     12  C   UNL     1       1.377   4.090  19.383  0.00  0.00    +0.000 C 
BRANCH  12  13
ATOM     13  C   UNL     1       1.308   4.064  20.919  0.00  0.00    +0.000 C 
BRANCH  13  15
ATOM     14  C   UNL     1       2.616   2.290  21.630  0.00  0.00    +0.000 C 
ATOM     15  O   UNL     1       1.265   2.759  21.501  0.00  0.00    +0.000 OA
ENDBRANCH  13  15
ENDBRANCH  12  13
ENDBRANCH   1  12
BRANCH   1  16
ATOM     16  C   UNL     1       3.309   5.684  19.235  0.00  0.00    +0.000 C 
BRANCH  16  17
ATOM     17  C   UNL     1       2.542   6.983  19.025  0.00  0.00    +0.000 A 
ATOM     18  C   UNL     1       2.530   7.684  17.821  0.00  0.00    +0.000 A 
ATOM     19  C   UNL     1       1.933   8.947  17.770  0.00  0.00    +0.000 A 
ATOM     20  C   UNL     1       1.349   9.481  18.910  0.00  0.00    +0.000 A 
ATOM     21  C   UNL     1       1.369   8.716  20.060  0.00  0.00    +0.000 A 
ATOM     22  N   UNL     1       1.949   7.496  20.140  0.00  0.00    +0.000 NA
ENDBRANCH  16  17
ENDBRANCH   1  16
TORSDOF 6
ENDMDL
