MODEL 1
REMARK VINA RESULT:      -8.0      0.000      0.000
REMARK  Name = 
REMARK  6 active torsions:
REMARK  status: ('A' for Active; 'I' for Inactive)
REMARK    1  A    between atoms: C_2  and  C_3
REMARK    2  A    between atoms: C_3  and  C_4
REMARK    3  A    between atoms: C_4  and  C_5
REMARK    4  A    between atoms: C_5  and  C_6
REMARK    5  A    between atoms: C_8  and  C_9
REMARK    6  A    between atoms: N_18  and  C_19
REMARK                            x       y       z     vdW  Elec       q    Type
REMARK                         _______ _______ _______ _____ _____    ______ ____
ROOT
ATOM      1  C   UNL     1       7.760   6.519  18.345  0.00  0.00    +0.000 C 
ENDROOT
BRANCH   1   2
ATOM      2  C   UNL     1       7.142   6.268  17.041  0.00  0.00    +0.000 A 
ATOM      3  N   UNL     1       7.466   5.377  16.140  0.00  0.00    +0.000 NA
ATOM      4  C   UNL     1       6.504   5.589  15.180  0.00  0.00    +0.000 A 
ATOM      5  N   UNL     1       5.674   6.605  15.456  0.00  0.00    +0.000 NA
ATOM      6  O   UNL     1       6.083   7.044  16.699  0.00  0.00    +0.000 OA
BRANCH   4   7
ATOM      7  C   UNL     1       6.436   4.746  14.002  0.00  0.00    +0.000 A 
ATOM      8  C   UNL     1       5.360   3.839  13.901  0.00  0.00    +0.000 A 
ATOM      9  C   UNL     1       5.214   3.036  12.769  0.00  0.00    +0.000 A 
ATOM     10  C   UNL     1       6.133   3.138  11.729  0.00  0.00    +0.000 A 
ATOM     11  C   UNL     1       7.203   4.028  11.822  0.00  0.00    +0.000 A 
ATOM     12  C   UNL     1       7.366   4.823  12.959  0.00  0.00    +0.000 A 
ATOM     13 CL   UNL     1       8.728   5.892  12.968  0.00  0.00    +0.000 Cl
ENDBRANCH   4   7
ENDBRANCH   1   2
BRANCH   1  14
ATOM     14  C   UNL     1       7.190   5.601  19.407  0.00  0.00    +0.000 C 
BRANCH  14  15
ATOM     15  C   UNL     1       5.660   5.642  19.368  0.00  0.00    +0.000 C 
BRANCH  15  17
ATOM     16  O   UNL     1       5.592   3.247  19.232  0.00  0.00    +0.000 OA
ATOM     17  C   UNL     1       4.977   4.287  19.163  0.00  0.00    +0.000 C 
ATOM     18  N   UNL     1       3.614   4.348  18.934  0.00  0.00    +0.000 N 
ATOM     19  H   UNL     1       3.306   5.276  18.664  0.00  0.00    +0.000 HD
BRANCH  18  20
ATOM     20  C   UNL     1       2.692   3.243  18.646  0.00  0.00    +0.000 C 
ATOM     21  C   UNL     1       2.797   2.023  19.584  0.00  0.00    +0.000 C 
ATOM     22  C   UNL     1       2.593   2.447  21.038  0.00  0.00    +0.000 C 
ATOM     23  C   UNL     1       1.190   3.019  21.226  0.00  0.00    +0.000 C 
ATOM     24  C   UNL     1       0.893   4.142  20.228  0.00  0.00    +0.000 C 
ATOM     25  C   UNL     1       1.243   3.768  18.778  0.00  0.00    +0.000 C 
ENDBRANCH  18  20
ENDBRANCH  15  17
ENDBRANCH  14  15
ENDBRANCH   1  14
TORSDOF 6
ENDMDL
MODEL 2
REMARK VINA RESULT:      -7.9      4.115      8.509
REMARK  Name = 
REMARK  6 active torsions:
REMARK  status: ('A' for Active; 'I' for Inactive)
REMARK    1  A    between atoms: C_2  and  C_3
REMARK    2  A    between atoms: C_3  and  C_4
REMARK    3  A    between atoms: C_4  and  C_5
REMARK    4  A    between atoms: C_5  and  C_6
REMARK    5  A    between atoms: C_8  and  C_9
REMARK    6  A    between atoms: N_18  and  C_19
REMARK                            x       y       z     vdW  Elec       q    Type
REMARK                         _______ _______ _______ _____ _____    ______ ____
ROOT
ATOM      1  C   UNL     1       7.410   5.862  18.570  0.00  0.00    +0.000 C 
ENDROOT
BRANCH   1   2
ATOM      2  C   UNL     1       5.969   5.601  18.568  0.00  0.00    +0.000 A 
ATOM      3  N   UNL     1       5.313   4.632  19.151  0.00  0.00    +0.000 NA
ATOM      4  C   UNL     1       4.011   4.950  18.840  0.00  0.00    +0.000 A 
ATOM      5  N   UNL     1       3.888   6.028  18.052  0.00  0.00    +0.000 NA
ATOM      6  O   UNL     1       5.183   6.473  17.886  0.00  0.00    +0.000 OA
BRANCH   4   7
ATOM      7  C   UNL     1       2.912   4.162  19.362  0.00  0.00    +0.000 A 
ATOM      8  C   UNL     1       2.573   4.319  20.722  0.00  0.00    +0.000 A 
ATOM      9  C   UNL     1       1.494   3.623  21.269  0.00  0.00    +0.000 A 
ATOM     10  C   UNL     1       0.743   2.774  20.463  0.00  0.00    +0.000 A 
ATOM     11  C   UNL     1       1.073   2.607  19.118  0.00  0.00    +0.000 A 
ATOM     12  C   UNL     1       2.162   3.287  18.567  0.00  0.00    +0.000 A 
ATOM     13 CL   UNL     1       2.481   3.007  16.889  0.00  0.00    +0.000 Cl
ENDBRANCH   4   7
ENDBRANCH   1   2
BRANCH   1  14
ATOM     14  C   UNL     1       7.742   7.110  17.777  0.00  0.00    +0.000 C 
BRANCH  14  15
ATOM     15  C   UNL     1       8.544   8.083  18.644  0.00  0.00    +0.000 C 
BRANCH  15  17
ATOM     16  O   UNL     1       7.597   9.940  17.453  0.00  0.00    +0.000 OA
ATOM     17  C   UNL     1       8.424   9.559  18.249  0.00  0.00    +0.000 C 
ATOM     18  N   UNL     1       9.301  10.410  18.897  0.00  0.00    +0.000 N 
ATOM     19  H   UNL     1      10.074   9.917  19.331  0.00  0.00    +0.000 HD
BRANCH  18  20
ATOM     20  C   UNL     1       9.475  11.854  18.701  0.00  0.00    +0.000 C 
ATOM     21  C   UNL     1       9.783  12.669  19.974  0.00  0.00    +0.000 C 
ATOM     22  C   UNL     1      11.033  12.128  20.667  0.00  0.00    +0.000 C 
ATOM     23  C   UNL     1      12.246  12.279  19.751  0.00  0.00    +0.000 C 
ATOM     24  C   UNL     1      12.005  11.651  18.376  0.00  0.00    +0.000 C 
ATOM     25  C   UNL     1      10.669  12.078  17.744  0.00  0.00    +0.000 C 
ENDBRANCH  18  20
ENDBRANCH  15  17
ENDBRANCH  14  15
ENDBRANCH   1  14
TORSDOF 6
ENDMDL
MODEL 3
REMARK VINA RESULT:      -7.9      5.016      7.870
REMARK  Name = 
REMARK  6 active torsions:
REMARK  status: ('A' for Active; 'I' for Inactive)
REMARK    1  A    between atoms: C_2  and  C_3
REMARK    2  A    between atoms: C_3  and  C_4
REMARK    3  A    between atoms: C_4  and  C_5
REMARK    4  A    between atoms: C_5  and  C_6
REMARK    5  A    between atoms: C_8  and  C_9
REMARK    6  A    between atoms: N_18  and  C_19
REMARK                            x       y       z     vdW  Elec       q    Type
REMARK                         _______ _______ _______ _____ _____    ______ ____
ROOT
ATOM      1  C   UNL     1       3.358   7.928  17.518  0.00  0.00    +0.000 C 
ENDROOT
BRANCH   1   2
ATOM      2  C   UNL     1       2.253   8.634  18.170  0.00  0.00    +0.000 A 
ATOM      3  N   UNL     1       1.919   8.639  19.434  0.00  0.00    +0.000 NA
ATOM      4  C   UNL     1       0.857   9.513  19.439  0.00  0.00    +0.000 A 
ATOM      5  N   UNL     1       0.522   9.968  18.223  0.00  0.00    +0.000 NA
ATOM      6  O   UNL     1       1.459   9.402  17.383  0.00  0.00    +0.000 OA
BRANCH   4   7
ATOM      7  C   UNL     1       0.208   9.882  20.681  0.00  0.00    +0.000 A 
ATOM      8  C   UNL     1       0.182   8.929  21.722  0.00  0.00    +0.000 A 
ATOM      9  C   UNL     1      -0.386   9.244  22.957  0.00  0.00    +0.000 A 
ATOM     10  C   UNL     1      -0.923  10.510  23.166  0.00  0.00    +0.000 A 
ATOM     11  C   UNL     1      -0.907  11.458  22.142  0.00  0.00    +0.000 A 
ATOM     12  C   UNL     1      -0.356  11.145  20.897  0.00  0.00    +0.000 A 
ATOM     13 CL   UNL     1      -0.389  12.395  19.700  0.00  0.00    +0.000 Cl
ENDBRANCH   4   7
ENDBRANCH   1   2
BRANCH   1  14
ATOM     14  C   UNL     1       3.387   6.467  17.918  0.00  0.00    +0.000 C 
BRANCH  14  15
ATOM     15  C   UNL     1       4.766   6.103  18.472  0.00  0.00    +0.000 C 
BRANCH  15  17
ATOM     16  O   UNL     1       5.938   4.110  19.118  0.00  0.00    +0.000 OA
ATOM     17  C   UNL     1       4.880   4.695  19.065  0.00  0.00    +0.000 C 
ATOM     18  N   UNL     1       3.699   4.173  19.559  0.00  0.00    +0.000 N 
ATOM     19  H   UNL     1       2.881   4.668  19.220  0.00  0.00    +0.000 HD
BRANCH  18  20
ATOM     20  C   UNL     1       3.465   2.842  20.132  0.00  0.00    +0.000 C 
ATOM     21  C   UNL     1       2.307   2.745  21.146  0.00  0.00    +0.000 C 
ATOM     22  C   UNL     1       1.001   3.227  20.515  0.00  0.00    +0.000 C 
ATOM     23  C   UNL     1       0.625   2.330  19.338  0.00  0.00    +0.000 C 
ATOM     24  C   UNL     1       1.767   2.204  18.327  0.00  0.00    +0.000 C 
ATOM     25  C   UNL     1       3.117   1.868  18.983  0.00  0.00    +0.000 C 
ENDBRANCH  18  20
ENDBRANCH  15  17
ENDBRANCH  14  15
ENDBRANCH   1  14
TORSDOF 6
ENDMDL
MODEL 4
REMARK VINA RESULT:      -7.9      4.375      8.563
REMARK  Name = 
REMARK  6 active torsions:
REMARK  status: ('A' for Active; 'I' for Inactive)
REMARK    1  A    between atoms: C_2  and  C_3
REMARK    2  A    between atoms: C_3  and  C_4
REMARK    3  A    between atoms: C_4  and  C_5
REMARK    4  A    between atoms: C_5  and  C_6
REMARK    5  A    between atoms: C_8  and  C_9
REMARK    6  A    between atoms: N_18  and  C_19
REMARK                            x       y       z     vdW  Elec       q    Type
REMARK                         _______ _______ _______ _____ _____    ______ ____
ROOT
ATOM      1  C   UNL     1       7.280   6.609  17.135  0.00  0.00    +0.000 C 
ENDROOT
BRANCH   1   2
ATOM      2  C   UNL     1       5.885   6.331  17.483  0.00  0.00    +0.000 A 
ATOM      3  N   UNL     1       5.401   5.356  18.207  0.00  0.00    +0.000 NA
ATOM      4  C   UNL     1       4.059   5.659  18.222  0.00  0.00    +0.000 A 
ATOM      5  N   UNL     1       3.736   6.733  17.487  0.00  0.00    +0.000 NA
ATOM      6  O   UNL     1       4.947   7.192  17.013  0.00  0.00    +0.000 OA
BRANCH   4   7
ATOM      7  C   UNL     1       3.129   4.859  18.994  0.00  0.00    +0.000 A 
ATOM      8  C   UNL     1       2.394   5.500  20.013  0.00  0.00    +0.000 A 
ATOM      9  C   UNL     1       1.448   4.794  20.757  0.00  0.00    +0.000 A 
ATOM     10  C   UNL     1       1.223   3.448  20.486  0.00  0.00    +0.000 A 
ATOM     11  C   UNL     1       1.949   2.803  19.484  0.00  0.00    +0.000 A 
ATOM     12  C   UNL     1       2.910   3.499  18.746  0.00  0.00    +0.000 A 
ATOM     13 CL   UNL     1       3.750   2.601  17.528  0.00  0.00    +0.000 Cl
ENDBRANCH   4   7
ENDBRANCH   1   2
BRANCH   1  14
ATOM     14  C   UNL     1       7.945   7.477  18.185  0.00  0.00    +0.000 C 
BRANCH  14  15
ATOM     15  C   UNL     1       8.187   8.881  17.626  0.00  0.00    +0.000 C 
BRANCH  15  17
ATOM     16  O   UNL     1       9.089   9.560  19.744  0.00  0.00    +0.000 OA
ATOM     17  C   UNL     1       8.776   9.886  18.621  0.00  0.00    +0.000 C 
ATOM     18  N   UNL     1       8.950  11.164  18.126  0.00  0.00    +0.000 N 
ATOM     19  H   UNL     1       8.421  11.330  17.276  0.00  0.00    +0.000 HD
BRANCH  18  20
ATOM     20  C   UNL     1       9.432  12.355  18.836  0.00  0.00    +0.000 C 
ATOM     21  C   UNL     1      10.758  12.183  19.606  0.00  0.00    +0.000 C 
ATOM     22  C   UNL     1      11.865  11.708  18.666  0.00  0.00    +0.000 C 
ATOM     23  C   UNL     1      12.123  12.758  17.588  0.00  0.00    +0.000 C 
ATOM     24  C   UNL     1      10.838  13.148  16.851  0.00  0.00    +0.000 C 
ATOM     25  C   UNL     1       9.675  13.478  17.801  0.00  0.00    +0.000 C 
ENDBRANCH  18  20
ENDBRANCH  15  17
ENDBRANCH  14  15
ENDBRANCH   1  14
TORSDOF 6
ENDMDL
MODEL 5
REMARK VINA RESULT:      -7.9      3.701      7.478
REMARK  Name = 
REMARK  6 active torsions:
REMARK  status: ('A' for Active; 'I' for Inactive)
REMARK    1  A    between atoms: C_2  and  C_3
REMARK    2  A    between atoms: C_3  and  C_4
REMARK    3  A    between atoms: C_4  and  C_5
REMARK    4  A    between atoms: C_5  and  C_6
REMARK    5  A    between atoms: C_8  and  C_9
REMARK    6  A    between atoms: N_18  and  C_19
REMARK                            x       y       z     vdW  Elec       q    Type
REMARK                         _______ _______ _______ _____ _____    ______ ____
ROOT
ATOM      1  C   UNL     1       2.484   3.390  20.884  0.00  0.00    +0.000 C 
ENDROOT
BRANCH   1   2
ATOM      2  C   UNL     1       2.468   4.804  20.506  0.00  0.00    +0.000 A 
ATOM      3  N   UNL     1       1.557   5.707  20.755  0.00  0.00    +0.000 NA
ATOM      4  C   UNL     1       2.122   6.835  20.206  0.00  0.00    +0.000 A 
ATOM      5  N   UNL     1       3.294   6.612  19.594  0.00  0.00    +0.000 NA
ATOM      6  O   UNL     1       3.536   5.271  19.809  0.00  0.00    +0.000 OA
BRANCH   4   7
ATOM      7  C   UNL     1       1.468   8.123  20.323  0.00  0.00    +0.000 A 
ATOM      8  C   UNL     1       0.932   8.480  21.579  0.00  0.00    +0.000 A 
ATOM      9  C   UNL     1       0.334   9.727  21.765  0.00  0.00    +0.000 A 
ATOM     10  C   UNL     1       0.272  10.627  20.706  0.00  0.00    +0.000 A 
ATOM     11  C   UNL     1       0.793  10.281  19.459  0.00  0.00    +0.000 A 
ATOM     12  C   UNL     1       1.379   9.028  19.259  0.00  0.00    +0.000 A 
ATOM     13 CL   UNL     1       1.993   8.705  17.674  0.00  0.00    +0.000 Cl
ENDBRANCH   4   7
ENDBRANCH   1   2
BRANCH   1  14
ATOM     14  C   UNL     1       2.059   2.508  19.728  0.00  0.00    +0.000 C 
BRANCH  14  15
ATOM     15  C   UNL     1       3.262   2.201  18.833  0.00  0.00    +0.000 C 
BRANCH  15  17
ATOM     16  O   UNL     1       2.378   3.231  16.853  0.00  0.00    +0.000 OA
ATOM     17  C   UNL     1       3.348   3.032  17.549  0.00  0.00    +0.000 C 
ATOM     18  N   UNL     1       4.598   3.557  17.276  0.00  0.00    +0.000 N 
ATOM     19  H   UNL     1       5.336   3.103  17.803  0.00  0.00    +0.000 HD
BRANCH  18  20
ATOM     20  C   UNL     1       5.017   4.340  16.107  0.00  0.00    +0.000 C 
ATOM     21  C   UNL     1       4.921   5.872  16.259  0.00  0.00    +0.000 C 
ATOM     22  C   UNL     1       5.735   6.342  17.464  0.00  0.00    +0.000 C 
ATOM     23  C   UNL     1       7.213   6.018  17.257  0.00  0.00    +0.000 C 
ATOM     24  C   UNL     1       7.433   4.539  16.927  0.00  0.00    +0.000 C 
ATOM     25  C   UNL     1       6.503   4.026  15.814  0.00  0.00    +0.000 C 
ENDBRANCH  18  20
ENDBRANCH  15  17
ENDBRANCH  14  15
ENDBRANCH   1  14
TORSDOF 6
ENDMDL
MODEL 6
REMARK VINA RESULT:      -7.8      4.493      8.715
REMARK  Name = 
REMARK  6 active torsions:
REMARK  status: ('A' for Active; 'I' for Inactive)
REMARK    1  A    between atoms: C_2  and  C_3
REMARK    2  A    between atoms: C_3  and  C_4
REMARK    3  A    between atoms: C_4  and  C_5
REMARK    4  A    between atoms: C_5  and  C_6
REMARK    5  A    between atoms: C_8  and  C_9
REMARK    6  A    between atoms: N_18  and  C_19
REMARK                            x       y       z     vdW  Elec       q    Type
REMARK                         _______ _______ _______ _____ _____    ______ ____
ROOT
ATOM      1  C   UNL     1       7.662   6.610  18.159  0.00  0.00    +0.000 C 
ENDROOT
BRANCH   1   2
ATOM      2  C   UNL     1       6.289   6.106  18.086  0.00  0.00    +0.000 A 
ATOM      3  N   UNL     1       5.610   5.447  18.988  0.00  0.00    +0.000 NA
ATOM      4  C   UNL     1       4.389   5.306  18.372  0.00  0.00    +0.000 A 
ATOM      5  N   UNL     1       4.348   5.801  17.126  0.00  0.00    +0.000 NA
ATOM      6  O   UNL     1       5.601   6.350  16.942  0.00  0.00    +0.000 OA
BRANCH   4   7
ATOM      7  C   UNL     1       3.278   4.682  19.063  0.00  0.00    +0.000 A 
ATOM      8  C   UNL     1       2.545   5.467  19.978  0.00  0.00    +0.000 A 
ATOM      9  C   UNL     1       1.436   4.936  20.638  0.00  0.00    +0.000 A 
ATOM     10  C   UNL     1       1.046   3.625  20.385  0.00  0.00    +0.000 A 
ATOM     11  C   UNL     1       1.768   2.839  19.487  0.00  0.00    +0.000 A 
ATOM     12  C   UNL     1       2.890   3.357  18.835  0.00  0.00    +0.000 A 
ATOM     13 CL   UNL     1       3.709   2.295  17.741  0.00  0.00    +0.000 Cl
ENDBRANCH   4   7
ENDBRANCH   1   2
BRANCH   1  14
ATOM     14  C   UNL     1       7.773   7.989  17.541  0.00  0.00    +0.000 C 
BRANCH  14  15
ATOM     15  C   UNL     1       8.482   8.941  18.508  0.00  0.00    +0.000 C 
BRANCH  15  17
ATOM     16  O   UNL     1       7.823  10.999  17.463  0.00  0.00    +0.000 OA
ATOM     17  C   UNL     1       8.713  10.358  17.975  0.00  0.00    +0.000 C 
ATOM     18  N   UNL     1       9.992  10.850  18.159  0.00  0.00    +0.000 N 
ATOM     19  H   UNL     1      10.664  10.120  18.369  0.00  0.00    +0.000 HD
BRANCH  18  20
ATOM     20  C   UNL     1      10.542  12.137  17.716  0.00  0.00    +0.000 C 
ATOM     21  C   UNL     1       9.805  13.391  18.228  0.00  0.00    +0.000 C 
ATOM     22  C   UNL     1       9.754  13.396  19.755  0.00  0.00    +0.000 C 
ATOM     23  C   UNL     1      11.169  13.461  20.326  0.00  0.00    +0.000 C 
ATOM     24  C   UNL     1      12.064  12.355  19.760  0.00  0.00    +0.000 C 
ATOM     25  C   UNL     1      11.997  12.250  18.227  0.00  0.00    +0.000 C 
ENDBRANCH  18  20
ENDBRANCH  15  17
ENDBRANCH  14  15
ENDBRANCH   1  14
TORSDOF 6
ENDMDL
MODEL 7
REMARK VINA RESULT:      -7.8      4.015      8.387
REMARK  Name = 
REMARK  6 active torsions:
REMARK  status: ('A' for Active; 'I' for Inactive)
REMARK    1  A    between atoms: C_2  and  C_3
REMARK    2  A    between atoms: C_3  and  C_4
REMARK    3  A    between atoms: C_4  and  C_5
REMARK    4  A    between atoms: C_5  and  C_6
REMARK    5  A    between atoms: C_8  and  C_9
REMARK    6  A    between atoms: N_18  and  C_19
REMARK                            x       y       z     vdW  Elec       q    Type
REMARK                         _______ _______ _______ _____ _____    ______ ____
ROOT
ATOM      1  C   UNL     1       6.291   7.078  17.351  0.00  0.00    +0.000 C 
ENDROOT
BRANCH   1   2
ATOM      2  C   UNL     1       5.631   6.004  18.097  0.00  0.00    +0.000 A 
ATOM      3  N   UNL     1       4.353   5.809  18.291  0.00  0.00    +0.000 NA
ATOM      4  C   UNL     1       4.355   4.632  19.002  0.00  0.00    +0.000 A 
ATOM      5  N   UNL     1       5.581   4.167  19.281  0.00  0.00    +0.000 NA
ATOM      6  O   UNL     1       6.429   5.065  18.665  0.00  0.00    +0.000 OA
BRANCH   4   7
ATOM      7  C   UNL     1       3.109   3.990  19.375  0.00  0.00    +0.000 A 
ATOM      8  C   UNL     1       2.307   4.622  20.349  0.00  0.00    +0.000 A 
ATOM      9  C   UNL     1       1.075   4.078  20.714  0.00  0.00    +0.000 A 
ATOM     10  C   UNL     1       0.632   2.907  20.106  0.00  0.00    +0.000 A 
ATOM     11  C   UNL     1       1.420   2.272  19.146  0.00  0.00    +0.000 A 
ATOM     12  C   UNL     1       2.663   2.801  18.788  0.00  0.00    +0.000 A 
ATOM     13 CL   UNL     1       3.557   1.932  17.587  0.00  0.00    +0.000 Cl
ENDBRANCH   4   7
ENDBRANCH   1   2
BRANCH   1  14
ATOM     14  C   UNL     1       7.798   6.959  17.439  0.00  0.00    +0.000 C 
BRANCH  14  15
ATOM     15  C   UNL     1       8.342   7.946  18.475  0.00  0.00    +0.000 C 
BRANCH  15  17
ATOM     16  O   UNL     1       7.605   9.801  17.142  0.00  0.00    +0.000 OA
ATOM     17  C   UNL     1       8.295   9.420  18.059  0.00  0.00    +0.000 C 
ATOM     18  N   UNL     1       9.067  10.269  18.831  0.00  0.00    +0.000 N 
ATOM     19  H   UNL     1       9.760   9.774  19.382  0.00  0.00    +0.000 HD
BRANCH  18  20
ATOM     20  C   UNL     1       9.280  11.711  18.657  0.00  0.00    +0.000 C 
ATOM     21  C   UNL     1       9.492  12.516  19.955  0.00  0.00    +0.000 C 
ATOM     22  C   UNL     1      10.671  11.953  20.748  0.00  0.00    +0.000 C 
ATOM     23  C   UNL     1      11.959  12.087  19.939  0.00  0.00    +0.000 C 
ATOM     24  C   UNL     1      11.825  11.468  18.545  0.00  0.00    +0.000 C 
ATOM     25  C   UNL     1      10.554  11.919  17.805  0.00  0.00    +0.000 C 
ENDBRANCH  18  20
ENDBRANCH  15  17
ENDBRANCH  14  15
ENDBRANCH   1  14
TORSDOF 6
ENDMDL
MODEL 8
REMARK VINA RESULT:      -7.7      5.557      7.700
REMARK  Name = 
REMARK  6 active torsions:
REMARK  status: ('A' for Active; 'I' for Inactive)
REMARK    1  A    between atoms: C_2  and  C_3
REMARK    2  A    between atoms: C_3  and  C_4
REMARK    3  A    between atoms: C_4  and  C_5
REMARK    4  A    between atoms: C_5  and  C_6
REMARK    5  A    between atoms: C_8  and  C_9
REMARK    6  A    between atoms: N_18  and  C_19
REMARK                            x       y       z     vdW  Elec       q    Type
REMARK                         _______ _______ _______ _____ _____    ______ ____
ROOT
ATOM      1  C   UNL     1       7.939   8.784  17.638  0.00  0.00    +0.000 C 
ENDROOT
BRANCH   1   2
ATOM      2  C   UNL     1       8.611   9.932  18.250  0.00  0.00    +0.000 A 
ATOM      3  N   UNL     1       8.690  11.162  17.813  0.00  0.00    +0.000 NA
ATOM      4  C   UNL     1       9.385  11.775  18.829  0.00  0.00    +0.000 A 
ATOM      5  N   UNL     1       9.767  10.941  19.808  0.00  0.00    +0.000 NA
ATOM      6  O   UNL     1       9.238   9.723  19.436  0.00  0.00    +0.000 OA
BRANCH   4   7
ATOM      7  C   UNL     1       9.639  13.202  18.796  0.00  0.00    +0.000 A 
ATOM      8  C   UNL     1      10.404  13.712  17.725  0.00  0.00    +0.000 A 
ATOM      9  C   UNL     1      10.641  15.082  17.613  0.00  0.00    +0.000 A 
ATOM     10  C   UNL     1      10.111  15.953  18.561  0.00  0.00    +0.000 A 
ATOM     11  C   UNL     1       9.359  15.458  19.626  0.00  0.00    +0.000 A 
ATOM     12  C   UNL     1       9.131  14.086  19.755  0.00  0.00    +0.000 A 
ATOM     13 CL   UNL     1       8.184  13.583  21.113  0.00  0.00    +0.000 Cl
ENDBRANCH   4   7
ENDBRANCH   1   2
BRANCH   1  14
ATOM     14  C   UNL     1       8.211   7.512  18.415  0.00  0.00    +0.000 C 
BRANCH  14  15
ATOM     15  C   UNL     1       7.318   6.382  17.898  0.00  0.00    +0.000 C 
BRANCH  15  17
ATOM     16  O   UNL     1       7.091   5.221  19.987  0.00  0.00    +0.000 OA
ATOM     17  C   UNL     1       6.550   5.612  18.978  0.00  0.00    +0.000 C 
ATOM     18  N   UNL     1       5.202   5.438  18.724  0.00  0.00    +0.000 N 
ATOM     19  H   UNL     1       4.965   5.598  17.751  0.00  0.00    +0.000 HD
BRANCH  18  20
ATOM     20  C   UNL     1       4.215   4.703  19.525  0.00  0.00    +0.000 C 
ATOM     21  C   UNL     1       2.761   5.204  19.416  0.00  0.00    +0.000 C 
ATOM     22  C   UNL     1       2.297   5.191  17.960  0.00  0.00    +0.000 C 
ATOM     23  C   UNL     1       2.306   3.762  17.420  0.00  0.00    +0.000 C 
ATOM     24  C   UNL     1       3.663   3.084  17.622  0.00  0.00    +0.000 C 
ATOM     25  C   UNL     1       4.202   3.230  19.055  0.00  0.00    +0.000 C 
ENDBRANCH  18  20
ENDBRANCH  15  17
ENDBRANCH  14  15
ENDBRANCH   1  14
TORSDOF 6
ENDMDL
MODEL 9
REMARK VINA RESULT:      -7.7      5.237      8.855
REMARK  Name = 
REMARK  6 active torsions:
REMARK  status: ('A' for Active; 'I' for Inactive)
REMARK    1  A    between atoms: C_2  and  C_3
REMARK    2  A    between atoms: C_3  and  C_4
REMARK    3  A    between atoms: C_4  and  C_5
REMARK    4  A    between atoms: C_5  and  C_6
REMARK    5  A    between atoms: C_8  and  C_9
REMARK    6  A    between atoms: N_18  and  C_19
REMARK                            x       y       z     vdW  Elec       q    Type
REMARK                         _______ _______ _______ _____ _____    ______ ____
ROOT
ATOM      1  C   UNL     1       7.807   7.855  17.443  0.00  0.00    +0.000 C 
ENDROOT
BRANCH   1   2
ATOM      2  C   UNL     1       6.932   6.775  17.906  0.00  0.00    +0.000 A 
ATOM      3  N   UNL     1       5.712   6.493  17.531  0.00  0.00    +0.000 NA
ATOM      4  C   UNL     1       5.450   5.359  18.264  0.00  0.00    +0.000 A 
ATOM      5  N   UNL     1       6.443   5.006  19.093  0.00  0.00    +0.000 NA
ATOM      6  O   UNL     1       7.434   5.931  18.843  0.00  0.00    +0.000 OA
BRANCH   4   7
ATOM      7  C   UNL     1       4.199   4.645  18.100  0.00  0.00    +0.000 A 
ATOM      8  C   UNL     1       4.255   3.245  17.934  0.00  0.00    +0.000 A 
ATOM      9  C   UNL     1       3.082   2.497  17.820  0.00  0.00    +0.000 A 
ATOM     10  C   UNL     1       1.848   3.138  17.878  0.00  0.00    +0.000 A 
ATOM     11  C   UNL     1       1.783   4.522  18.036  0.00  0.00    +0.000 A 
ATOM     12  C   UNL     1       2.952   5.280  18.134  0.00  0.00    +0.000 A 
ATOM     13 CL   UNL     1       2.754   6.988  18.328  0.00  0.00    +0.000 Cl
ENDBRANCH   4   7
ENDBRANCH   1   2
BRANCH   1  14
ATOM     14  C   UNL     1       8.440   8.585  18.610  0.00  0.00    +0.000 C 
BRANCH  14  15
ATOM     15  C   UNL     1       8.786  10.020  18.204  0.00  0.00    +0.000 C 
BRANCH  15  17
ATOM     16  O   UNL     1       9.386  10.613  20.452  0.00  0.00    +0.000 OA
ATOM     17  C   UNL     1       9.520  10.840  19.270  0.00  0.00    +0.000 C 
ATOM     18  N   UNL     1      10.361  11.820  18.777  0.00  0.00    +0.000 N 
ATOM     19  H   UNL     1      10.174  12.042  17.805  0.00  0.00    +0.000 HD
BRANCH  18  20
ATOM     20  C   UNL     1      11.152  12.800  19.530  0.00  0.00    +0.000 C 
ATOM     21  C   UNL     1      12.332  13.435  18.767  0.00  0.00    +0.000 C 
ATOM     22  C   UNL     1      11.842  14.105  17.483  0.00  0.00    +0.000 C 
ATOM     23  C   UNL     1      10.880  15.242  17.820  0.00  0.00    +0.000 C 
ATOM     24  C   UNL     1       9.737  14.775  18.726  0.00  0.00    +0.000 C 
ATOM     25  C   UNL     1      10.224  13.967  19.941  0.00  0.00    +0.000 C 
ENDBRANCH  18  20
ENDBRANCH  15  17
ENDBRANCH  14  15
ENDBRANCH   1  14
TORSDOF 6
ENDMDL
