MODEL 1
REMARK VINA RESULT:      -7.7      0.000      0.000
REMARK  Name = 
REMARK  5 active torsions:
REMARK  status: ('A' for Active; 'I' for Inactive)
REMARK    1  A    between atoms: C_1  and  C_2
REMARK    2  A    between atoms: C_2  and  C_4
REMARK    3  A    between atoms: C_7  and  N_8
REMARK    4  A    between atoms: C_9  and  S_10
REMARK    5  A    between atoms: N_11  and  C_12
REMARK                            x       y       z     vdW  Elec       q    Type
REMARK                         _______ _______ _______ _____ _____    ______ ____
ROOT
ATOM      1  N   UNL     1       1.745   8.077  21.199  0.00  0.00    +0.000 N 
ATOM      2  C   UNL     1       0.745   9.020  21.168  0.00  0.00    +0.000 C 
ATOM      3  N   UNL     1       0.294   9.565  20.076  0.00  0.00    +0.000 NA
ATOM      4  H   UNL     1       2.053   7.807  22.125  0.00  0.00    +0.000 HD
ENDROOT
BRANCH   3   5
ATOM      5  C   UNL     1      -0.712  10.553  19.987  0.00  0.00    +0.000 A 
ATOM      6  C   UNL     1      -0.830  11.578  20.937  0.00  0.00    +0.000 A 
ATOM      7  C   UNL     1      -1.845  12.526  20.873  0.00  0.00    +0.000 A 
ATOM      8  C   UNL     1      -2.716  12.532  19.793  0.00  0.00    +0.000 A 
ATOM      9  C   UNL     1      -2.556  11.606  18.755  0.00  0.00    +0.000 A 
ATOM     10  C   UNL     1      -3.352  11.660  17.609  0.00  0.00    +0.000 A 
ATOM     11  N   UNL     1      -3.236  10.833  16.549  0.00  0.00    +0.000 NA
ATOM     12  C   UNL     1      -2.274   9.894  16.634  0.00  0.00    +0.000 A 
ATOM     13  C   UNL     1      -1.435   9.738  17.731  0.00  0.00    +0.000 A 
ATOM     14  C   UNL     1      -1.556  10.606  18.836  0.00  0.00    +0.000 A 
ENDBRANCH   3   5
BRANCH   1  18
ATOM     15  C   UNL     1       2.512   4.993  18.417  0.00  0.00    +0.000 A 
ATOM     16  C   UNL     1       1.915   4.714  19.650  0.00  0.00    +0.000 A 
ATOM     17  C   UNL     1       1.642   5.752  20.548  0.00  0.00    +0.000 A 
ATOM     18  C   UNL     1       1.967   7.079  20.235  0.00  0.00    +0.000 A 
ATOM     19  C   UNL     1       2.527   7.349  18.984  0.00  0.00    +0.000 A 
ATOM     20  C   UNL     1       2.797   6.320  18.080  0.00  0.00    +0.000 A 
BRANCH  15  22
ATOM     21  C   UNL     1       4.231   3.965  16.788  0.00  0.00    +0.000 C 
ATOM     22  C   UNL     1       2.876   3.923  17.443  0.00  0.00    +0.000 C 
ATOM     23  O   UNL     1       2.077   3.023  17.191  0.00  0.00    +0.000 OA
ENDBRANCH  15  22
ENDBRANCH   1  18
BRANCH   2  24
ATOM     24  S   UNL     1       0.241   9.395  22.811  0.00  0.00    +0.000 S 
ATOM     25  H   UNL     1      -0.993   8.889  22.679  0.00  0.00    +0.000 HD
ENDBRANCH   2  24
TORSDOF 4
ENDMDL
MODEL 2
REMARK VINA RESULT:      -7.7      4.928      7.582
REMARK  Name = 
REMARK  5 active torsions:
REMARK  status: ('A' for Active; 'I' for Inactive)
REMARK    1  A    between atoms: C_1  and  C_2
REMARK    2  A    between atoms: C_2  and  C_4
REMARK    3  A    between atoms: C_7  and  N_8
REMARK    4  A    between atoms: C_9  and  S_10
REMARK    5  A    between atoms: N_11  and  C_12
REMARK                            x       y       z     vdW  Elec       q    Type
REMARK                         _______ _______ _______ _____ _____    ______ ____
ROOT
ATOM      1  N   UNL     1       6.783   6.017  15.662  0.00  0.00    +0.000 N 
ATOM      2  C   UNL     1       5.972   6.307  16.734  0.00  0.00    +0.000 C 
ATOM      3  N   UNL     1       4.672   6.286  16.687  0.00  0.00    +0.000 NA
ATOM      4  H   UNL     1       7.773   6.158  15.822  0.00  0.00    +0.000 HD
ENDROOT
BRANCH   3   5
ATOM      5  C   UNL     1       3.791   6.597  17.747  0.00  0.00    +0.000 A 
ATOM      6  C   UNL     1       3.114   7.823  17.811  0.00  0.00    +0.000 A 
ATOM      7  C   UNL     1       2.279   8.147  18.875  0.00  0.00    +0.000 A 
ATOM      8  C   UNL     1       2.021   7.205  19.861  0.00  0.00    +0.000 A 
ATOM      9  C   UNL     1       2.576   5.922  19.770  0.00  0.00    +0.000 A 
ATOM     10  C   UNL     1       2.246   4.926  20.691  0.00  0.00    +0.000 A 
ATOM     11  N   UNL     1       2.704   3.657  20.652  0.00  0.00    +0.000 NA
ATOM     12  C   UNL     1       3.540   3.360  19.639  0.00  0.00    +0.000 A 
ATOM     13  C   UNL     1       3.948   4.275  18.675  0.00  0.00    +0.000 A 
ATOM     14  C   UNL     1       3.466   5.600  18.716  0.00  0.00    +0.000 A 
ENDBRANCH   3   5
BRANCH   1  18
ATOM     15  C   UNL     1       5.991   3.286  12.539  0.00  0.00    +0.000 A 
ATOM     16  C   UNL     1       7.127   4.100  12.508  0.00  0.00    +0.000 A 
ATOM     17  C   UNL     1       7.389   4.979  13.566  0.00  0.00    +0.000 A 
ATOM     18  C   UNL     1       6.520   5.066  14.661  0.00  0.00    +0.000 A 
ATOM     19  C   UNL     1       5.409   4.219  14.698  0.00  0.00    +0.000 A 
ATOM     20  C   UNL     1       5.144   3.336  13.650  0.00  0.00    +0.000 A 
BRANCH  15  22
ATOM     21  C   UNL     1       6.672   1.419  10.892  0.00  0.00    +0.000 C 
ATOM     22  C   UNL     1       5.631   2.371  11.416  0.00  0.00    +0.000 C 
ATOM     23  O   UNL     1       4.498   2.399  10.939  0.00  0.00    +0.000 OA
ENDBRANCH  15  22
ENDBRANCH   1  18
BRANCH   2  24
ATOM     24  S   UNL     1       6.964   6.753  18.116  0.00  0.00    +0.000 S 
ATOM     25  H   UNL     1       6.718   8.067  18.024  0.00  0.00    +0.000 HD
ENDBRANCH   2  24
TORSDOF 4
ENDMDL
MODEL 3
REMARK VINA RESULT:      -7.6      5.169      7.398
REMARK  Name = 
REMARK  5 active torsions:
REMARK  status: ('A' for Active; 'I' for Inactive)
REMARK    1  A    between atoms: C_1  and  C_2
REMARK    2  A    between atoms: C_2  and  C_4
REMARK    3  A    between atoms: C_7  and  N_8
REMARK    4  A    between atoms: C_9  and  S_10
REMARK    5  A    between atoms: N_11  and  C_12
REMARK                            x       y       z     vdW  Elec       q    Type
REMARK                         _______ _______ _______ _____ _____    ______ ____
ROOT
ATOM      1  N   UNL     1       6.608   5.627  16.780  0.00  0.00    +0.000 N 
ATOM      2  C   UNL     1       5.709   5.675  17.819  0.00  0.00    +0.000 C 
ATOM      3  N   UNL     1       4.422   5.788  17.661  0.00  0.00    +0.000 NA
ATOM      4  H   UNL     1       7.583   5.626  17.056  0.00  0.00    +0.000 HD
ENDROOT
BRANCH   3   5
ATOM      5  C   UNL     1       3.455   5.866  18.688  0.00  0.00    +0.000 A 
ATOM      6  C   UNL     1       2.950   7.094  19.138  0.00  0.00    +0.000 A 
ATOM      7  C   UNL     1       2.029   7.173  20.178  0.00  0.00    +0.000 A 
ATOM      8  C   UNL     1       1.514   6.011  20.733  0.00  0.00    +0.000 A 
ATOM      9  C   UNL     1       1.895   4.761  20.228  0.00  0.00    +0.000 A 
ATOM     10  C   UNL     1       1.311   3.584  20.698  0.00  0.00    +0.000 A 
ATOM     11  N   UNL     1       1.592   2.346  20.239  0.00  0.00    +0.000 NA
ATOM     12  C   UNL     1       2.510   2.274  19.257  0.00  0.00    +0.000 A 
ATOM     13  C   UNL     1       3.166   3.377  18.724  0.00  0.00    +0.000 A 
ATOM     14  C   UNL     1       2.868   4.670  19.203  0.00  0.00    +0.000 A 
ENDBRANCH   3   5
BRANCH   1  18
ATOM     15  C   UNL     1       5.937   3.674  13.096  0.00  0.00    +0.000 A 
ATOM     16  C   UNL     1       4.972   3.647  14.108  0.00  0.00    +0.000 A 
ATOM     17  C   UNL     1       5.200   4.324  15.312  0.00  0.00    +0.000 A 
ATOM     18  C   UNL     1       6.392   5.028  15.528  0.00  0.00    +0.000 A 
ATOM     19  C   UNL     1       7.330   5.080  14.494  0.00  0.00    +0.000 A 
ATOM     20  C   UNL     1       7.109   4.412  13.289  0.00  0.00    +0.000 A 
BRANCH  15  22
ATOM     21  C   UNL     1       4.438   2.954  11.121  0.00  0.00    +0.000 C 
ATOM     22  C   UNL     1       5.774   2.927  11.815  0.00  0.00    +0.000 C 
ATOM     23  O   UNL     1       6.724   2.307  11.339  0.00  0.00    +0.000 OA
ENDBRANCH  15  22
ENDBRANCH   1  18
BRANCH   2  24
ATOM     24  S   UNL     1       6.575   5.618  19.349  0.00  0.00    +0.000 S 
ATOM     25  H   UNL     1       5.540   6.036  20.091  0.00  0.00    +0.000 HD
ENDBRANCH   2  24
TORSDOF 4
ENDMDL
MODEL 4
REMARK VINA RESULT:      -7.5      0.276      1.040
REMARK  Name = 
REMARK  5 active torsions:
REMARK  status: ('A' for Active; 'I' for Inactive)
REMARK    1  A    between atoms: C_1  and  C_2
REMARK    2  A    between atoms: C_2  and  C_4
REMARK    3  A    between atoms: C_7  and  N_8
REMARK    4  A    between atoms: C_9  and  S_10
REMARK    5  A    between atoms: N_11  and  C_12
REMARK                            x       y       z     vdW  Elec       q    Type
REMARK                         _______ _______ _______ _____ _____    ______ ____
ROOT
ATOM      1  N   UNL     1       1.589   8.203  21.409  0.00  0.00    +0.000 N 
ATOM      2  C   UNL     1       0.570   9.119  21.299  0.00  0.00    +0.000 C 
ATOM      3  N   UNL     1       0.167   9.625  20.170  0.00  0.00    +0.000 NA
ATOM      4  H   UNL     1       1.851   7.964  22.357  0.00  0.00    +0.000 HD
ENDROOT
BRANCH   3   5
ATOM      5  C   UNL     1      -0.856  10.585  20.000  0.00  0.00    +0.000 A 
ATOM      6  C   UNL     1      -1.061  11.620  20.924  0.00  0.00    +0.000 A 
ATOM      7  C   UNL     1      -2.095  12.540  20.779  0.00  0.00    +0.000 A 
ATOM      8  C   UNL     1      -2.894  12.506  19.645  0.00  0.00    +0.000 A 
ATOM      9  C   UNL     1      -2.644  11.568  18.635  0.00  0.00    +0.000 A 
ATOM     10  C   UNL     1      -3.365  11.585  17.441  0.00  0.00    +0.000 A 
ATOM     11  N   UNL     1      -3.161  10.744  16.404  0.00  0.00    +0.000 NA
ATOM     12  C   UNL     1      -2.182   9.833  16.566  0.00  0.00    +0.000 A 
ATOM     13  C   UNL     1      -1.411   9.716  17.716  0.00  0.00    +0.000 A 
ATOM     14  C   UNL     1      -1.625  10.597  18.797  0.00  0.00    +0.000 A 
ENDBRANCH   3   5
BRANCH   1  18
ATOM     15  C   UNL     1       2.385   5.227  18.520  0.00  0.00    +0.000 A 
ATOM     16  C   UNL     1       2.628   6.576  18.244  0.00  0.00    +0.000 A 
ATOM     17  C   UNL     1       2.386   7.546  19.224  0.00  0.00    +0.000 A 
ATOM     18  C   UNL     1       1.890   7.188  20.485  0.00  0.00    +0.000 A 
ATOM     19  C   UNL     1       1.689   5.833  20.760  0.00  0.00    +0.000 A 
ATOM     20  C   UNL     1       1.934   4.859  19.791  0.00  0.00    +0.000 A 
BRANCH  15  22
ATOM     21  C   UNL     1       3.949   3.921  16.933  0.00  0.00    +0.000 C 
ATOM     22  C   UNL     1       2.573   4.155  17.498  0.00  0.00    +0.000 C 
ATOM     23  O   UNL     1       1.614   3.477  17.136  0.00  0.00    +0.000 OA
ENDBRANCH  15  22
ENDBRANCH   1  18
BRANCH   2  24
ATOM     24  S   UNL     1      -0.034   9.520  22.901  0.00  0.00    +0.000 S 
ATOM     25  H   UNL     1       0.004   8.263  23.364  0.00  0.00    +0.000 HD
ENDBRANCH   2  24
TORSDOF 4
ENDMDL
MODEL 5
REMARK VINA RESULT:      -7.5      5.148      7.452
REMARK  Name = 
REMARK  5 active torsions:
REMARK  status: ('A' for Active; 'I' for Inactive)
REMARK    1  A    between atoms: C_1  and  C_2
REMARK    2  A    between atoms: C_2  and  C_4
REMARK    3  A    between atoms: C_7  and  N_8
REMARK    4  A    between atoms: C_9  and  S_10
REMARK    5  A    between atoms: N_11  and  C_12
REMARK                            x       y       z     vdW  Elec       q    Type
REMARK                         _______ _______ _______ _____ _____    ______ ____
ROOT
ATOM      1  N   UNL     1       6.613   5.517  16.758  0.00  0.00    +0.000 N 
ATOM      2  C   UNL     1       5.721   5.635  17.798  0.00  0.00    +0.000 C 
ATOM      3  N   UNL     1       4.432   5.720  17.643  0.00  0.00    +0.000 NA
ATOM      4  H   UNL     1       7.590   5.549  17.025  0.00  0.00    +0.000 HD
ENDROOT
BRANCH   3   5
ATOM      5  C   UNL     1       3.473   5.865  18.670  0.00  0.00    +0.000 A 
ATOM      6  C   UNL     1       2.979   7.122  19.048  0.00  0.00    +0.000 A 
ATOM      7  C   UNL     1       2.066   7.270  20.087  0.00  0.00    +0.000 A 
ATOM      8  C   UNL     1       1.545   6.147  20.713  0.00  0.00    +0.000 A 
ATOM      9  C   UNL     1       1.914   4.866  20.282  0.00  0.00    +0.000 A 
ATOM     10  C   UNL     1       1.324   3.724  20.824  0.00  0.00    +0.000 A 
ATOM     11  N   UNL     1       1.593   2.458  20.438  0.00  0.00    +0.000 NA
ATOM     12  C   UNL     1       2.505   2.321  19.456  0.00  0.00    +0.000 A 
ATOM     13  C   UNL     1       3.165   3.386  18.854  0.00  0.00    +0.000 A 
ATOM     14  C   UNL     1       2.880   4.707  19.258  0.00  0.00    +0.000 A 
ENDBRANCH   3   5
BRANCH   1  18
ATOM     15  C   UNL     1       5.936   3.569  13.073  0.00  0.00    +0.000 A 
ATOM     16  C   UNL     1       6.979   4.489  13.216  0.00  0.00    +0.000 A 
ATOM     17  C   UNL     1       7.207   5.104  14.453  0.00  0.00    +0.000 A 
ATOM     18  C   UNL     1       6.395   4.819  15.559  0.00  0.00    +0.000 A 
ATOM     19  C   UNL     1       5.381   3.869  15.413  0.00  0.00    +0.000 A 
ATOM     20  C   UNL     1       5.151   3.247  14.184  0.00  0.00    +0.000 A 
BRANCH  15  22
ATOM     21  C   UNL     1       4.290   3.227  11.114  0.00  0.00    +0.000 C 
ATOM     22  C   UNL     1       5.612   2.924  11.767  0.00  0.00    +0.000 C 
ATOM     23  O   UNL     1       6.421   2.163  11.239  0.00  0.00    +0.000 OA
ENDBRANCH  15  22
ENDBRANCH   1  18
BRANCH   2  24
ATOM     24  S   UNL     1       6.600   5.709  19.320  0.00  0.00    +0.000 S 
ATOM     25  H   UNL     1       7.655   6.367  18.821  0.00  0.00    +0.000 HD
ENDBRANCH   2  24
TORSDOF 4
ENDMDL
MODEL 6
REMARK VINA RESULT:      -7.5      1.700      2.306
REMARK  Name = 
REMARK  5 active torsions:
REMARK  status: ('A' for Active; 'I' for Inactive)
REMARK    1  A    between atoms: C_1  and  C_2
REMARK    2  A    between atoms: C_2  and  C_4
REMARK    3  A    between atoms: C_7  and  N_8
REMARK    4  A    between atoms: C_9  and  S_10
REMARK    5  A    between atoms: N_11  and  C_12
REMARK                            x       y       z     vdW  Elec       q    Type
REMARK                         _______ _______ _______ _____ _____    ______ ____
ROOT
ATOM      1  N   UNL     1       2.216   9.072  18.250  0.00  0.00    +0.000 N 
ATOM      2  C   UNL     1       1.200   9.963  18.502  0.00  0.00    +0.000 C 
ATOM      3  N   UNL     1      -0.047   9.620  18.643  0.00  0.00    +0.000 NA
ATOM      4  H   UNL     1       3.122   9.492  18.078  0.00  0.00    +0.000 HD
ENDROOT
BRANCH   3   5
ATOM      5  C   UNL     1      -1.134  10.492  18.880  0.00  0.00    +0.000 A 
ATOM      6  C   UNL     1      -1.171  11.344  19.993  0.00  0.00    +0.000 A 
ATOM      7  C   UNL     1      -2.259  12.172  20.248  0.00  0.00    +0.000 A 
ATOM      8  C   UNL     1      -3.302  12.241  19.336  0.00  0.00    +0.000 A 
ATOM      9  C   UNL     1      -3.247  11.503  18.147  0.00  0.00    +0.000 A 
ATOM     10  C   UNL     1      -4.232  11.638  17.168  0.00  0.00    +0.000 A 
ATOM     11  N   UNL     1      -4.234  10.995  15.981  0.00  0.00    +0.000 NA
ATOM     12  C   UNL     1      -3.195  10.168  15.755  0.00  0.00    +0.000 A 
ATOM     13  C   UNL     1      -2.167   9.946  16.664  0.00  0.00    +0.000 A 
ATOM     14  C   UNL     1      -2.167  10.621  17.902  0.00  0.00    +0.000 A 
ENDBRANCH   3   5
BRANCH   1  18
ATOM     15  C   UNL     1       2.368   5.079  19.617  0.00  0.00    +0.000 A 
ATOM     16  C   UNL     1       2.678   5.395  18.290  0.00  0.00    +0.000 A 
ATOM     17  C   UNL     1       2.650   6.727  17.862  0.00  0.00    +0.000 A 
ATOM     18  C   UNL     1       2.305   7.760  18.744  0.00  0.00    +0.000 A 
ATOM     19  C   UNL     1       2.037   7.435  20.076  0.00  0.00    +0.000 A 
ATOM     20  C   UNL     1       2.068   6.110  20.513  0.00  0.00    +0.000 A 
BRANCH  15  22
ATOM     21  C   UNL     1       2.017   3.426  21.569  0.00  0.00    +0.000 C 
ATOM     22  C   UNL     1       2.328   3.673  20.117  0.00  0.00    +0.000 C 
ATOM     23  O   UNL     1       2.542   2.740  19.345  0.00  0.00    +0.000 OA
ENDBRANCH  15  22
ENDBRANCH   1  18
BRANCH   2  24
ATOM     24  S   UNL     1       1.848  11.598  18.540  0.00  0.00    +0.000 S 
ATOM     25  H   UNL     1       0.762  12.173  18.006  0.00  0.00    +0.000 HD
ENDBRANCH   2  24
TORSDOF 4
ENDMDL
MODEL 7
REMARK VINA RESULT:      -7.4      1.778      2.282
REMARK  Name = 
REMARK  5 active torsions:
REMARK  status: ('A' for Active; 'I' for Inactive)
REMARK    1  A    between atoms: C_1  and  C_2
REMARK    2  A    between atoms: C_2  and  C_4
REMARK    3  A    between atoms: C_7  and  N_8
REMARK    4  A    between atoms: C_9  and  S_10
REMARK    5  A    between atoms: N_11  and  C_12
REMARK                            x       y       z     vdW  Elec       q    Type
REMARK                         _______ _______ _______ _____ _____    ______ ____
ROOT
ATOM      1  N   UNL     1       2.285   8.871  18.066  0.00  0.00    +0.000 N 
ATOM      2  C   UNL     1       1.307   9.794  18.347  0.00  0.00    +0.000 C 
ATOM      3  N   UNL     1       0.058   9.489  18.552  0.00  0.00    +0.000 NA
ATOM      4  H   UNL     1       3.193   9.261  17.844  0.00  0.00    +0.000 HD
ENDROOT
BRANCH   3   5
ATOM      5  C   UNL     1      -0.992  10.396  18.821  0.00  0.00    +0.000 A 
ATOM      6  C   UNL     1      -0.963  11.255  19.929  0.00  0.00    +0.000 A 
ATOM      7  C   UNL     1      -2.016  12.117  20.217  0.00  0.00    +0.000 A 
ATOM      8  C   UNL     1      -3.088  12.214  19.341  0.00  0.00    +0.000 A 
ATOM      9  C   UNL     1      -3.098  11.468  18.156  0.00  0.00    +0.000 A 
ATOM     10  C   UNL     1      -4.112  11.628  17.211  0.00  0.00    +0.000 A 
ATOM     11  N   UNL     1      -4.175  10.979  16.029  0.00  0.00    +0.000 NA
ATOM     12  C   UNL     1      -3.171  10.118  15.773  0.00  0.00    +0.000 A 
ATOM     13  C   UNL     1      -2.119   9.869  16.646  0.00  0.00    +0.000 A 
ATOM     14  C   UNL     1      -2.054  10.551  17.879  0.00  0.00    +0.000 A 
ENDBRANCH   3   5
BRANCH   1  18
ATOM     15  C   UNL     1       2.618   5.007  19.739  0.00  0.00    +0.000 A 
ATOM     16  C   UNL     1       2.127   6.075  20.495  0.00  0.00    +0.000 A 
ATOM     17  C   UNL     1       1.997   7.343  19.916  0.00  0.00    +0.000 A 
ATOM     18  C   UNL     1       2.361   7.565  18.581  0.00  0.00    +0.000 A 
ATOM     19  C   UNL     1       2.813   6.481  17.825  0.00  0.00    +0.000 A 
ATOM     20  C   UNL     1       2.941   5.213  18.394  0.00  0.00    +0.000 A 
BRANCH  15  22
ATOM     21  C   UNL     1       1.948   3.193  21.449  0.00  0.00    +0.000 C 
ATOM     22  C   UNL     1       2.830   3.648  20.317  0.00  0.00    +0.000 C 
ATOM     23  O   UNL     1       3.710   2.918  19.865  0.00  0.00    +0.000 OA
ENDBRANCH  15  22
ENDBRANCH   1  18
BRANCH   2  24
ATOM     24  S   UNL     1       2.000  11.411  18.323  0.00  0.00    +0.000 S 
ATOM     25  H   UNL     1       1.050  11.939  17.539  0.00  0.00    +0.000 HD
ENDBRANCH   2  24
TORSDOF 4
ENDMDL
MODEL 8
REMARK VINA RESULT:      -7.4      1.895      2.798
REMARK  Name = 
REMARK  5 active torsions:
REMARK  status: ('A' for Active; 'I' for Inactive)
REMARK    1  A    between atoms: C_1  and  C_2
REMARK    2  A    between atoms: C_2  and  C_4
REMARK    3  A    between atoms: C_7  and  N_8
REMARK    4  A    between atoms: C_9  and  S_10
REMARK    5  A    between atoms: N_11  and  C_12
REMARK                            x       y       z     vdW  Elec       q    Type
REMARK                         _______ _______ _______ _____ _____    ______ ____
ROOT
ATOM      1  N   UNL     1       1.933   7.810  20.984  0.00  0.00    +0.000 N 
ATOM      2  C   UNL     1       1.073   8.827  20.646  0.00  0.00    +0.000 C 
ATOM      3  N   UNL     1       0.829   9.194  19.421  0.00  0.00    +0.000 NA
ATOM      4  H   UNL     1       2.090   7.693  21.978  0.00  0.00    +0.000 HD
ENDROOT
BRANCH   3   5
ATOM      5  C   UNL     1      -0.025  10.245  19.016  0.00  0.00    +0.000 A 
ATOM      6  C   UNL     1      -1.391  10.038  18.778  0.00  0.00    +0.000 A 
ATOM      7  C   UNL     1      -2.223  11.062  18.339  0.00  0.00    +0.000 A 
ATOM      8  C   UNL     1      -1.726  12.352  18.221  0.00  0.00    +0.000 A 
ATOM      9  C   UNL     1      -0.399  12.629  18.571  0.00  0.00    +0.000 A 
ATOM     10  C   UNL     1       0.092  13.936  18.562  0.00  0.00    +0.000 A 
ATOM     11  N   UNL     1       1.343  14.293  18.923  0.00  0.00    +0.000 NA
ATOM     12  C   UNL     1       2.155  13.291  19.313  0.00  0.00    +0.000 A 
ATOM     13  C   UNL     1       1.778  11.954  19.346  0.00  0.00    +0.000 A 
ATOM     14  C   UNL     1       0.469  11.584  18.972  0.00  0.00    +0.000 A 
ENDBRANCH   3   5
BRANCH   1  18
ATOM     15  C   UNL     1       2.506   4.338  18.648  0.00  0.00    +0.000 A 
ATOM     16  C   UNL     1       3.163   5.531  18.332  0.00  0.00    +0.000 A 
ATOM     17  C   UNL     1       2.984   6.664  19.134  0.00  0.00    +0.000 A 
ATOM     18  C   UNL     1       2.142   6.627  20.254  0.00  0.00    +0.000 A 
ATOM     19  C   UNL     1       1.523   5.419  20.582  0.00  0.00    +0.000 A 
ATOM     20  C   UNL     1       1.701   4.283  19.790  0.00  0.00    +0.000 A 
BRANCH  15  22
ATOM     21  C   UNL     1       3.320   1.905  18.355  0.00  0.00    +0.000 C 
ATOM     22  C   UNL     1       2.616   3.115  17.800  0.00  0.00    +0.000 C 
ATOM     23  O   UNL     1       2.131   3.105  16.671  0.00  0.00    +0.000 OA
ENDBRANCH  15  22
ENDBRANCH   1  18
BRANCH   2  24
ATOM     24  S   UNL     1       0.424   9.559  22.108  0.00  0.00    +0.000 S 
ATOM     25  H   UNL     1       1.045  10.735  21.941  0.00  0.00    +0.000 HD
ENDBRANCH   2  24
TORSDOF 4
ENDMDL
MODEL 9
REMARK VINA RESULT:      -7.3      1.032      1.448
REMARK  Name = 
REMARK  5 active torsions:
REMARK  status: ('A' for Active; 'I' for Inactive)
REMARK    1  A    between atoms: C_1  and  C_2
REMARK    2  A    between atoms: C_2  and  C_4
REMARK    3  A    between atoms: C_7  and  N_8
REMARK    4  A    between atoms: C_9  and  S_10
REMARK    5  A    between atoms: N_11  and  C_12
REMARK                            x       y       z     vdW  Elec       q    Type
REMARK                         _______ _______ _______ _____ _____    ______ ____
ROOT
ATOM      1  N   UNL     1       1.626   7.674  21.285  0.00  0.00    +0.000 N 
ATOM      2  C   UNL     1       0.962   8.843  20.999  0.00  0.00    +0.000 C 
ATOM      3  N   UNL     1       1.140   9.532  19.910  0.00  0.00    +0.000 NA
ATOM      4  H   UNL     1       1.450   7.295  22.208  0.00  0.00    +0.000 HD
ENDROOT
BRANCH   3   5
ATOM      5  C   UNL     1       0.504  10.749  19.575  0.00  0.00    +0.000 A 
ATOM      6  C   UNL     1       0.961  11.982  20.063  0.00  0.00    +0.000 A 
ATOM      7  C   UNL     1       0.311  13.175  19.768  0.00  0.00    +0.000 A 
ATOM      8  C   UNL     1      -0.763  13.176  18.889  0.00  0.00    +0.000 A 
ATOM      9  C   UNL     1      -1.173  11.985  18.278  0.00  0.00    +0.000 A 
ATOM     10  C   UNL     1      -2.180  11.979  17.311  0.00  0.00    +0.000 A 
ATOM     11  N   UNL     1      -2.606  10.884  16.647  0.00  0.00    +0.000 NA
ATOM     12  C   UNL     1      -1.996   9.726  16.964  0.00  0.00    +0.000 A 
ATOM     13  C   UNL     1      -0.994   9.611  17.920  0.00  0.00    +0.000 A 
ATOM     14  C   UNL     1      -0.549  10.758  18.610  0.00  0.00    +0.000 A 
ENDBRANCH   3   5
BRANCH   1  18
ATOM     15  C   UNL     1       2.706   4.822  18.363  0.00  0.00    +0.000 A 
ATOM     16  C   UNL     1       3.112   6.155  18.248  0.00  0.00    +0.000 A 
ATOM     17  C   UNL     1       2.769   7.081  19.240  0.00  0.00    +0.000 A 
ATOM     18  C   UNL     1       2.011   6.695  20.354  0.00  0.00    +0.000 A 
ATOM     19  C   UNL     1       1.646   5.352  20.477  0.00  0.00    +0.000 A 
ATOM     20  C   UNL     1       1.989   4.421  19.495  0.00  0.00    +0.000 A 
BRANCH  15  22
ATOM     21  C   UNL     1       4.339   3.818  16.633  0.00  0.00    +0.000 C 
ATOM     22  C   UNL     1       2.995   3.803  17.311  0.00  0.00    +0.000 C 
ATOM     23  O   UNL     1       2.143   2.967  17.016  0.00  0.00    +0.000 OA
ENDBRANCH  15  22
ENDBRANCH   1  18
BRANCH   2  24
ATOM     24  S   UNL     1      -0.092   9.264  22.344  0.00  0.00    +0.000 S 
ATOM     25  H   UNL     1      -0.355   7.997  22.694  0.00  0.00    +0.000 HD
ENDBRANCH   2  24
TORSDOF 4
ENDMDL
