MODEL 1
REMARK VINA RESULT:      -8.5      0.000      0.000
REMARK  Name = 
REMARK  9 active torsions:
REMARK  status: ('A' for Active; 'I' for Inactive)
REMARK    1  A    between atoms: C_1  and  C_2
REMARK    2  A    between atoms: C_5  and  N_6
REMARK    3  A    between atoms: C_8  and  C_9
REMARK    4  A    between atoms: N_11  and  C_12
REMARK    5  A    between atoms: C_12  and  C_13
REMARK    6  A    between atoms: C_13  and  S_14
REMARK    7  A    between atoms: S_14  and  N_17
REMARK    8  A    between atoms: N_20  and  C_21
REMARK    9  A    between atoms: C_33  and  C_34
REMARK                            x       y       z     vdW  Elec       q    Type
REMARK                         _______ _______ _______ _____ _____    ______ ____
ROOT
ATOM      1  C   UNL     1       1.298   4.206  20.211  0.00  0.00    +0.000 C 
ATOM      2  O   UNL     1       1.081   3.661  21.288  0.00  0.00    +0.000 OA
ATOM      3  N   UNL     1       1.303   5.577  20.059  0.00  0.00    +0.000 N 
ATOM      4  H   UNL     1       1.258   5.973  19.127  0.00  0.00    +0.000 HD
ENDROOT
BRANCH   1   7
ATOM      5  N   UNL     1       3.805   4.036  18.471  0.00  0.00    +0.000 N 
ATOM      6  C   UNL     1       2.446   4.225  18.016  0.00  0.00    +0.000 C 
ATOM      7  C   UNL     1       1.619   3.381  18.982  0.00  0.00    +0.000 C 
ATOM      8  C   UNL     1       2.550   2.236  19.328  0.00  0.00    +0.000 C 
ATOM      9  C   UNL     1       3.920   2.872  19.236  0.00  0.00    +0.000 C 
ATOM     10  O   UNL     1       4.907   2.352  19.725  0.00  0.00    +0.000 OA
BRANCH   5  15
ATOM     11  C   UNL     1       8.034   7.760  17.287  0.00  0.00    +0.000 C 
ATOM     12  C   UNL     1       6.945   6.783  17.623  0.00  0.00    +0.000 A 
ATOM     13  C   UNL     1       5.816   6.706  16.801  0.00  0.00    +0.000 A 
ATOM     14  C   UNL     1       4.786   5.805  17.079  0.00  0.00    +0.000 A 
ATOM     15  C   UNL     1       4.848   4.959  18.186  0.00  0.00    +0.000 A 
ATOM     16  C   UNL     1       5.989   5.031  19.000  0.00  0.00    +0.000 A 
ATOM     17  C   UNL     1       7.037   5.931  18.736  0.00  0.00    +0.000 A 
ATOM     18  C   UNL     1       8.234   5.955  19.648  0.00  0.00    +0.000 C 
ENDBRANCH   5  15
ENDBRANCH   1   7
BRANCH   3  19
ATOM     19  C   UNL     1       1.058   6.478  21.198  0.00  0.00    +0.000 C 
BRANCH  19  20
ATOM     20  C   UNL     1       1.705   7.840  21.009  0.00  0.00    +0.000 C 
BRANCH  20  21
ATOM     21  S   UNL     1       0.924   9.185  21.824  0.00  0.00    +0.000 S 
ATOM     22  O   UNL     1      -0.470   8.843  21.984  0.00  0.00    +0.000 OA
ATOM     23  O   UNL     1       1.728   9.542  22.982  0.00  0.00    +0.000 OA
BRANCH  21  24
ATOM     24  N   UNL     1       1.049  10.454  20.707  0.00  0.00    +0.000 NA
ATOM     25  C   UNL     1       1.161  10.115  19.245  0.00  0.00    +0.000 C 
ATOM     26  C   UNL     1      -0.157   9.585  18.655  0.00  0.00    +0.000 C 
ATOM     27  N   UNL     1      -1.209  10.589  18.875  0.00  0.00    +0.000 N 
ATOM     28  C   UNL     1      -1.372  11.082  20.260  0.00  0.00    +0.000 C 
ATOM     29  C   UNL     1      -0.018  11.501  20.873  0.00  0.00    +0.000 C 
BRANCH  27  30
ATOM     30  C   UNL     1      -2.208  10.789  17.936  0.00  0.00    +0.000 A 
ATOM     31  C   UNL     1      -3.369  11.534  18.206  0.00  0.00    +0.000 A 
ATOM     32  C   UNL     1      -4.405  11.634  17.268  0.00  0.00    +0.000 A 
ATOM     33  C   UNL     1      -4.296  10.999  16.036  0.00  0.00    +0.000 A 
ATOM     34  C   UNL     1      -3.150  10.271  15.741  0.00  0.00    +0.000 A 
ATOM     35  C   UNL     1      -2.128  10.172  16.683  0.00  0.00    +0.000 A 
ENDBRANCH  27  30
ENDBRANCH  21  24
ENDBRANCH  20  21
ENDBRANCH  19  20
ENDBRANCH   3  19
TORSDOF 7
ENDMDL
MODEL 2
REMARK VINA RESULT:      -8.4      5.741      8.968
REMARK  Name = 
REMARK  9 active torsions:
REMARK  status: ('A' for Active; 'I' for Inactive)
REMARK    1  A    between atoms: C_1  and  C_2
REMARK    2  A    between atoms: C_5  and  N_6
REMARK    3  A    between atoms: C_8  and  C_9
REMARK    4  A    between atoms: N_11  and  C_12
REMARK    5  A    between atoms: C_12  and  C_13
REMARK    6  A    between atoms: C_13  and  S_14
REMARK    7  A    between atoms: S_14  and  N_17
REMARK    8  A    between atoms: N_20  and  C_21
REMARK    9  A    between atoms: C_33  and  C_34
REMARK                            x       y       z     vdW  Elec       q    Type
REMARK                         _______ _______ _______ _____ _____    ______ ____
ROOT
ATOM      1  C   UNL     1       8.955   9.880  18.597  0.00  0.00    +0.000 C 
ATOM      2  O   UNL     1       9.132   9.727  19.801  0.00  0.00    +0.000 OA
ATOM      3  N   UNL     1       8.437   8.891  17.789  0.00  0.00    +0.000 N 
ATOM      4  H   UNL     1       8.522   8.976  16.782  0.00  0.00    +0.000 HD
ENDROOT
BRANCH   1   7
ATOM      5  N   UNL     1       9.752  12.594  19.758  0.00  0.00    +0.000 N 
ATOM      6  C   UNL     1       8.703  12.336  18.798  0.00  0.00    +0.000 C 
ATOM      7  C   UNL     1       9.266  11.209  17.937  0.00  0.00    +0.000 C 
ATOM      8  C   UNL     1      10.758  11.479  17.943  0.00  0.00    +0.000 C 
ATOM      9  C   UNL     1      10.982  12.119  19.295  0.00  0.00    +0.000 C 
ATOM     10  O   UNL     1      12.092  12.214  19.788  0.00  0.00    +0.000 OA
BRANCH   5  15
ATOM     11  C   UNL     1       8.807  15.120  24.846  0.00  0.00    +0.000 C 
ATOM     12  C   UNL     1       9.037  14.436  23.529  0.00  0.00    +0.000 A 
ATOM     13  C   UNL     1       9.619  15.153  22.477  0.00  0.00    +0.000 A 
ATOM     14  C   UNL     1       9.854  14.548  21.242  0.00  0.00    +0.000 A 
ATOM     15  C   UNL     1       9.511  13.216  21.013  0.00  0.00    +0.000 A 
ATOM     16  C   UNL     1       8.938  12.498  22.075  0.00  0.00    +0.000 A 
ATOM     17  C   UNL     1       8.695  13.088  23.328  0.00  0.00    +0.000 A 
ATOM     18  C   UNL     1       8.081  12.262  24.426  0.00  0.00    +0.000 C 
ENDBRANCH   5  15
ENDBRANCH   1   7
BRANCH   3  19
ATOM     19  C   UNL     1       8.048   7.578  18.333  0.00  0.00    +0.000 C 
BRANCH  19  20
ATOM     20  C   UNL     1       7.222   6.765  17.350  0.00  0.00    +0.000 C 
BRANCH  20  21
ATOM     21  S   UNL     1       7.217   5.027  17.599  0.00  0.00    +0.000 S 
ATOM     22  O   UNL     1       8.011   4.437  16.546  0.00  0.00    +0.000 OA
ATOM     23  O   UNL     1       7.542   4.767  18.993  0.00  0.00    +0.000 OA
BRANCH  21  24
ATOM     24  N   UNL     1       5.595   4.596  17.366  0.00  0.00    +0.000 NA
ATOM     25  C   UNL     1       4.716   4.429  18.577  0.00  0.00    +0.000 C 
ATOM     26  C   UNL     1       4.374   5.768  19.252  0.00  0.00    +0.000 C 
ATOM     27  N   UNL     1       3.730   6.644  18.262  0.00  0.00    +0.000 N 
ATOM     28  C   UNL     1       4.445   6.829  16.980  0.00  0.00    +0.000 C 
ATOM     29  C   UNL     1       4.881   5.476  16.377  0.00  0.00    +0.000 C 
BRANCH  27  30
ATOM     30  C   UNL     1       2.720   7.517  18.634  0.00  0.00    +0.000 A 
ATOM     31  C   UNL     1       2.272   8.561  17.807  0.00  0.00    +0.000 A 
ATOM     32  C   UNL     1       1.318   9.485  18.253  0.00  0.00    +0.000 A 
ATOM     33  C   UNL     1       0.785   9.378  19.533  0.00  0.00    +0.000 A 
ATOM     34  C   UNL     1       1.201   8.343  20.361  0.00  0.00    +0.000 A 
ATOM     35  C   UNL     1       2.155   7.432  19.911  0.00  0.00    +0.000 A 
ENDBRANCH  27  30
ENDBRANCH  21  24
ENDBRANCH  20  21
ENDBRANCH  19  20
ENDBRANCH   3  19
TORSDOF 7
ENDMDL
MODEL 3
REMARK VINA RESULT:      -8.4      6.214      9.997
REMARK  Name = 
REMARK  9 active torsions:
REMARK  status: ('A' for Active; 'I' for Inactive)
REMARK    1  A    between atoms: C_1  and  C_2
REMARK    2  A    between atoms: C_5  and  N_6
REMARK    3  A    between atoms: C_8  and  C_9
REMARK    4  A    between atoms: N_11  and  C_12
REMARK    5  A    between atoms: C_12  and  C_13
REMARK    6  A    between atoms: C_13  and  S_14
REMARK    7  A    between atoms: S_14  and  N_17
REMARK    8  A    between atoms: N_20  and  C_21
REMARK    9  A    between atoms: C_33  and  C_34
REMARK                            x       y       z     vdW  Elec       q    Type
REMARK                         _______ _______ _______ _____ _____    ______ ____
ROOT
ATOM      1  C   UNL     1       8.946  11.535  17.613  0.00  0.00    +0.000 C 
ATOM      2  O   UNL     1       7.859  12.067  17.414  0.00  0.00    +0.000 OA
ATOM      3  N   UNL     1       9.072  10.209  17.968  0.00  0.00    +0.000 N 
ATOM      4  H   UNL     1       9.955   9.876  18.340  0.00  0.00    +0.000 HD
ENDROOT
BRANCH   1   7
ATOM      5  N   UNL     1      10.589  13.233  19.553  0.00  0.00    +0.000 N 
ATOM      6  C   UNL     1      10.142  13.614  18.233  0.00  0.00    +0.000 C 
ATOM      7  C   UNL     1      10.230  12.319  17.431  0.00  0.00    +0.000 C 
ATOM      8  C   UNL     1      11.400  11.594  18.068  0.00  0.00    +0.000 C 
ATOM      9  C   UNL     1      11.344  12.057  19.507  0.00  0.00    +0.000 C 
ATOM     10  O   UNL     1      11.939  11.475  20.396  0.00  0.00    +0.000 OA
BRANCH   5  15
ATOM     11  C   UNL     1       9.239  16.200  24.300  0.00  0.00    +0.000 C 
ATOM     12  C   UNL     1       9.567  15.407  23.069  0.00  0.00    +0.000 A 
ATOM     13  C   UNL     1      10.522  15.899  22.171  0.00  0.00    +0.000 A 
ATOM     14  C   UNL     1      10.856  15.186  21.018  0.00  0.00    +0.000 A 
ATOM     15  C   UNL     1      10.248  13.966  20.723  0.00  0.00    +0.000 A 
ATOM     16  C   UNL     1       9.300  13.471  21.633  0.00  0.00    +0.000 A 
ATOM     17  C   UNL     1       8.951  14.174  22.800  0.00  0.00    +0.000 A 
ATOM     18  C   UNL     1       7.929  13.586  23.735  0.00  0.00    +0.000 C 
ENDBRANCH   5  15
ENDBRANCH   1   7
BRANCH   3  19
ATOM     19  C   UNL     1       7.894   9.337  18.120  0.00  0.00    +0.000 C 
BRANCH  19  20
ATOM     20  C   UNL     1       8.254   7.862  18.069  0.00  0.00    +0.000 C 
BRANCH  20  21
ATOM     21  S   UNL     1       7.179   6.837  17.133  0.00  0.00    +0.000 S 
ATOM     22  O   UNL     1       5.881   7.470  17.120  0.00  0.00    +0.000 OA
ATOM     23  O   UNL     1       7.843   6.506  15.882  0.00  0.00    +0.000 OA
BRANCH  21  24
ATOM     24  N   UNL     1       7.084   5.415  18.051  0.00  0.00    +0.000 NA
ATOM     25  C   UNL     1       6.460   5.485  19.418  0.00  0.00    +0.000 C 
ATOM     26  C   UNL     1       4.935   5.679  19.367  0.00  0.00    +0.000 C 
ATOM     27  N   UNL     1       4.347   4.582  18.585  0.00  0.00    +0.000 N 
ATOM     28  C   UNL     1       4.927   4.341  17.245  0.00  0.00    +0.000 C 
ATOM     29  C   UNL     1       6.468   4.264  17.304  0.00  0.00    +0.000 C 
BRANCH  27  30
ATOM     30  C   UNL     1       3.111   4.053  18.919  0.00  0.00    +0.000 A 
ATOM     31  C   UNL     1       2.326   4.555  19.972  0.00  0.00    +0.000 A 
ATOM     32  C   UNL     1       1.128   3.935  20.347  0.00  0.00    +0.000 A 
ATOM     33  C   UNL     1       0.682   2.805  19.669  0.00  0.00    +0.000 A 
ATOM     34  C   UNL     1       1.433   2.302  18.614  0.00  0.00    +0.000 A 
ATOM     35  C   UNL     1       2.627   2.922  18.252  0.00  0.00    +0.000 A 
ENDBRANCH  27  30
ENDBRANCH  21  24
ENDBRANCH  20  21
ENDBRANCH  19  20
ENDBRANCH   3  19
TORSDOF 7
ENDMDL
MODEL 4
REMARK VINA RESULT:      -8.3      5.849      9.995
REMARK  Name = 
REMARK  9 active torsions:
REMARK  status: ('A' for Active; 'I' for Inactive)
REMARK    1  A    between atoms: C_1  and  C_2
REMARK    2  A    between atoms: C_5  and  N_6
REMARK    3  A    between atoms: C_8  and  C_9
REMARK    4  A    between atoms: N_11  and  C_12
REMARK    5  A    between atoms: C_12  and  C_13
REMARK    6  A    between atoms: C_13  and  S_14
REMARK    7  A    between atoms: S_14  and  N_17
REMARK    8  A    between atoms: N_20  and  C_21
REMARK    9  A    between atoms: C_33  and  C_34
REMARK                            x       y       z     vdW  Elec       q    Type
REMARK                         _______ _______ _______ _____ _____    ______ ____
ROOT
ATOM      1  C   UNL     1       9.128  11.254  18.423  0.00  0.00    +0.000 C 
ATOM      2  O   UNL     1       8.445  11.926  17.657  0.00  0.00    +0.000 OA
ATOM      3  N   UNL     1       8.996   9.885  18.530  0.00  0.00    +0.000 N 
ATOM      4  H   UNL     1       9.409   9.407  19.324  0.00  0.00    +0.000 HD
ENDROOT
BRANCH   1   7
ATOM      5  N   UNL     1       9.039  13.634  20.339  0.00  0.00    +0.000 N 
ATOM      6  C   UNL     1       9.987  13.417  19.269  0.00  0.00    +0.000 C 
ATOM      7  C   UNL     1      10.199  11.906  19.273  0.00  0.00    +0.000 C 
ATOM      8  C   UNL     1      10.031  11.534  20.733  0.00  0.00    +0.000 C 
ATOM      9  C   UNL     1       9.037  12.560  21.233  0.00  0.00    +0.000 C 
ATOM     10  O   UNL     1       8.432  12.415  22.279  0.00  0.00    +0.000 OA
BRANCH   5  15
ATOM     11  C   UNL     1       5.673  18.296  20.659  0.00  0.00    +0.000 C 
ATOM     12  C   UNL     1       6.534  17.071  20.551  0.00  0.00    +0.000 A 
ATOM     13  C   UNL     1       7.672  16.959  21.358  0.00  0.00    +0.000 A 
ATOM     14  C   UNL     1       8.492  15.832  21.289  0.00  0.00    +0.000 A 
ATOM     15  C   UNL     1       8.209  14.787  20.410  0.00  0.00    +0.000 A 
ATOM     16  C   UNL     1       7.061  14.898  19.611  0.00  0.00    +0.000 A 
ATOM     17  C   UNL     1       6.221  16.025  19.667  0.00  0.00    +0.000 A 
ATOM     18  C   UNL     1       5.003  16.080  18.785  0.00  0.00    +0.000 C 
ENDBRANCH   5  15
ENDBRANCH   1   7
BRANCH   3  19
ATOM     19  C   UNL     1       8.025   9.139  17.712  0.00  0.00    +0.000 C 
BRANCH  19  20
ATOM     20  C   UNL     1       7.900   7.687  18.142  0.00  0.00    +0.000 C 
BRANCH  20  21
ATOM     21  S   UNL     1       6.980   6.642  17.071  0.00  0.00    +0.000 S 
ATOM     22  O   UNL     1       5.639   7.171  16.997  0.00  0.00    +0.000 OA
ATOM     23  O   UNL     1       7.755   6.441  15.857  0.00  0.00    +0.000 OA
BRANCH  21  24
ATOM     24  N   UNL     1       6.938   5.163  17.898  0.00  0.00    +0.000 NA
ATOM     25  C   UNL     1       6.473   5.154  19.329  0.00  0.00    +0.000 C 
ATOM     26  C   UNL     1       4.960   5.393  19.463  0.00  0.00    +0.000 C 
ATOM     27  N   UNL     1       4.249   4.370  18.682  0.00  0.00    +0.000 N 
ATOM     28  C   UNL     1       4.668   4.207  17.273  0.00  0.00    +0.000 C 
ATOM     29  C   UNL     1       6.202   4.084  17.151  0.00  0.00    +0.000 C 
BRANCH  27  30
ATOM     30  C   UNL     1       3.040   3.854  19.119  0.00  0.00    +0.000 A 
ATOM     31  C   UNL     1       2.154   3.167  18.272  0.00  0.00    +0.000 A 
ATOM     32  C   UNL     1       0.897   2.744  18.721  0.00  0.00    +0.000 A 
ATOM     33  C   UNL     1       0.503   2.990  20.032  0.00  0.00    +0.000 A 
ATOM     34  C   UNL     1       1.370   3.654  20.892  0.00  0.00    +0.000 A 
ATOM     35  C   UNL     1       2.616   4.076  20.434  0.00  0.00    +0.000 A 
ENDBRANCH  27  30
ENDBRANCH  21  24
ENDBRANCH  20  21
ENDBRANCH  19  20
ENDBRANCH   3  19
TORSDOF 7
ENDMDL
MODEL 5
REMARK VINA RESULT:      -8.3      2.860      4.045
REMARK  Name = 
REMARK  9 active torsions:
REMARK  status: ('A' for Active; 'I' for Inactive)
REMARK    1  A    between atoms: C_1  and  C_2
REMARK    2  A    between atoms: C_5  and  N_6
REMARK    3  A    between atoms: C_8  and  C_9
REMARK    4  A    between atoms: N_11  and  C_12
REMARK    5  A    between atoms: C_12  and  C_13
REMARK    6  A    between atoms: C_13  and  S_14
REMARK    7  A    between atoms: S_14  and  N_17
REMARK    8  A    between atoms: N_20  and  C_21
REMARK    9  A    between atoms: C_33  and  C_34
REMARK                            x       y       z     vdW  Elec       q    Type
REMARK                         _______ _______ _______ _____ _____    ______ ____
ROOT
ATOM      1  C   UNL     1       2.227   5.832  18.994  0.00  0.00    +0.000 C 
ATOM      2  O   UNL     1       2.209   6.570  18.014  0.00  0.00    +0.000 OA
ATOM      3  N   UNL     1       2.079   6.302  20.282  0.00  0.00    +0.000 N 
ATOM      4  H   UNL     1       2.327   5.702  21.061  0.00  0.00    +0.000 HD
ENDROOT
BRANCH   1   7
ATOM      5  N   UNL     1       4.353   4.138  17.596  0.00  0.00    +0.000 N 
ATOM      6  C   UNL     1       2.921   4.039  17.432  0.00  0.00    +0.000 C 
ATOM      7  C   UNL     1       2.373   4.334  18.826  0.00  0.00    +0.000 C 
ATOM      8  C   UNL     1       3.451   3.790  19.744  0.00  0.00    +0.000 C 
ATOM      9  C   UNL     1       4.715   3.985  18.938  0.00  0.00    +0.000 C 
ATOM     10  O   UNL     1       5.820   3.938  19.448  0.00  0.00    +0.000 OA
BRANCH   5  15
ATOM     11  C   UNL     1       7.925   5.218  13.210  0.00  0.00    +0.000 C 
ATOM     12  C   UNL     1       6.979   4.915  14.336  0.00  0.00    +0.000 A 
ATOM     13  C   UNL     1       7.216   5.471  15.598  0.00  0.00    +0.000 A 
ATOM     14  C   UNL     1       6.355   5.216  16.667  0.00  0.00    +0.000 A 
ATOM     15  C   UNL     1       5.236   4.397  16.513  0.00  0.00    +0.000 A 
ATOM     16  C   UNL     1       4.996   3.852  15.242  0.00  0.00    +0.000 A 
ATOM     17  C   UNL     1       5.851   4.098  14.152  0.00  0.00    +0.000 A 
ATOM     18  C   UNL     1       5.535   3.485  12.815  0.00  0.00    +0.000 C 
ENDBRANCH   5  15
ENDBRANCH   1   7
BRANCH   3  19
ATOM     19  C   UNL     1       1.875   7.735  20.560  0.00  0.00    +0.000 C 
BRANCH  19  20
ATOM     20  C   UNL     1       0.441   8.050  20.950  0.00  0.00    +0.000 C 
BRANCH  20  21
ATOM     21  S   UNL     1       0.197   9.533  21.858  0.00  0.00    +0.000 S 
ATOM     22  O   UNL     1      -0.669   9.222  22.971  0.00  0.00    +0.000 OA
ATOM     23  O   UNL     1       1.498  10.141  22.093  0.00  0.00    +0.000 OA
BRANCH  21  24
ATOM     24  N   UNL     1      -0.642  10.530  20.775  0.00  0.00    +0.000 NA
ATOM     25  C   UNL     1      -0.911  11.957  21.174  0.00  0.00    +0.000 C 
ATOM     26  C   UNL     1       0.357  12.827  21.159  0.00  0.00    +0.000 C 
ATOM     27  N   UNL     1       0.952  12.769  19.816  0.00  0.00    +0.000 N 
ATOM     28  C   UNL     1       1.192  11.420  19.257  0.00  0.00    +0.000 C 
ATOM     29  C   UNL     1      -0.060  10.526  19.388  0.00  0.00    +0.000 C 
BRANCH  27  30
ATOM     30  C   UNL     1       1.577  13.877  19.266  0.00  0.00    +0.000 A 
ATOM     31  C   UNL     1       1.025  15.168  19.318  0.00  0.00    +0.000 A 
ATOM     32  C   UNL     1       1.634  16.248  18.668  0.00  0.00    +0.000 A 
ATOM     33  C   UNL     1       2.816  16.062  17.959  0.00  0.00    +0.000 A 
ATOM     34  C   UNL     1       3.389  14.797  17.908  0.00  0.00    +0.000 A 
ATOM     35  C   UNL     1       2.772  13.727  18.554  0.00  0.00    +0.000 A 
ENDBRANCH  27  30
ENDBRANCH  21  24
ENDBRANCH  20  21
ENDBRANCH  19  20
ENDBRANCH   3  19
TORSDOF 7
ENDMDL
MODEL 6
REMARK VINA RESULT:      -8.2      2.148      9.101
REMARK  Name = 
REMARK  9 active torsions:
REMARK  status: ('A' for Active; 'I' for Inactive)
REMARK    1  A    between atoms: C_1  and  C_2
REMARK    2  A    between atoms: C_5  and  N_6
REMARK    3  A    between atoms: C_8  and  C_9
REMARK    4  A    between atoms: N_11  and  C_12
REMARK    5  A    between atoms: C_12  and  C_13
REMARK    6  A    between atoms: C_13  and  S_14
REMARK    7  A    between atoms: S_14  and  N_17
REMARK    8  A    between atoms: N_20  and  C_21
REMARK    9  A    between atoms: C_33  and  C_34
REMARK                            x       y       z     vdW  Elec       q    Type
REMARK                         _______ _______ _______ _____ _____    ______ ____
ROOT
ATOM      1  C   UNL     1       1.785   8.156  19.532  0.00  0.00    +0.000 C 
ATOM      2  O   UNL     1       1.380   8.765  20.517  0.00  0.00    +0.000 OA
ATOM      3  N   UNL     1       2.024   6.798  19.543  0.00  0.00    +0.000 N 
ATOM      4  H   UNL     1       2.566   6.383  18.794  0.00  0.00    +0.000 HD
ENDROOT
BRANCH   1   7
ATOM      5  N   UNL     1       0.084  10.198  18.021  0.00  0.00    +0.000 N 
ATOM      6  C   UNL     1       0.672   8.993  17.483  0.00  0.00    +0.000 C 
ATOM      7  C   UNL     1       2.005   8.878  18.218  0.00  0.00    +0.000 C 
ATOM      8  C   UNL     1       2.396  10.324  18.455  0.00  0.00    +0.000 C 
ATOM      9  C   UNL     1       1.060  11.020  18.593  0.00  0.00    +0.000 C 
ATOM     10  O   UNL     1       0.959  12.133  19.077  0.00  0.00    +0.000 OA
BRANCH   5  15
ATOM     11  C   UNL     1      -5.575  11.250  17.852  0.00  0.00    +0.000 C 
ATOM     12  C   UNL     1      -4.098  10.991  17.923  0.00  0.00    +0.000 A 
ATOM     13  C   UNL     1      -3.509  10.119  17.001  0.00  0.00    +0.000 A 
ATOM     14  C   UNL     1      -2.138   9.859  17.033  0.00  0.00    +0.000 A 
ATOM     15  C   UNL     1      -1.314  10.455  17.987  0.00  0.00    +0.000 A 
ATOM     16  C   UNL     1      -1.906  11.339  18.903  0.00  0.00    +0.000 A 
ATOM     17  C   UNL     1      -3.286  11.614  18.885  0.00  0.00    +0.000 A 
ATOM     18  C   UNL     1      -3.857  12.574  19.893  0.00  0.00    +0.000 C 
ENDBRANCH   5  15
ENDBRANCH   1   7
BRANCH   3  19
ATOM     19  C   UNL     1       1.791   5.986  20.750  0.00  0.00    +0.000 C 
BRANCH  19  20
ATOM     20  C   UNL     1       2.600   4.699  20.747  0.00  0.00    +0.000 C 
BRANCH  20  21
ATOM     21  S   UNL     1       1.675   3.208  20.673  0.00  0.00    +0.000 S 
ATOM     22  O   UNL     1       1.566   2.700  22.020  0.00  0.00    +0.000 OA
ATOM     23  O   UNL     1       0.478   3.455  19.885  0.00  0.00    +0.000 OA
BRANCH  21  24
ATOM     24  N   UNL     1       2.669   2.168  19.776  0.00  0.00    +0.000 NA
ATOM     25  C   UNL     1       2.450   2.072  18.290  0.00  0.00    +0.000 C 
ATOM     26  C   UNL     1       2.911   3.332  17.539  0.00  0.00    +0.000 C 
ATOM     27  N   UNL     1       4.331   3.567  17.839  0.00  0.00    +0.000 N 
ATOM     28  C   UNL     1       4.708   3.598  19.269  0.00  0.00    +0.000 C 
ATOM     29  C   UNL     1       4.136   2.381  20.029  0.00  0.00    +0.000 C 
BRANCH  27  30
ATOM     30  C   UNL     1       5.186   4.082  16.877  0.00  0.00    +0.000 A 
ATOM     31  C   UNL     1       4.877   4.085  15.506  0.00  0.00    +0.000 A 
ATOM     32  C   UNL     1       5.804   4.523  14.552  0.00  0.00    +0.000 A 
ATOM     33  C   UNL     1       7.057   4.977  14.950  0.00  0.00    +0.000 A 
ATOM     34  C   UNL     1       7.377   4.998  16.302  0.00  0.00    +0.000 A 
ATOM     35  C   UNL     1       6.450   4.556  17.243  0.00  0.00    +0.000 A 
ENDBRANCH  27  30
ENDBRANCH  21  24
ENDBRANCH  20  21
ENDBRANCH  19  20
ENDBRANCH   3  19
TORSDOF 7
ENDMDL
MODEL 7
REMARK VINA RESULT:      -8.2      5.998      9.754
REMARK  Name = 
REMARK  9 active torsions:
REMARK  status: ('A' for Active; 'I' for Inactive)
REMARK    1  A    between atoms: C_1  and  C_2
REMARK    2  A    between atoms: C_5  and  N_6
REMARK    3  A    between atoms: C_8  and  C_9
REMARK    4  A    between atoms: N_11  and  C_12
REMARK    5  A    between atoms: C_12  and  C_13
REMARK    6  A    between atoms: C_13  and  S_14
REMARK    7  A    between atoms: S_14  and  N_17
REMARK    8  A    between atoms: N_20  and  C_21
REMARK    9  A    between atoms: C_33  and  C_34
REMARK                            x       y       z     vdW  Elec       q    Type
REMARK                         _______ _______ _______ _____ _____    ______ ____
ROOT
ATOM      1  C   UNL     1       9.001  10.088  18.509  0.00  0.00    +0.000 C 
ATOM      2  O   UNL     1       9.039   9.881  19.717  0.00  0.00    +0.000 OA
ATOM      3  N   UNL     1       8.496   9.170  17.612  0.00  0.00    +0.000 N 
ATOM      4  H   UNL     1       8.692   9.282  16.624  0.00  0.00    +0.000 HD
ENDROOT
BRANCH   1   7
ATOM      5  N   UNL     1       9.915  12.675  19.856  0.00  0.00    +0.000 N 
ATOM      6  C   UNL     1       8.937  12.547  18.799  0.00  0.00    +0.000 C 
ATOM      7  C   UNL     1       9.478  11.408  17.939  0.00  0.00    +0.000 C 
ATOM      8  C   UNL     1      10.981  11.547  18.084  0.00  0.00    +0.000 C 
ATOM      9  C   UNL     1      11.138  12.114  19.478  0.00  0.00    +0.000 C 
ATOM     10  O   UNL     1      12.203  12.093  20.068  0.00  0.00    +0.000 OA
BRANCH   5  15
ATOM     11  C   UNL     1       8.673  15.072  24.942  0.00  0.00    +0.000 C 
ATOM     12  C   UNL     1       9.016  14.472  23.610  0.00  0.00    +0.000 A 
ATOM     13  C   UNL     1       8.589  13.172  23.314  0.00  0.00    +0.000 A 
ATOM     14  C   UNL     1       8.883  12.584  22.083  0.00  0.00    +0.000 A 
ATOM     15  C   UNL     1       9.616  13.268  21.113  0.00  0.00    +0.000 A 
ATOM     16  C   UNL     1      10.032  14.576  21.410  0.00  0.00    +0.000 A 
ATOM     17  C   UNL     1       9.743  15.186  22.644  0.00  0.00    +0.000 A 
ATOM     18  C   UNL     1      10.215  16.592  22.898  0.00  0.00    +0.000 C 
ENDBRANCH   5  15
ENDBRANCH   1   7
BRANCH   3  19
ATOM     19  C   UNL     1       7.954   7.875  18.060  0.00  0.00    +0.000 C 
BRANCH  19  20
ATOM     20  C   UNL     1       6.597   7.573  17.448  0.00  0.00    +0.000 C 
BRANCH  20  21
ATOM     21  S   UNL     1       6.560   6.290  16.250  0.00  0.00    +0.000 S 
ATOM     22  O   UNL     1       5.304   6.393  15.544  0.00  0.00    +0.000 OA
ATOM     23  O   UNL     1       7.815   6.317  15.516  0.00  0.00    +0.000 OA
BRANCH  21  24
ATOM     24  N   UNL     1       6.547   4.874  17.182  0.00  0.00    +0.000 NA
ATOM     25  C   UNL     1       6.275   4.991  18.658  0.00  0.00    +0.000 C 
ATOM     26  C   UNL     1       4.808   5.334  18.967  0.00  0.00    +0.000 C 
ATOM     27  N   UNL     1       3.946   4.310  18.362  0.00  0.00    +0.000 N 
ATOM     28  C   UNL     1       4.165   4.026  16.926  0.00  0.00    +0.000 C 
ATOM     29  C   UNL     1       5.660   3.798  16.618  0.00  0.00    +0.000 C 
BRANCH  27  30
ATOM     30  C   UNL     1       2.779   3.902  18.987  0.00  0.00    +0.000 A 
ATOM     31  C   UNL     1       2.481   4.213  20.325  0.00  0.00    +0.000 A 
ATOM     32  C   UNL     1       1.340   3.703  20.956  0.00  0.00    +0.000 A 
ATOM     33  C   UNL     1       0.465   2.877  20.258  0.00  0.00    +0.000 A 
ATOM     34  C   UNL     1       0.730   2.569  18.929  0.00  0.00    +0.000 A 
ATOM     35  C   UNL     1       1.872   3.078  18.312  0.00  0.00    +0.000 A 
ENDBRANCH  27  30
ENDBRANCH  21  24
ENDBRANCH  20  21
ENDBRANCH  19  20
ENDBRANCH   3  19
TORSDOF 7
ENDMDL
MODEL 8
REMARK VINA RESULT:      -8.2      2.556      9.475
REMARK  Name = 
REMARK  9 active torsions:
REMARK  status: ('A' for Active; 'I' for Inactive)
REMARK    1  A    between atoms: C_1  and  C_2
REMARK    2  A    between atoms: C_5  and  N_6
REMARK    3  A    between atoms: C_8  and  C_9
REMARK    4  A    between atoms: N_11  and  C_12
REMARK    5  A    between atoms: C_12  and  C_13
REMARK    6  A    between atoms: C_13  and  S_14
REMARK    7  A    between atoms: S_14  and  N_17
REMARK    8  A    between atoms: N_20  and  C_21
REMARK    9  A    between atoms: C_33  and  C_34
REMARK                            x       y       z     vdW  Elec       q    Type
REMARK                         _______ _______ _______ _____ _____    ______ ____
ROOT
ATOM      1  C   UNL     1       1.460   8.711  19.206  0.00  0.00    +0.000 C 
ATOM      2  O   UNL     1       1.142   8.649  20.389  0.00  0.00    +0.000 OA
ATOM      3  N   UNL     1       2.234   7.748  18.592  0.00  0.00    +0.000 N 
ATOM      4  H   UNL     1       2.658   7.950  17.694  0.00  0.00    +0.000 HD
ENDROOT
BRANCH   1   7
ATOM      5  N   UNL     1      -0.089  11.260  19.872  0.00  0.00    +0.000 N 
ATOM      6  C   UNL     1      -0.399  10.304  18.833  0.00  0.00    +0.000 C 
ATOM      7  C   UNL     1       0.971   9.850  18.336  0.00  0.00    +0.000 C 
ATOM      8  C   UNL     1       1.834  11.083  18.524  0.00  0.00    +0.000 C 
ATOM      9  C   UNL     1       1.209  11.756  19.726  0.00  0.00    +0.000 C 
ATOM     10  O   UNL     1       1.792  12.618  20.359  0.00  0.00    +0.000 OA
BRANCH   5  15
ATOM     11  C   UNL     1      -3.795  12.574  24.079  0.00  0.00    +0.000 C 
ATOM     12  C   UNL     1      -2.844  12.252  22.964  0.00  0.00    +0.000 A 
ATOM     13  C   UNL     1      -1.725  11.453  23.226  0.00  0.00    +0.000 A 
ATOM     14  C   UNL     1      -0.822  11.128  22.212  0.00  0.00    +0.000 A 
ATOM     15  C   UNL     1      -1.003  11.592  20.910  0.00  0.00    +0.000 A 
ATOM     16  C   UNL     1      -2.133  12.383  20.648  0.00  0.00    +0.000 A 
ATOM     17  C   UNL     1      -3.055  12.720  21.656  0.00  0.00    +0.000 A 
ATOM     18  C   UNL     1      -4.248  13.569  21.308  0.00  0.00    +0.000 C 
ENDBRANCH   5  15
ENDBRANCH   1   7
BRANCH   3  19
ATOM     19  C   UNL     1       2.720   6.567  19.328  0.00  0.00    +0.000 C 
BRANCH  19  20
ATOM     20  C   UNL     1       1.937   5.310  18.987  0.00  0.00    +0.000 C 
BRANCH  20  21
ATOM     21  S   UNL     1       1.938   4.047  20.206  0.00  0.00    +0.000 S 
ATOM     22  O   UNL     1       2.663   4.549  21.349  0.00  0.00    +0.000 OA
ATOM     23  O   UNL     1       0.575   3.563  20.359  0.00  0.00    +0.000 OA
BRANCH  21  24
ATOM     24  N   UNL     1       2.841   2.804  19.490  0.00  0.00    +0.000 NA
ATOM     25  C   UNL     1       2.610   2.495  18.035  0.00  0.00    +0.000 C 
ATOM     26  C   UNL     1       3.168   3.583  17.101  0.00  0.00    +0.000 C 
ATOM     27  N   UNL     1       4.603   3.747  17.373  0.00  0.00    +0.000 N 
ATOM     28  C   UNL     1       4.986   3.970  18.785  0.00  0.00    +0.000 C 
ATOM     29  C   UNL     1       4.322   2.936  19.719  0.00  0.00    +0.000 C 
BRANCH  27  30
ATOM     30  C   UNL     1       5.492   4.036  16.351  0.00  0.00    +0.000 A 
ATOM     31  C   UNL     1       6.732   4.660  16.572  0.00  0.00    +0.000 A 
ATOM     32  C   UNL     1       7.564   5.027  15.507  0.00  0.00    +0.000 A 
ATOM     33  C   UNL     1       7.177   4.768  14.196  0.00  0.00    +0.000 A 
ATOM     34  C   UNL     1       5.963   4.137  13.954  0.00  0.00    +0.000 A 
ATOM     35  C   UNL     1       5.140   3.781  15.021  0.00  0.00    +0.000 A 
ENDBRANCH  27  30
ENDBRANCH  21  24
ENDBRANCH  20  21
ENDBRANCH  19  20
ENDBRANCH   3  19
TORSDOF 7
ENDMDL
MODEL 9
REMARK VINA RESULT:      -8.1      2.026      9.073
REMARK  Name = 
REMARK  9 active torsions:
REMARK  status: ('A' for Active; 'I' for Inactive)
REMARK    1  A    between atoms: C_1  and  C_2
REMARK    2  A    between atoms: C_5  and  N_6
REMARK    3  A    between atoms: C_8  and  C_9
REMARK    4  A    between atoms: N_11  and  C_12
REMARK    5  A    between atoms: C_12  and  C_13
REMARK    6  A    between atoms: C_13  and  S_14
REMARK    7  A    between atoms: S_14  and  N_17
REMARK    8  A    between atoms: N_20  and  C_21
REMARK    9  A    between atoms: C_33  and  C_34
REMARK                            x       y       z     vdW  Elec       q    Type
REMARK                         _______ _______ _______ _____ _____    ______ ____
ROOT
ATOM      1  C   UNL     1       1.348   7.943  20.780  0.00  0.00    +0.000 C 
ATOM      2  O   UNL     1       0.351   7.447  21.295  0.00  0.00    +0.000 OA
ATOM      3  N   UNL     1       2.187   7.232  19.948  0.00  0.00    +0.000 N 
ATOM      4  H   UNL     1       3.105   7.605  19.733  0.00  0.00    +0.000 HD
ENDROOT
BRANCH   1   7
ATOM      5  N   UNL     1      -0.289  10.494  20.385  0.00  0.00    +0.000 N 
ATOM      6  C   UNL     1       1.047  10.238  19.898  0.00  0.00    +0.000 C 
ATOM      7  C   UNL     1       1.684   9.403  21.005  0.00  0.00    +0.000 C 
ATOM      8  C   UNL     1       1.015   9.923  22.262  0.00  0.00    +0.000 C 
ATOM      9  C   UNL     1      -0.356  10.334  21.772  0.00  0.00    +0.000 C 
ATOM     10  O   UNL     1      -1.283  10.530  22.537  0.00  0.00    +0.000 OA
BRANCH   5  15
ATOM     11  C   UNL     1      -4.696  11.824  16.925  0.00  0.00    +0.000 C 
ATOM     12  C   UNL     1      -3.534  11.460  17.804  0.00  0.00    +0.000 A 
ATOM     13  C   UNL     1      -3.377  12.107  19.035  0.00  0.00    +0.000 A 
ATOM     14  C   UNL     1      -2.313  11.790  19.881  0.00  0.00    +0.000 A 
ATOM     15  C   UNL     1      -1.372  10.825  19.525  0.00  0.00    +0.000 A 
ATOM     16  C   UNL     1      -1.540  10.170  18.295  0.00  0.00    +0.000 A 
ATOM     17  C   UNL     1      -2.606  10.474  17.429  0.00  0.00    +0.000 A 
ATOM     18  C   UNL     1      -2.731   9.732  16.126  0.00  0.00    +0.000 C 
ENDBRANCH   5  15
ENDBRANCH   1   7
BRANCH   3  19
ATOM     19  C   UNL     1       1.926   5.821  19.614  0.00  0.00    +0.000 C 
BRANCH  19  20
ATOM     20  C   UNL     1       2.645   4.863  20.549  0.00  0.00    +0.000 C 
BRANCH  20  21
ATOM     21  S   UNL     1       1.896   3.290  20.766  0.00  0.00    +0.000 S 
ATOM     22  O   UNL     1       1.969   2.966  22.172  0.00  0.00    +0.000 OA
ATOM     23  O   UNL     1       0.611   3.301  20.085  0.00  0.00    +0.000 OA
BRANCH  21  24
ATOM     24  N   UNL     1       2.916   2.241  19.911  0.00  0.00    +0.000 NA
ATOM     25  C   UNL     1       2.656   2.026  18.444  0.00  0.00    +0.000 C 
ATOM     26  C   UNL     1       3.023   3.251  17.589  0.00  0.00    +0.000 C 
ATOM     27  N   UNL     1       4.436   3.581  17.821  0.00  0.00    +0.000 N 
ATOM     28  C   UNL     1       4.856   3.735  19.232  0.00  0.00    +0.000 C 
ATOM     29  C   UNL     1       4.376   2.549  20.095  0.00  0.00    +0.000 C 
BRANCH  27  30
ATOM     30  C   UNL     1       5.230   4.069  16.796  0.00  0.00    +0.000 A 
ATOM     31  C   UNL     1       4.925   3.877  15.437  0.00  0.00    +0.000 A 
ATOM     32  C   UNL     1       5.799   4.297  14.428  0.00  0.00    +0.000 A 
ATOM     33  C   UNL     1       6.994   4.929  14.755  0.00  0.00    +0.000 A 
ATOM     34  C   UNL     1       7.309   5.144  16.091  0.00  0.00    +0.000 A 
ATOM     35  C   UNL     1       6.435   4.717  17.089  0.00  0.00    +0.000 A 
ENDBRANCH  27  30
ENDBRANCH  21  24
ENDBRANCH  20  21
ENDBRANCH  19  20
ENDBRANCH   3  19
TORSDOF 7
ENDMDL
