MODEL 1
REMARK VINA RESULT:      -7.6      0.000      0.000
REMARK  Name = 
REMARK  8 active torsions:
REMARK  status: ('A' for Active; 'I' for Inactive)
REMARK    1  A    between atoms: C_1  and  C_2
REMARK    2  A    between atoms: C_2  and  C_3
REMARK    3  A    between atoms: N_5  and  C_6
REMARK    4  A    between atoms: C_17  and  C_18
REMARK    5  A    between atoms: C_18  and  C_19
REMARK    6  A    between atoms: C_22  and  N_23
REMARK    7  A    between atoms: N_23  and  C_24
REMARK    8  A    between atoms: N_23  and  C_25
REMARK                            x       y       z     vdW  Elec       q    Type
REMARK                         _______ _______ _______ _____ _____    ______ ____
ROOT
ATOM      1  C   UNL     1      -3.863  11.805  18.979  0.00  0.00    +0.000 A 
ATOM      2  N   UNL     1      -3.688  12.708  19.951  0.00  0.00    +0.000 NA
ATOM      3  N   UNL     1      -2.350  12.698  20.239  0.00  0.00    +0.000 N 
ATOM      4  C   UNL     1      -1.692  11.778  19.427  0.00  0.00    +0.000 A 
ATOM      5  N   UNL     1      -0.366  11.477  19.424  0.00  0.00    +0.000 NA
ATOM      6  C   UNL     1      -0.009  10.640  18.491  0.00  0.00    +0.000 A 
ATOM      7  N   UNL     1      -0.896  10.014  17.632  0.00  0.00    +0.000 N 
ATOM      8  C   UNL     1      -2.260  10.227  17.656  0.00  0.00    +0.000 A 
ATOM      9  O   UNL     1      -3.032   9.625  16.912  0.00  0.00    +0.000 OA
ATOM     10  C   UNL     1      -2.650  11.212  18.619  0.00  0.00    +0.000 A 
ATOM     11  H   UNL     1      -0.571   9.325  16.966  0.00  0.00    +0.000 HD
ENDROOT
BRANCH   3  12
ATOM     12  C   UNL     1      -1.824  13.561  21.247  0.00  0.00    +0.000 A 
ATOM     13  C   UNL     1      -1.037  14.681  20.885  0.00  0.00    +0.000 A 
ATOM     14 CL   UNL     1      -0.739  15.206  19.256  0.00  0.00    +0.000 Cl
ATOM     15  C   UNL     1      -0.501  15.532  21.864  0.00  0.00    +0.000 A 
ATOM     16  C   UNL     1      -0.768  15.309  23.206  0.00  0.00    +0.000 A 
ATOM     17 CL   UNL     1      -0.111  16.356  24.400  0.00  0.00    +0.000 Cl
ATOM     18  C   UNL     1      -1.544  14.225  23.587  0.00  0.00    +0.000 A 
ATOM     19  C   UNL     1      -2.042  13.332  22.623  0.00  0.00    +0.000 A 
ATOM     20 CL   UNL     1      -2.696  11.879  23.309  0.00  0.00    +0.000 Cl
ENDBRANCH   3  12
BRANCH   1  22
ATOM     21  C   UNL     1      -5.422  12.268  17.060  0.00  0.00    +0.000 C 
ATOM     22  C   UNL     1      -5.216  11.565  18.393  0.00  0.00    +0.000 C 
ENDBRANCH   1  22
BRANCH   6  23
ATOM     23  C   UNL     1       1.457  10.328  18.270  0.00  0.00    +0.000 C 
BRANCH  23  24
ATOM     24  C   UNL     1       1.882   8.951  18.705  0.00  0.00    +0.000 A 
ATOM     25  C   UNL     1       1.547   8.489  19.978  0.00  0.00    +0.000 A 
ATOM     26  C   UNL     1       1.832   7.169  20.362  0.00  0.00    +0.000 A 
ATOM     27  C   UNL     1       2.471   6.256  19.508  0.00  0.00    +0.000 A 
ATOM     28  C   UNL     1       2.815   6.756  18.242  0.00  0.00    +0.000 A 
ATOM     29  C   UNL     1       2.511   8.061  17.836  0.00  0.00    +0.000 A 
BRANCH  27  30
ATOM     30  N   UNL     1       2.785   4.959  19.887  0.00  0.00    +0.000 N 
ATOM     31  C   UNL     1       2.197   4.352  21.081  0.00  0.00    +0.000 C 
ATOM     32  C   UNL     1       3.957   4.257  19.375  0.00  0.00    +0.000 C 
ENDBRANCH  27  30
ENDBRANCH  23  24
ENDBRANCH   6  23
TORSDOF 5
ENDMDL
MODEL 2
REMARK VINA RESULT:      -7.6      0.451      1.144
REMARK  Name = 
REMARK  8 active torsions:
REMARK  status: ('A' for Active; 'I' for Inactive)
REMARK    1  A    between atoms: C_1  and  C_2
REMARK    2  A    between atoms: C_2  and  C_3
REMARK    3  A    between atoms: N_5  and  C_6
REMARK    4  A    between atoms: C_17  and  C_18
REMARK    5  A    between atoms: C_18  and  C_19
REMARK    6  A    between atoms: C_22  and  N_23
REMARK    7  A    between atoms: N_23  and  C_24
REMARK    8  A    between atoms: N_23  and  C_25
REMARK                            x       y       z     vdW  Elec       q    Type
REMARK                         _______ _______ _______ _____ _____    ______ ____
ROOT
ATOM      1  C   UNL     1      -3.577  11.722  18.829  0.00  0.00    +0.000 A 
ATOM      2  N   UNL     1      -3.372  12.649  19.772  0.00  0.00    +0.000 NA
ATOM      3  N   UNL     1      -2.032  12.609  20.055  0.00  0.00    +0.000 N 
ATOM      4  C   UNL     1      -1.405  11.646  19.269  0.00  0.00    +0.000 A 
ATOM      5  N   UNL     1      -0.089  11.308  19.270  0.00  0.00    +0.000 NA
ATOM      6  C   UNL     1       0.240  10.433  18.362  0.00  0.00    +0.000 A 
ATOM      7  N   UNL     1      -0.668   9.806  17.525  0.00  0.00    +0.000 N 
ATOM      8  C   UNL     1      -2.026  10.059  17.549  0.00  0.00    +0.000 A 
ATOM      9  O   UNL     1      -2.818   9.457  16.827  0.00  0.00    +0.000 OA
ATOM     10  C   UNL     1      -2.383  11.084  18.483  0.00  0.00    +0.000 A 
ATOM     11  H   UNL     1      -0.367   9.088  16.880  0.00  0.00    +0.000 HD
ENDROOT
BRANCH   3  12
ATOM     12  C   UNL     1      -1.477  13.488  21.034  0.00  0.00    +0.000 A 
ATOM     13  C   UNL     1      -0.720  14.614  20.631  0.00  0.00    +0.000 A 
ATOM     14 CL   UNL     1      -0.495  15.129  18.988  0.00  0.00    +0.000 Cl
ATOM     15  C   UNL     1      -0.156  15.480  21.581  0.00  0.00    +0.000 A 
ATOM     16  C   UNL     1      -0.366  15.265  22.934  0.00  0.00    +0.000 A 
ATOM     17 CL   UNL     1       0.326  16.330  24.092  0.00  0.00    +0.000 Cl
ATOM     18  C   UNL     1      -1.112  14.174  23.355  0.00  0.00    +0.000 A 
ATOM     19  C   UNL     1      -1.636  13.267  22.419  0.00  0.00    +0.000 A 
ATOM     20 CL   UNL     1      -2.244  11.812  23.142  0.00  0.00    +0.000 Cl
ENDBRANCH   3  12
BRANCH   1  22
ATOM     21  C   UNL     1      -5.089  12.053  16.845  0.00  0.00    +0.000 C 
ATOM     22  C   UNL     1      -4.938  11.503  18.255  0.00  0.00    +0.000 C 
ENDBRANCH   1  22
BRANCH   6  23
ATOM     23  C   UNL     1       1.695  10.072  18.145  0.00  0.00    +0.000 C 
BRANCH  23  24
ATOM     24  C   UNL     1       2.066   8.670  18.549  0.00  0.00    +0.000 A 
ATOM     25  C   UNL     1       2.852   7.887  17.704  0.00  0.00    +0.000 A 
ATOM     26  C   UNL     1       3.304   6.621  18.111  0.00  0.00    +0.000 A 
ATOM     27  C   UNL     1       2.987   6.073  19.363  0.00  0.00    +0.000 A 
ATOM     28  C   UNL     1       2.177   6.875  20.183  0.00  0.00    +0.000 A 
ATOM     29  C   UNL     1       1.742   8.150  19.802  0.00  0.00    +0.000 A 
BRANCH  27  30
ATOM     30  N   UNL     1       3.403   4.812  19.764  0.00  0.00    +0.000 N 
ATOM     31  C   UNL     1       4.568   4.167  19.159  0.00  0.00    +0.000 C 
ATOM     32  C   UNL     1       2.538   3.903  20.509  0.00  0.00    +0.000 C 
ENDBRANCH  27  30
ENDBRANCH  23  24
ENDBRANCH   6  23
TORSDOF 5
ENDMDL
MODEL 3
REMARK VINA RESULT:      -7.5      0.303      1.732
REMARK  Name = 
REMARK  8 active torsions:
REMARK  status: ('A' for Active; 'I' for Inactive)
REMARK    1  A    between atoms: C_1  and  C_2
REMARK    2  A    between atoms: C_2  and  C_3
REMARK    3  A    between atoms: N_5  and  C_6
REMARK    4  A    between atoms: C_17  and  C_18
REMARK    5  A    between atoms: C_18  and  C_19
REMARK    6  A    between atoms: C_22  and  N_23
REMARK    7  A    between atoms: N_23  and  C_24
REMARK    8  A    between atoms: N_23  and  C_25
REMARK                            x       y       z     vdW  Elec       q    Type
REMARK                         _______ _______ _______ _____ _____    ______ ____
ROOT
ATOM      1  C   UNL     1      -3.708  11.855  18.891  0.00  0.00    +0.000 A 
ATOM      2  N   UNL     1      -3.521  12.773  19.847  0.00  0.00    +0.000 NA
ATOM      3  N   UNL     1      -2.186  12.736  20.149  0.00  0.00    +0.000 N 
ATOM      4  C   UNL     1      -1.543  11.785  19.363  0.00  0.00    +0.000 A 
ATOM      5  N   UNL     1      -0.225  11.452  19.380  0.00  0.00    +0.000 NA
ATOM      6  C   UNL     1       0.121  10.588  18.468  0.00  0.00    +0.000 A 
ATOM      7  N   UNL     1      -0.772   9.966  17.612  0.00  0.00    +0.000 N 
ATOM      8  C   UNL     1      -2.130  10.212  17.617  0.00  0.00    +0.000 A 
ATOM      9  O   UNL     1      -2.909   9.614  16.877  0.00  0.00    +0.000 OA
ATOM     10  C   UNL     1      -2.506  11.226  18.556  0.00  0.00    +0.000 A 
ATOM     11  H   UNL     1      -0.457   9.256  16.964  0.00  0.00    +0.000 HD
ENDROOT
BRANCH   3  12
ATOM     12  C   UNL     1      -1.650  13.607  21.145  0.00  0.00    +0.000 A 
ATOM     13  C   UNL     1      -1.927  13.377  22.515  0.00  0.00    +0.000 A 
ATOM     14 CL   UNL     1      -2.789  12.006  23.141  0.00  0.00    +0.000 Cl
ATOM     15  C   UNL     1      -1.418  14.231  23.505  0.00  0.00    +0.000 A 
ATOM     16  C   UNL     1      -0.601  15.296  23.158  0.00  0.00    +0.000 A 
ATOM     17 CL   UNL     1       0.020  16.337  24.377  0.00  0.00    +0.000 Cl
ATOM     18  C   UNL     1      -0.306  15.537  21.825  0.00  0.00    +0.000 A 
ATOM     19  C   UNL     1      -0.853  14.725  20.817  0.00  0.00    +0.000 A 
ATOM     20 CL   UNL     1      -0.643  15.377  19.224  0.00  0.00    +0.000 Cl
ENDBRANCH   3  12
BRANCH   1  22
ATOM     21  C   UNL     1      -6.148  11.437  19.339  0.00  0.00    +0.000 C 
ATOM     22  C   UNL     1      -5.060  11.637  18.295  0.00  0.00    +0.000 C 
ENDBRANCH   1  22
BRANCH   6  23
ATOM     23  C   UNL     1       1.581  10.236  18.269  0.00  0.00    +0.000 C 
BRANCH  23  24
ATOM     24  C   UNL     1       1.963   8.849  18.715  0.00  0.00    +0.000 A 
ATOM     25  C   UNL     1       1.612   8.408  19.991  0.00  0.00    +0.000 A 
ATOM     26  C   UNL     1       1.856   7.082  20.385  0.00  0.00    +0.000 A 
ATOM     27  C   UNL     1       2.468   6.144  19.540  0.00  0.00    +0.000 A 
ATOM     28  C   UNL     1       2.830   6.623  18.271  0.00  0.00    +0.000 A 
ATOM     29  C   UNL     1       2.567   7.934  17.854  0.00  0.00    +0.000 A 
BRANCH  27  30
ATOM     30  N   UNL     1       2.742   4.841  19.930  0.00  0.00    +0.000 N 
ATOM     31  C   UNL     1       2.149   4.268  21.138  0.00  0.00    +0.000 C 
ATOM     32  C   UNL     1       3.882   4.093  19.411  0.00  0.00    +0.000 C 
ENDBRANCH  27  30
ENDBRANCH  23  24
ENDBRANCH   6  23
TORSDOF 5
ENDMDL
MODEL 4
REMARK VINA RESULT:      -7.4      0.450      1.989
REMARK  Name = 
REMARK  8 active torsions:
REMARK  status: ('A' for Active; 'I' for Inactive)
REMARK    1  A    between atoms: C_1  and  C_2
REMARK    2  A    between atoms: C_2  and  C_3
REMARK    3  A    between atoms: N_5  and  C_6
REMARK    4  A    between atoms: C_17  and  C_18
REMARK    5  A    between atoms: C_18  and  C_19
REMARK    6  A    between atoms: C_22  and  N_23
REMARK    7  A    between atoms: N_23  and  C_24
REMARK    8  A    between atoms: N_23  and  C_25
REMARK                            x       y       z     vdW  Elec       q    Type
REMARK                         _______ _______ _______ _____ _____    ______ ____
ROOT
ATOM      1  C   UNL     1      -3.733  11.839  19.012  0.00  0.00    +0.000 A 
ATOM      2  N   UNL     1      -3.558  12.768  19.960  0.00  0.00    +0.000 NA
ATOM      3  N   UNL     1      -2.219  12.767  20.244  0.00  0.00    +0.000 N 
ATOM      4  C   UNL     1      -1.561  11.827  19.456  0.00  0.00    +0.000 A 
ATOM      5  N   UNL     1      -0.235  11.529  19.458  0.00  0.00    +0.000 NA
ATOM      6  C   UNL     1       0.121  10.668  18.546  0.00  0.00    +0.000 A 
ATOM      7  N   UNL     1      -0.767  10.018  17.705  0.00  0.00    +0.000 N 
ATOM      8  C   UNL     1      -2.131  10.229  17.727  0.00  0.00    +0.000 A 
ATOM      9  O   UNL     1      -2.904   9.607  17.002  0.00  0.00    +0.000 OA
ATOM     10  C   UNL     1      -2.520  11.239  18.665  0.00  0.00    +0.000 A 
ATOM     11  H   UNL     1      -0.442   9.312  17.058  0.00  0.00    +0.000 HD
ENDROOT
BRANCH   3  12
ATOM     12  C   UNL     1      -1.692  13.658  21.229  0.00  0.00    +0.000 A 
ATOM     13  C   UNL     1      -1.962  13.440  22.602  0.00  0.00    +0.000 A 
ATOM     14 CL   UNL     1      -2.803  12.065  23.247  0.00  0.00    +0.000 Cl
ATOM     15  C   UNL     1      -1.463  14.314  23.580  0.00  0.00    +0.000 A 
ATOM     16  C   UNL     1      -0.662  15.386  23.217  0.00  0.00    +0.000 A 
ATOM     17 CL   UNL     1      -0.052  16.451  24.421  0.00  0.00    +0.000 Cl
ATOM     18  C   UNL     1      -0.374  15.615  21.881  0.00  0.00    +0.000 A 
ATOM     19  C   UNL     1      -0.911  14.783  20.884  0.00  0.00    +0.000 A 
ATOM     20 CL   UNL     1      -0.715  15.418  19.282  0.00  0.00    +0.000 Cl
ENDBRANCH   3  12
BRANCH   1  22
ATOM     21  C   UNL     1      -5.272  12.187  17.052  0.00  0.00    +0.000 C 
ATOM     22  C   UNL     1      -5.087  11.582  18.435  0.00  0.00    +0.000 C 
ENDBRANCH   1  22
BRANCH   6  23
ATOM     23  C   UNL     1       1.587  10.352  18.330  0.00  0.00    +0.000 C 
BRANCH  23  24
ATOM     24  C   UNL     1       1.968   8.918  18.584  0.00  0.00    +0.000 A 
ATOM     25  C   UNL     1       2.718   8.219  17.637  0.00  0.00    +0.000 A 
ATOM     26  C   UNL     1       3.181   6.921  17.903  0.00  0.00    +0.000 A 
ATOM     27  C   UNL     1       2.912   6.256  19.109  0.00  0.00    +0.000 A 
ATOM     28  C   UNL     1       2.139   6.975  20.033  0.00  0.00    +0.000 A 
ATOM     29  C   UNL     1       1.694   8.281  19.794  0.00  0.00    +0.000 A 
BRANCH  27  30
ATOM     30  N   UNL     1       3.340   4.962  19.370  0.00  0.00    +0.000 N 
ATOM     31  C   UNL     1       4.756   4.603  19.311  0.00  0.00    +0.000 C 
ATOM     32  C   UNL     1       2.432   3.820  19.351  0.00  0.00    +0.000 C 
ENDBRANCH  27  30
ENDBRANCH  23  24
ENDBRANCH   6  23
TORSDOF 5
ENDMDL
MODEL 5
REMARK VINA RESULT:      -7.3      5.069      8.451
REMARK  Name = 
REMARK  8 active torsions:
REMARK  status: ('A' for Active; 'I' for Inactive)
REMARK    1  A    between atoms: C_1  and  C_2
REMARK    2  A    between atoms: C_2  and  C_3
REMARK    3  A    between atoms: N_5  and  C_6
REMARK    4  A    between atoms: C_17  and  C_18
REMARK    5  A    between atoms: C_18  and  C_19
REMARK    6  A    between atoms: C_22  and  N_23
REMARK    7  A    between atoms: N_23  and  C_24
REMARK    8  A    between atoms: N_23  and  C_25
REMARK                            x       y       z     vdW  Elec       q    Type
REMARK                         _______ _______ _______ _____ _____    ______ ____
ROOT
ATOM      1  C   UNL     1       2.463   4.536  20.714  0.00  0.00    +0.000 A 
ATOM      2  N   UNL     1       1.804   5.695  20.597  0.00  0.00    +0.000 NA
ATOM      3  N   UNL     1       2.556   6.473  19.758  0.00  0.00    +0.000 N 
ATOM      4  C   UNL     1       3.691   5.780  19.349  0.00  0.00    +0.000 A 
ATOM      5  N   UNL     1       4.679   6.221  18.527  0.00  0.00    +0.000 NA
ATOM      6  C   UNL     1       5.579   5.323  18.240  0.00  0.00    +0.000 A 
ATOM      7  N   UNL     1       5.611   4.055  18.794  0.00  0.00    +0.000 N 
ATOM      8  C   UNL     1       4.675   3.594  19.699  0.00  0.00    +0.000 A 
ATOM      9  O   UNL     1       4.750   2.479  20.211  0.00  0.00    +0.000 OA
ATOM     10  C   UNL     1       3.633   4.544  19.950  0.00  0.00    +0.000 A 
ATOM     11  H   UNL     1       6.369   3.418  18.584  0.00  0.00    +0.000 HD
ENDROOT
BRANCH   3  12
ATOM     12  C   UNL     1       2.125   7.792  19.421  0.00  0.00    +0.000 A 
ATOM     13  C   UNL     1       1.364   8.550  20.344  0.00  0.00    +0.000 A 
ATOM     14 CL   UNL     1       0.994   8.062  21.969  0.00  0.00    +0.000 Cl
ATOM     15  C   UNL     1       0.921   9.842  20.023  0.00  0.00    +0.000 A 
ATOM     16  C   UNL     1       1.257  10.414  18.805  0.00  0.00    +0.000 A 
ATOM     17 CL   UNL     1       0.713  11.998  18.419  0.00  0.00    +0.000 Cl
ATOM     18  C   UNL     1       2.009   9.697  17.888  0.00  0.00    +0.000 A 
ATOM     19  C   UNL     1       2.413   8.381  18.171  0.00  0.00    +0.000 A 
ATOM     20 CL   UNL     1       3.047   7.547  16.788  0.00  0.00    +0.000 Cl
ENDBRANCH   3  12
BRANCH   1  22
ATOM     21  C   UNL     1       1.187   2.368  20.728  0.00  0.00    +0.000 C 
ATOM     22  C   UNL     1       1.913   3.425  21.546  0.00  0.00    +0.000 C 
ENDBRANCH   1  22
BRANCH   6  23
ATOM     23  C   UNL     1       6.656   5.625  17.218  0.00  0.00    +0.000 C 
BRANCH  23  24
ATOM     24  C   UNL     1       6.397   5.067  15.844  0.00  0.00    +0.000 A 
ATOM     25  C   UNL     1       7.384   5.149  14.862  0.00  0.00    +0.000 A 
ATOM     26  C   UNL     1       7.208   4.535  13.612  0.00  0.00    +0.000 A 
ATOM     27  C   UNL     1       6.043   3.827  13.277  0.00  0.00    +0.000 A 
ATOM     28  C   UNL     1       5.059   3.780  14.277  0.00  0.00    +0.000 A 
ATOM     29  C   UNL     1       5.232   4.363  15.538  0.00  0.00    +0.000 A 
BRANCH  27  30
ATOM     30  N   UNL     1       5.846   3.242  12.035  0.00  0.00    +0.000 N 
ATOM     31  C   UNL     1       4.519   3.191  11.420  0.00  0.00    +0.000 C 
ATOM     32  C   UNL     1       6.817   2.333  11.435  0.00  0.00    +0.000 C 
ENDBRANCH  27  30
ENDBRANCH  23  24
ENDBRANCH   6  23
TORSDOF 5
ENDMDL
MODEL 6
REMARK VINA RESULT:      -7.2      5.079      8.311
REMARK  Name = 
REMARK  8 active torsions:
REMARK  status: ('A' for Active; 'I' for Inactive)
REMARK    1  A    between atoms: C_1  and  C_2
REMARK    2  A    between atoms: C_2  and  C_3
REMARK    3  A    between atoms: N_5  and  C_6
REMARK    4  A    between atoms: C_17  and  C_18
REMARK    5  A    between atoms: C_18  and  C_19
REMARK    6  A    between atoms: C_22  and  N_23
REMARK    7  A    between atoms: N_23  and  C_24
REMARK    8  A    between atoms: N_23  and  C_25
REMARK                            x       y       z     vdW  Elec       q    Type
REMARK                         _______ _______ _______ _____ _____    ______ ____
ROOT
ATOM      1  C   UNL     1       2.372   4.450  20.647  0.00  0.00    +0.000 A 
ATOM      2  N   UNL     1       1.718   5.613  20.543  0.00  0.00    +0.000 NA
ATOM      3  N   UNL     1       2.500   6.418  19.759  0.00  0.00    +0.000 N 
ATOM      4  C   UNL     1       3.650   5.736  19.371  0.00  0.00    +0.000 A 
ATOM      5  N   UNL     1       4.668   6.204  18.602  0.00  0.00    +0.000 NA
ATOM      6  C   UNL     1       5.579   5.314  18.320  0.00  0.00    +0.000 A 
ATOM      7  N   UNL     1       5.590   4.028  18.833  0.00  0.00    +0.000 N 
ATOM      8  C   UNL     1       4.620   3.539  19.686  0.00  0.00    +0.000 A 
ATOM      9  O   UNL     1       4.676   2.408  20.164  0.00  0.00    +0.000 OA
ATOM     10  C   UNL     1       3.570   4.482  19.929  0.00  0.00    +0.000 A 
ATOM     11  H   UNL     1       6.355   3.398  18.631  0.00  0.00    +0.000 HD
ENDROOT
BRANCH   3  12
ATOM     12  C   UNL     1       2.082   7.747  19.449  0.00  0.00    +0.000 A 
ATOM     13  C   UNL     1       2.357   8.300  18.175  0.00  0.00    +0.000 A 
ATOM     14 CL   UNL     1       3.072   7.439  16.847  0.00  0.00    +0.000 Cl
ATOM     15  C   UNL     1       1.965   9.610  17.859  0.00  0.00    +0.000 A 
ATOM     16  C   UNL     1       1.265  10.372  18.782  0.00  0.00    +0.000 A 
ATOM     17 CL   UNL     1       0.786  11.975  18.388  0.00  0.00    +0.000 Cl
ATOM     18  C   UNL     1       0.975   9.851  20.033  0.00  0.00    +0.000 A 
ATOM     19  C   UNL     1       1.409   8.562  20.385  0.00  0.00    +0.000 A 
ATOM     20 CL   UNL     1       1.243   8.222  22.078  0.00  0.00    +0.000 Cl
ENDBRANCH   3  12
BRANCH   1  22
ATOM     21  C   UNL     1       1.120   2.271  20.540  0.00  0.00    +0.000 C 
ATOM     22  C   UNL     1       1.791   3.313  21.421  0.00  0.00    +0.000 C 
ENDBRANCH   1  22
BRANCH   6  23
ATOM     23  C   UNL     1       6.694   5.648  17.350  0.00  0.00    +0.000 C 
BRANCH  23  24
ATOM     24  C   UNL     1       6.574   4.992  16.000  0.00  0.00    +0.000 A 
ATOM     25  C   UNL     1       5.484   4.166  15.722  0.00  0.00    +0.000 A 
ATOM     26  C   UNL     1       5.294   3.637  14.436  0.00  0.00    +0.000 A 
ATOM     27  C   UNL     1       6.177   3.892  13.376  0.00  0.00    +0.000 A 
ATOM     28  C   UNL     1       7.275   4.708  13.691  0.00  0.00    +0.000 A 
ATOM     29  C   UNL     1       7.463   5.266  14.962  0.00  0.00    +0.000 A 
BRANCH  27  30
ATOM     30  N   UNL     1       6.015   3.351  12.109  0.00  0.00    +0.000 N 
ATOM     31  C   UNL     1       4.688   3.199  11.511  0.00  0.00    +0.000 C 
ATOM     32  C   UNL     1       7.059   2.572  11.451  0.00  0.00    +0.000 C 
ENDBRANCH  27  30
ENDBRANCH  23  24
ENDBRANCH   6  23
TORSDOF 5
ENDMDL
MODEL 7
REMARK VINA RESULT:      -7.2      4.570      9.790
REMARK  Name = 
REMARK  8 active torsions:
REMARK  status: ('A' for Active; 'I' for Inactive)
REMARK    1  A    between atoms: C_1  and  C_2
REMARK    2  A    between atoms: C_2  and  C_3
REMARK    3  A    between atoms: N_5  and  C_6
REMARK    4  A    between atoms: C_17  and  C_18
REMARK    5  A    between atoms: C_18  and  C_19
REMARK    6  A    between atoms: C_22  and  N_23
REMARK    7  A    between atoms: N_23  and  C_24
REMARK    8  A    between atoms: N_23  and  C_25
REMARK                            x       y       z     vdW  Elec       q    Type
REMARK                         _______ _______ _______ _____ _____    ______ ____
ROOT
ATOM      1  C   UNL     1       2.791   5.010  20.336  0.00  0.00    +0.000 A 
ATOM      2  N   UNL     1       3.589   4.497  19.393  0.00  0.00    +0.000 NA
ATOM      3  N   UNL     1       3.648   5.435  18.398  0.00  0.00    +0.000 N 
ATOM      4  C   UNL     1       2.879   6.544  18.737  0.00  0.00    +0.000 A 
ATOM      5  N   UNL     1       2.682   7.670  18.003  0.00  0.00    +0.000 NA
ATOM      6  C   UNL     1       1.985   8.590  18.609  0.00  0.00    +0.000 A 
ATOM      7  N   UNL     1       1.394   8.421  19.850  0.00  0.00    +0.000 N 
ATOM      8  C   UNL     1       1.498   7.262  20.593  0.00  0.00    +0.000 A 
ATOM      9  O   UNL     1       0.926   7.120  21.672  0.00  0.00    +0.000 OA
ATOM     10  C   UNL     1       2.336   6.280  19.973  0.00  0.00    +0.000 A 
ATOM     11  H   UNL     1       0.810   9.146  20.247  0.00  0.00    +0.000 HD
ENDROOT
BRANCH   3  12
ATOM     12  C   UNL     1       4.431   5.195  17.227  0.00  0.00    +0.000 A 
ATOM     13  C   UNL     1       4.200   4.039  16.442  0.00  0.00    +0.000 A 
ATOM     14 CL   UNL     1       2.917   2.897  16.702  0.00  0.00    +0.000 Cl
ATOM     15  C   UNL     1       4.969   3.781  15.297  0.00  0.00    +0.000 A 
ATOM     16  C   UNL     1       5.945   4.679  14.894  0.00  0.00    +0.000 A 
ATOM     17 CL   UNL     1       6.882   4.359  13.489  0.00  0.00    +0.000 Cl
ATOM     18  C   UNL     1       6.184   5.823  15.639  0.00  0.00    +0.000 A 
ATOM     19  C   UNL     1       5.462   6.068  16.819  0.00  0.00    +0.000 A 
ATOM     20 CL   UNL     1       6.125   7.357  17.773  0.00  0.00    +0.000 Cl
ENDBRANCH   3  12
BRANCH   1  22
ATOM     21  C   UNL     1       1.676   3.009  21.377  0.00  0.00    +0.000 C 
ATOM     22  C   UNL     1       2.516   4.258  21.597  0.00  0.00    +0.000 C 
ENDBRANCH   1  22
BRANCH   6  23
ATOM     23  C   UNL     1       1.812   9.955  17.975  0.00  0.00    +0.000 C 
BRANCH  23  24
ATOM     24  C   UNL     1       0.446  10.564  18.150  0.00  0.00    +0.000 A 
ATOM     25  C   UNL     1      -0.687   9.861  17.741  0.00  0.00    +0.000 A 
ATOM     26  C   UNL     1      -1.974  10.360  17.999  0.00  0.00    +0.000 A 
ATOM     27  C   UNL     1      -2.193  11.578  18.660  0.00  0.00    +0.000 A 
ATOM     28  C   UNL     1      -1.034  12.273  19.040  0.00  0.00    +0.000 A 
ATOM     29  C   UNL     1       0.255  11.775  18.814  0.00  0.00    +0.000 A 
BRANCH  27  30
ATOM     30  N   UNL     1      -3.459  12.095  18.893  0.00  0.00    +0.000 N 
ATOM     31  C   UNL     1      -3.806  12.708  20.175  0.00  0.00    +0.000 C 
ATOM     32  C   UNL     1      -4.610  11.748  18.066  0.00  0.00    +0.000 C 
ENDBRANCH  27  30
ENDBRANCH  23  24
ENDBRANCH   6  23
TORSDOF 5
ENDMDL
MODEL 8
REMARK VINA RESULT:      -7.2      1.490      1.968
REMARK  Name = 
REMARK  8 active torsions:
REMARK  status: ('A' for Active; 'I' for Inactive)
REMARK    1  A    between atoms: C_1  and  C_2
REMARK    2  A    between atoms: C_2  and  C_3
REMARK    3  A    between atoms: N_5  and  C_6
REMARK    4  A    between atoms: C_17  and  C_18
REMARK    5  A    between atoms: C_18  and  C_19
REMARK    6  A    between atoms: C_22  and  N_23
REMARK    7  A    between atoms: N_23  and  C_24
REMARK    8  A    between atoms: N_23  and  C_25
REMARK                            x       y       z     vdW  Elec       q    Type
REMARK                         _______ _______ _______ _____ _____    ______ ____
ROOT
ATOM      1  C   UNL     1      -4.926  12.318  19.254  0.00  0.00    +0.000 A 
ATOM      2  N   UNL     1      -4.932  13.110  20.333  0.00  0.00    +0.000 NA
ATOM      3  N   UNL     1      -3.629  13.199  20.742  0.00  0.00    +0.000 N 
ATOM      4  C   UNL     1      -2.809  12.454  19.899  0.00  0.00    +0.000 A 
ATOM      5  N   UNL     1      -1.463  12.290  19.987  0.00  0.00    +0.000 NA
ATOM      6  C   UNL     1      -0.940  11.612  19.004  0.00  0.00    +0.000 A 
ATOM      7  N   UNL     1      -1.680  11.009  18.000  0.00  0.00    +0.000 N 
ATOM      8  C   UNL     1      -3.056  11.080  17.920  0.00  0.00    +0.000 A 
ATOM      9  O   UNL     1      -3.694  10.498  17.045  0.00  0.00    +0.000 OA
ATOM     10  C   UNL     1      -3.630  11.897  18.946  0.00  0.00    +0.000 A 
ATOM     11  H   UNL     1      -1.228  10.441  17.296  0.00  0.00    +0.000 HD
ENDROOT
BRANCH   3  12
ATOM     12  C   UNL     1      -3.285  13.982  21.886  0.00  0.00    +0.000 A 
ATOM     13  C   UNL     1      -3.266  15.395  21.800  0.00  0.00    +0.000 A 
ATOM     14 CL   UNL     1      -3.764  16.317  20.415  0.00  0.00    +0.000 Cl
ATOM     15  C   UNL     1      -2.917  16.179  22.911  0.00  0.00    +0.000 A 
ATOM     16  C   UNL     1      -2.623  15.579  24.125  0.00  0.00    +0.000 A 
ATOM     17 CL   UNL     1      -2.199  16.545  25.482  0.00  0.00    +0.000 Cl
ATOM     18  C   UNL     1      -2.644  14.198  24.239  0.00  0.00    +0.000 A 
ATOM     19  C   UNL     1      -2.937  13.396  23.122  0.00  0.00    +0.000 A 
ATOM     20 CL   UNL     1      -2.591  11.715  23.377  0.00  0.00    +0.000 Cl
ENDBRANCH   3  12
BRANCH   1  22
ATOM     21  C   UNL     1      -6.768  10.650  18.858  0.00  0.00    +0.000 C 
ATOM     22  C   UNL     1      -6.192  12.017  18.520  0.00  0.00    +0.000 C 
ENDBRANCH   1  22
BRANCH   6  23
ATOM     23  C   UNL     1       0.564  11.477  18.889  0.00  0.00    +0.000 C 
BRANCH  23  24
ATOM     24  C   UNL     1       1.080  10.066  18.979  0.00  0.00    +0.000 A 
ATOM     25  C   UNL     1       1.742   9.495  17.892  0.00  0.00    +0.000 A 
ATOM     26  C   UNL     1       2.331   8.225  17.994  0.00  0.00    +0.000 A 
ATOM     27  C   UNL     1       2.280   7.462  19.171  0.00  0.00    +0.000 A 
ATOM     28  C   UNL     1       1.589   8.052  20.241  0.00  0.00    +0.000 A 
ATOM     29  C   UNL     1       1.021   9.330  20.162  0.00  0.00    +0.000 A 
BRANCH  27  30
ATOM     30  N   UNL     1       2.832   6.194  19.274  0.00  0.00    +0.000 N 
ATOM     31  C   UNL     1       3.549   5.583  18.154  0.00  0.00    +0.000 C 
ATOM     32  C   UNL     1       2.438   5.251  20.316  0.00  0.00    +0.000 C 
ENDBRANCH  27  30
ENDBRANCH  23  24
ENDBRANCH   6  23
TORSDOF 5
ENDMDL
MODEL 9
REMARK VINA RESULT:      -7.1      1.081      1.492
REMARK  Name = 
REMARK  8 active torsions:
REMARK  status: ('A' for Active; 'I' for Inactive)
REMARK    1  A    between atoms: C_1  and  C_2
REMARK    2  A    between atoms: C_2  and  C_3
REMARK    3  A    between atoms: N_5  and  C_6
REMARK    4  A    between atoms: C_17  and  C_18
REMARK    5  A    between atoms: C_18  and  C_19
REMARK    6  A    between atoms: C_22  and  N_23
REMARK    7  A    between atoms: N_23  and  C_24
REMARK    8  A    between atoms: N_23  and  C_25
REMARK                            x       y       z     vdW  Elec       q    Type
REMARK                         _______ _______ _______ _____ _____    ______ ____
ROOT
ATOM      1  C   UNL     1      -4.583  12.515  19.618  0.00  0.00    +0.000 A 
ATOM      2  N   UNL     1      -4.390  13.313  20.675  0.00  0.00    +0.000 NA
ATOM      3  N   UNL     1      -3.046  13.284  20.930  0.00  0.00    +0.000 N 
ATOM      4  C   UNL     1      -2.402  12.459  20.012  0.00  0.00    +0.000 A 
ATOM      5  N   UNL     1      -1.075  12.170  19.947  0.00  0.00    +0.000 NA
ATOM      6  C   UNL     1      -0.735  11.437  18.924  0.00  0.00    +0.000 A 
ATOM      7  N   UNL     1      -1.639  10.897  18.025  0.00  0.00    +0.000 N 
ATOM      8  C   UNL     1      -3.003  11.095  18.102  0.00  0.00    +0.000 A 
ATOM      9  O   UNL     1      -3.789  10.568  17.318  0.00  0.00    +0.000 OA
ATOM     10  C   UNL     1      -3.376  11.972  19.171  0.00  0.00    +0.000 A 
ATOM     11  H   UNL     1      -1.326  10.283  17.284  0.00  0.00    +0.000 HD
ENDROOT
BRANCH   3  12
ATOM     12  C   UNL     1      -2.501  14.042  22.010  0.00  0.00    +0.000 A 
ATOM     13  C   UNL     1      -1.723  15.196  21.748  0.00  0.00    +0.000 A 
ATOM     14 CL   UNL     1      -1.459  15.885  20.176  0.00  0.00    +0.000 Cl
ATOM     15  C   UNL     1      -1.169  15.944  22.798  0.00  0.00    +0.000 A 
ATOM     16  C   UNL     1      -1.409  15.584  24.115  0.00  0.00    +0.000 A 
ATOM     17 CL   UNL     1      -0.729  16.507  25.397  0.00  0.00    +0.000 Cl
ATOM     18  C   UNL     1      -2.175  14.465  24.399  0.00  0.00    +0.000 A 
ATOM     19  C   UNL     1      -2.691  13.673  23.360  0.00  0.00    +0.000 A 
ATOM     20 CL   UNL     1      -3.329  12.155  23.906  0.00  0.00    +0.000 Cl
ENDBRANCH   3  12
BRANCH   1  22
ATOM     21  C   UNL     1      -6.616  11.038  19.496  0.00  0.00    +0.000 C 
ATOM     22  C   UNL     1      -5.948  12.327  19.042  0.00  0.00    +0.000 C 
ENDBRANCH   1  22
BRANCH   6  23
ATOM     23  C   UNL     1       0.726  11.161  18.638  0.00  0.00    +0.000 C 
BRANCH  23  24
ATOM     24  C   UNL     1       1.172   9.753  18.930  0.00  0.00    +0.000 A 
ATOM     25  C   UNL     1       1.813   9.008  17.940  0.00  0.00    +0.000 A 
ATOM     26  C   UNL     1       2.338   7.737  18.225  0.00  0.00    +0.000 A 
ATOM     27  C   UNL     1       2.240   7.147  19.494  0.00  0.00    +0.000 A 
ATOM     28  C   UNL     1       1.571   7.911  20.463  0.00  0.00    +0.000 A 
ATOM     29  C   UNL     1       1.067   9.191  20.201  0.00  0.00    +0.000 A 
BRANCH  27  30
ATOM     30  N   UNL     1       2.729   5.880  19.778  0.00  0.00    +0.000 N 
ATOM     31  C   UNL     1       2.056   5.002  20.736  0.00  0.00    +0.000 C 
ATOM     32  C   UNL     1       4.094   5.478  19.456  0.00  0.00    +0.000 C 
ENDBRANCH  27  30
ENDBRANCH  23  24
ENDBRANCH   6  23
TORSDOF 5
ENDMDL
