MODEL 1
REMARK VINA RESULT:      -7.0      0.000      0.000
REMARK  Name = 
REMARK  4 active torsions:
REMARK  status: ('A' for Active; 'I' for Inactive)
REMARK    1  A    between atoms: C_1  and  O_2
REMARK    2  A    between atoms: O_2  and  C_3
REMARK    3  A    between atoms: C_3  and  C_5
REMARK    4  A    between atoms: C_9  and  C_10
REMARK                            x       y       z     vdW  Elec       q    Type
REMARK                         _______ _______ _______ _____ _____    ______ ____
ROOT
ATOM      1  C   UNL     1       5.965   4.693  17.726  0.00  0.00    +0.000 A 
ATOM      2  N   UNL     1       5.690   4.102  18.957  0.00  0.00    +0.000 NA
ATOM      3  C   UNL     1       4.378   4.016  19.025  0.00  0.00    +0.000 A 
ATOM      4  C   UNL     1       3.521   3.506  20.042  0.00  0.00    +0.000 A 
ATOM      5  C   UNL     1       2.180   3.515  19.870  0.00  0.00    +0.000 A 
ATOM      6  C   UNL     1       1.232   2.998  20.910  0.00  0.00    +0.000 C 
ATOM      7  C   UNL     1       1.591   4.045  18.639  0.00  0.00    +0.000 A 
ATOM      8  C   UNL     1       2.395   4.536  17.681  0.00  0.00    +0.000 A 
ATOM      9  N   UNL     1       3.771   4.520  17.881  0.00  0.00    +0.000 N 
ATOM     10  C   UNL     1       4.782   4.956  17.069  0.00  0.00    +0.000 A 
ATOM     11  F   UNL     1       4.640   5.506  15.894  0.00  0.00    +0.000 F 
ENDROOT
BRANCH   1  12
ATOM     12  C   UNL     1       7.308   4.973  17.234  0.00  0.00    +0.000 C 
ATOM     13  O   UNL     1       8.250   4.194  17.337  0.00  0.00    +0.000 OA
BRANCH  12  15
ATOM     14  C   UNL     1       7.572   7.281  17.573  0.00  0.00    +0.000 C 
ATOM     15  O   UNL     1       7.398   6.207  16.653  0.00  0.00    +0.000 OA
ENDBRANCH  12  15
ENDBRANCH   1  12
TORSDOF 2
ENDMDL
MODEL 2
REMARK VINA RESULT:      -6.6      1.659      2.097
REMARK  Name = 
REMARK  4 active torsions:
REMARK  status: ('A' for Active; 'I' for Inactive)
REMARK    1  A    between atoms: C_1  and  O_2
REMARK    2  A    between atoms: O_2  and  C_3
REMARK    3  A    between atoms: C_3  and  C_5
REMARK    4  A    between atoms: C_9  and  C_10
REMARK                            x       y       z     vdW  Elec       q    Type
REMARK                         _______ _______ _______ _____ _____    ______ ____
ROOT
ATOM      1  C   UNL     1       5.801   4.436  17.340  0.00  0.00    +0.000 A 
ATOM      2  N   UNL     1       4.790   3.635  16.816  0.00  0.00    +0.000 NA
ATOM      3  C   UNL     1       3.828   3.642  17.715  0.00  0.00    +0.000 A 
ATOM      4  C   UNL     1       2.556   3.004  17.735  0.00  0.00    +0.000 A 
ATOM      5  C   UNL     1       1.723   3.177  18.785  0.00  0.00    +0.000 A 
ATOM      6  C   UNL     1       0.375   2.524  18.862  0.00  0.00    +0.000 C 
ATOM      7  C   UNL     1       2.114   4.026  19.914  0.00  0.00    +0.000 A 
ATOM      8  C   UNL     1       3.318   4.622  19.903  0.00  0.00    +0.000 A 
ATOM      9  N   UNL     1       4.160   4.425  18.814  0.00  0.00    +0.000 N 
ATOM     10  C   UNL     1       5.414   4.915  18.573  0.00  0.00    +0.000 A 
ATOM     11  F   UNL     1       6.099   5.694  19.366  0.00  0.00    +0.000 F 
ENDROOT
BRANCH   1  12
ATOM     12  C   UNL     1       7.062   4.710  16.664  0.00  0.00    +0.000 C 
ATOM     13  O   UNL     1       8.146   4.266  17.030  0.00  0.00    +0.000 OA
BRANCH  12  15
ATOM     14  C   UNL     1       6.995   4.863  14.322  0.00  0.00    +0.000 C 
ATOM     15  O   UNL     1       6.901   5.527  15.580  0.00  0.00    +0.000 OA
ENDBRANCH  12  15
ENDBRANCH   1  12
TORSDOF 2
ENDMDL
MODEL 3
REMARK VINA RESULT:      -6.5      1.725      1.944
REMARK  Name = 
REMARK  4 active torsions:
REMARK  status: ('A' for Active; 'I' for Inactive)
REMARK    1  A    between atoms: C_1  and  O_2
REMARK    2  A    between atoms: O_2  and  C_3
REMARK    3  A    between atoms: C_3  and  C_5
REMARK    4  A    between atoms: C_9  and  C_10
REMARK                            x       y       z     vdW  Elec       q    Type
REMARK                         _______ _______ _______ _____ _____    ______ ____
ROOT
ATOM      1  C   UNL     1       5.541   4.731  16.385  0.00  0.00    +0.000 A 
ATOM      2  N   UNL     1       4.982   3.468  16.568  0.00  0.00    +0.000 NA
ATOM      3  C   UNL     1       3.844   3.671  17.198  0.00  0.00    +0.000 A 
ATOM      4  C   UNL     1       2.847   2.762  17.653  0.00  0.00    +0.000 A 
ATOM      5  C   UNL     1       1.738   3.221  18.275  0.00  0.00    +0.000 A 
ATOM      6  C   UNL     1       0.661   2.309  18.780  0.00  0.00    +0.000 C 
ATOM      7  C   UNL     1       1.545   4.658  18.486  0.00  0.00    +0.000 A 
ATOM      8  C   UNL     1       2.487   5.518  18.067  0.00  0.00    +0.000 A 
ATOM      9  N   UNL     1       3.621   5.022  17.433  0.00  0.00    +0.000 N 
ATOM     10  C   UNL     1       4.705   5.684  16.925  0.00  0.00    +0.000 A 
ATOM     11  F   UNL     1       4.894   6.976  16.946  0.00  0.00    +0.000 F 
ENDROOT
BRANCH   1  12
ATOM     12  C   UNL     1       6.813   4.974  15.717  0.00  0.00    +0.000 C 
ATOM     13  O   UNL     1       6.920   5.549  14.638  0.00  0.00    +0.000 OA
BRANCH  12  15
ATOM     14  C   UNL     1       7.783   4.680  17.835  0.00  0.00    +0.000 C 
ATOM     15  O   UNL     1       7.871   4.480  16.426  0.00  0.00    +0.000 OA
ENDBRANCH  12  15
ENDBRANCH   1  12
TORSDOF 2
ENDMDL
MODEL 4
REMARK VINA RESULT:      -6.5      1.489      1.890
REMARK  Name = 
REMARK  4 active torsions:
REMARK  status: ('A' for Active; 'I' for Inactive)
REMARK    1  A    between atoms: C_1  and  O_2
REMARK    2  A    between atoms: O_2  and  C_3
REMARK    3  A    between atoms: C_3  and  C_5
REMARK    4  A    between atoms: C_9  and  C_10
REMARK                            x       y       z     vdW  Elec       q    Type
REMARK                         _______ _______ _______ _____ _____    ______ ____
ROOT
ATOM      1  C   UNL     1       5.799   4.731  17.496  0.00  0.00    +0.000 A 
ATOM      2  N   UNL     1       4.797   4.018  16.841  0.00  0.00    +0.000 NA
ATOM      3  C   UNL     1       3.863   3.806  17.745  0.00  0.00    +0.000 A 
ATOM      4  C   UNL     1       2.612   3.131  17.662  0.00  0.00    +0.000 A 
ATOM      5  C   UNL     1       1.806   3.055  18.744  0.00  0.00    +0.000 A 
ATOM      6  C   UNL     1       0.482   2.352  18.715  0.00  0.00    +0.000 C 
ATOM      7  C   UNL     1       2.204   3.668  20.013  0.00  0.00    +0.000 A 
ATOM      8  C   UNL     1       3.388   4.297  20.098  0.00  0.00    +0.000 A 
ATOM      9  N   UNL     1       4.203   4.359  18.973  0.00  0.00    +0.000 N 
ATOM     10  C   UNL     1       5.434   4.933  18.809  0.00  0.00    +0.000 A 
ATOM     11  F   UNL     1       6.117   5.558  19.729  0.00  0.00    +0.000 F 
ENDROOT
BRANCH   1  12
ATOM     12  C   UNL     1       7.030   5.184  16.861  0.00  0.00    +0.000 C 
ATOM     13  O   UNL     1       8.014   4.471  16.691  0.00  0.00    +0.000 OA
BRANCH  12  15
ATOM     14  C   UNL     1       7.547   7.406  17.416  0.00  0.00    +0.000 C 
ATOM     15  O   UNL     1       6.965   6.496  16.486  0.00  0.00    +0.000 OA
ENDBRANCH  12  15
ENDBRANCH   1  12
TORSDOF 2
ENDMDL
MODEL 5
REMARK VINA RESULT:      -6.5      1.239      1.293
REMARK  Name = 
REMARK  4 active torsions:
REMARK  status: ('A' for Active; 'I' for Inactive)
REMARK    1  A    between atoms: C_1  and  O_2
REMARK    2  A    between atoms: O_2  and  C_3
REMARK    3  A    between atoms: C_3  and  C_5
REMARK    4  A    between atoms: C_9  and  C_10
REMARK                            x       y       z     vdW  Elec       q    Type
REMARK                         _______ _______ _______ _____ _____    ______ ____
ROOT
ATOM      1  C   UNL     1       5.432   5.534  17.185  0.00  0.00    +0.000 A 
ATOM      2  N   UNL     1       4.919   5.739  18.463  0.00  0.00    +0.000 NA
ATOM      3  C   UNL     1       3.885   4.931  18.566  0.00  0.00    +0.000 A 
ATOM      4  C   UNL     1       2.972   4.704  19.635  0.00  0.00    +0.000 A 
ATOM      5  C   UNL     1       1.980   3.795  19.503  0.00  0.00    +0.000 A 
ATOM      6  C   UNL     1       0.987   3.521  20.593  0.00  0.00    +0.000 C 
ATOM      7  C   UNL     1       1.834   3.029  18.263  0.00  0.00    +0.000 A 
ATOM      8  C   UNL     1       2.687   3.246  17.249  0.00  0.00    +0.000 A 
ATOM      9  N   UNL     1       3.697   4.190  17.406  0.00  0.00    +0.000 N 
ATOM     10  C   UNL     1       4.673   4.586  16.533  0.00  0.00    +0.000 A 
ATOM     11  F   UNL     1       4.847   4.135  15.321  0.00  0.00    +0.000 F 
ENDROOT
BRANCH   1  12
ATOM     12  C   UNL     1       6.595   6.228  16.648  0.00  0.00    +0.000 C 
ATOM     13  O   UNL     1       7.460   5.686  15.967  0.00  0.00    +0.000 OA
BRANCH  12  15
ATOM     14  C   UNL     1       7.812   7.965  17.656  0.00  0.00    +0.000 C 
ATOM     15  O   UNL     1       6.617   7.548  16.999  0.00  0.00    +0.000 OA
ENDBRANCH  12  15
ENDBRANCH   1  12
TORSDOF 2
ENDMDL
MODEL 6
REMARK VINA RESULT:      -6.5      1.219      1.633
REMARK  Name = 
REMARK  4 active torsions:
REMARK  status: ('A' for Active; 'I' for Inactive)
REMARK    1  A    between atoms: C_1  and  O_2
REMARK    2  A    between atoms: O_2  and  C_3
REMARK    3  A    between atoms: C_3  and  C_5
REMARK    4  A    between atoms: C_9  and  C_10
REMARK                            x       y       z     vdW  Elec       q    Type
REMARK                         _______ _______ _______ _____ _____    ______ ____
ROOT
ATOM      1  C   UNL     1       5.886   5.337  17.566  0.00  0.00    +0.000 A 
ATOM      2  N   UNL     1       5.850   4.293  18.486  0.00  0.00    +0.000 NA
ATOM      3  C   UNL     1       4.637   4.313  18.999  0.00  0.00    +0.000 A 
ATOM      4  C   UNL     1       4.020   3.491  19.985  0.00  0.00    +0.000 A 
ATOM      5  C   UNL     1       2.734   3.704  20.341  0.00  0.00    +0.000 A 
ATOM      6  C   UNL     1       2.037   2.875  21.378  0.00  0.00    +0.000 C 
ATOM      7  C   UNL     1       1.956   4.778  19.718  0.00  0.00    +0.000 A 
ATOM      8  C   UNL     1       2.537   5.561  18.795  0.00  0.00    +0.000 A 
ATOM      9  N   UNL     1       3.863   5.326  18.447  0.00  0.00    +0.000 N 
ATOM     10  C   UNL     1       4.665   5.976  17.548  0.00  0.00    +0.000 A 
ATOM     11  F   UNL     1       4.322   7.000  16.815  0.00  0.00    +0.000 F 
ENDROOT
BRANCH   1  12
ATOM     12  C   UNL     1       7.050   5.675  16.757  0.00  0.00    +0.000 C 
ATOM     13  O   UNL     1       7.581   6.782  16.751  0.00  0.00    +0.000 OA
BRANCH  12  15
ATOM     14  C   UNL     1       6.729   4.416  14.801  0.00  0.00    +0.000 C 
ATOM     15  O   UNL     1       7.475   4.622  15.998  0.00  0.00    +0.000 OA
ENDBRANCH  12  15
ENDBRANCH   1  12
TORSDOF 2
ENDMDL
MODEL 7
REMARK VINA RESULT:      -6.5      1.168      1.189
REMARK  Name = 
REMARK  4 active torsions:
REMARK  status: ('A' for Active; 'I' for Inactive)
REMARK    1  A    between atoms: C_1  and  O_2
REMARK    2  A    between atoms: O_2  and  C_3
REMARK    3  A    between atoms: C_3  and  C_5
REMARK    4  A    between atoms: C_9  and  C_10
REMARK                            x       y       z     vdW  Elec       q    Type
REMARK                         _______ _______ _______ _____ _____    ______ ____
ROOT
ATOM      1  C   UNL     1       5.849   5.050  18.380  0.00  0.00    +0.000 A 
ATOM      2  N   UNL     1       5.608   3.928  19.169  0.00  0.00    +0.000 NA
ATOM      3  C   UNL     1       4.347   4.017  19.538  0.00  0.00    +0.000 A 
ATOM      4  C   UNL     1       3.543   3.167  20.349  0.00  0.00    +0.000 A 
ATOM      5  C   UNL     1       2.245   3.471  20.577  0.00  0.00    +0.000 A 
ATOM      6  C   UNL     1       1.355   2.616  21.429  0.00  0.00    +0.000 C 
ATOM      7  C   UNL     1       1.648   4.674  19.992  0.00  0.00    +0.000 A 
ATOM      8  C   UNL     1       2.406   5.484  19.234  0.00  0.00    +0.000 A 
ATOM      9  N   UNL     1       3.740   5.153  19.017  0.00  0.00    +0.000 N 
ATOM     10  C   UNL     1       4.701   5.806  18.294  0.00  0.00    +0.000 A 
ATOM     11  F   UNL     1       4.542   6.927  17.644  0.00  0.00    +0.000 F 
ENDROOT
BRANCH   1  12
ATOM     12  C   UNL     1       7.130   5.349  17.752  0.00  0.00    +0.000 C 
ATOM     13  O   UNL     1       7.591   4.718  16.806  0.00  0.00    +0.000 OA
BRANCH  12  15
ATOM     14  C   UNL     1       7.741   7.609  17.581  0.00  0.00    +0.000 C 
ATOM     15  O   UNL     1       7.762   6.405  18.345  0.00  0.00    +0.000 OA
ENDBRANCH  12  15
ENDBRANCH   1  12
TORSDOF 2
ENDMDL
MODEL 8
REMARK VINA RESULT:      -6.4      1.548      1.580
REMARK  Name = 
REMARK  4 active torsions:
REMARK  status: ('A' for Active; 'I' for Inactive)
REMARK    1  A    between atoms: C_1  and  O_2
REMARK    2  A    between atoms: O_2  and  C_3
REMARK    3  A    between atoms: C_3  and  C_5
REMARK    4  A    between atoms: C_9  and  C_10
REMARK                            x       y       z     vdW  Elec       q    Type
REMARK                         _______ _______ _______ _____ _____    ______ ____
ROOT
ATOM      1  C   UNL     1       5.786   5.120  18.951  0.00  0.00    +0.000 A 
ATOM      2  N   UNL     1       5.295   3.892  19.389  0.00  0.00    +0.000 NA
ATOM      3  C   UNL     1       4.035   3.856  19.007  0.00  0.00    +0.000 A 
ATOM      4  C   UNL     1       3.031   2.861  19.174  0.00  0.00    +0.000 A 
ATOM      5  C   UNL     1       1.791   3.053  18.671  0.00  0.00    +0.000 A 
ATOM      6  C   UNL     1       0.694   2.042  18.823  0.00  0.00    +0.000 C 
ATOM      7  C   UNL     1       1.464   4.283  17.946  0.00  0.00    +0.000 A 
ATOM      8  C   UNL     1       2.406   5.229  17.795  0.00  0.00    +0.000 A 
ATOM      9  N   UNL     1       3.674   5.011  18.324  0.00  0.00    +0.000 N 
ATOM     10  C   UNL     1       4.784   5.809  18.303  0.00  0.00    +0.000 A 
ATOM     11  F   UNL     1       4.868   6.993  17.759  0.00  0.00    +0.000 F 
ENDROOT
BRANCH   1  12
ATOM     12  C   UNL     1       7.155   5.575  19.158  0.00  0.00    +0.000 C 
ATOM     13  O   UNL     1       7.748   5.494  20.229  0.00  0.00    +0.000 OA
BRANCH  12  15
ATOM     14  C   UNL     1       8.041   7.490  18.130  0.00  0.00    +0.000 C 
ATOM     15  O   UNL     1       7.698   6.110  18.024  0.00  0.00    +0.000 OA
ENDBRANCH  12  15
ENDBRANCH   1  12
TORSDOF 2
ENDMDL
MODEL 9
REMARK VINA RESULT:      -6.4      3.464      5.495
REMARK  Name = 
REMARK  4 active torsions:
REMARK  status: ('A' for Active; 'I' for Inactive)
REMARK    1  A    between atoms: C_1  and  O_2
REMARK    2  A    between atoms: O_2  and  C_3
REMARK    3  A    between atoms: C_3  and  C_5
REMARK    4  A    between atoms: C_9  and  C_10
REMARK                            x       y       z     vdW  Elec       q    Type
REMARK                         _______ _______ _______ _____ _____    ______ ____
ROOT
ATOM      1  C   UNL     1       2.156   3.731  18.305  0.00  0.00    +0.000 A 
ATOM      2  N   UNL     1       3.043   3.037  17.485  0.00  0.00    +0.000 NA
ATOM      3  C   UNL     1       3.899   3.937  17.046  0.00  0.00    +0.000 A 
ATOM      4  C   UNL     1       5.019   3.820  16.175  0.00  0.00    +0.000 A 
ATOM      5  C   UNL     1       5.767   4.907  15.878  0.00  0.00    +0.000 A 
ATOM      6  C   UNL     1       6.953   4.843  14.963  0.00  0.00    +0.000 C 
ATOM      7  C   UNL     1       5.438   6.215  16.448  0.00  0.00    +0.000 A 
ATOM      8  C   UNL     1       4.375   6.331  17.262  0.00  0.00    +0.000 A 
ATOM      9  N   UNL     1       3.619   5.200  17.550  0.00  0.00    +0.000 N 
ATOM     10  C   UNL     1       2.508   5.063  18.338  0.00  0.00    +0.000 A 
ATOM     11  F   UNL     1       1.912   6.019  18.996  0.00  0.00    +0.000 F 
ENDROOT
BRANCH   1  12
ATOM     12  C   UNL     1       1.040   3.114  19.011  0.00  0.00    +0.000 C 
ATOM     13  O   UNL     1       0.314   2.255  18.522  0.00  0.00    +0.000 OA
BRANCH  12  15
ATOM     14  C   UNL     1       1.502   2.823  21.294  0.00  0.00    +0.000 C 
ATOM     15  O   UNL     1       0.890   3.611  20.275  0.00  0.00    +0.000 OA
ENDBRANCH  12  15
ENDBRANCH   1  12
TORSDOF 2
ENDMDL
