MODEL 1
REMARK VINA RESULT:      -8.6      0.000      0.000
REMARK  Name = 
REMARK  8 active torsions:
REMARK  status: ('A' for Active; 'I' for Inactive)
REMARK    1  A    between atoms: C_2  and  O_3
REMARK    2  A    between atoms: C_2  and  C_4
REMARK    3  A    between atoms: C_4  and  C_5
REMARK    4  A    between atoms: C_5  and  C_6
REMARK    5  A    between atoms: C_5  and  N_13
REMARK    6  A    between atoms: C_6  and  C_7
REMARK    7  A    between atoms: C_14  and  C_16
REMARK    8  A    between atoms: C_20  and  C_21
REMARK                            x       y       z     vdW  Elec       q    Type
REMARK                         _______ _______ _______ _____ _____    ______ ____
ROOT
ATOM      1  N   UNL     1       5.166   5.090  17.896  0.00  0.00    +0.000 N 
ATOM      2  C   UNL     1       4.340   6.185  17.968  0.00  0.00    +0.000 C 
ATOM      3  O   UNL     1       4.455   7.164  17.233  0.00  0.00    +0.000 OA
ATOM      4  H   UNL     1       5.030   4.378  18.607  0.00  0.00    +0.000 HD
ENDROOT
BRANCH   2   5
ATOM      5  C   UNL     1       3.281   6.130  19.030  0.00  0.00    +0.000 A 
ATOM      6  C   UNL     1       2.958   4.915  19.610  0.00  0.00    +0.000 A 
ATOM      7  C   UNL     1       1.952   4.896  20.565  0.00  0.00    +0.000 A 
ATOM      8  C   UNL     1       1.301   6.086  20.890  0.00  0.00    +0.000 A 
ATOM      9  C   UNL     1       1.685   7.283  20.272  0.00  0.00    +0.000 A 
ATOM     10  N   UNL     1       2.682   7.309  19.355  0.00  0.00    +0.000 NA
BRANCH   9  11
ATOM     11  C   UNL     1       1.056   8.584  20.615  0.00  0.00    +0.000 A 
ATOM     12  C   UNL     1       0.737   8.868  21.965  0.00  0.00    +0.000 A 
ATOM     13  C   UNL     1       0.145  10.073  22.356  0.00  0.00    +0.000 A 
ATOM     14  C   UNL     1      -0.137  11.045  21.407  0.00  0.00    +0.000 A 
ATOM     15  C   UNL     1       0.168  10.805  20.069  0.00  0.00    +0.000 A 
ATOM     16  C   UNL     1       0.752   9.591  19.671  0.00  0.00    +0.000 A 
ATOM     17 CL   UNL     1       1.017   9.417  17.965  0.00  0.00    +0.000 Cl
ENDBRANCH   9  11
ENDBRANCH   2   5
BRANCH   1  18
ATOM     18  C   UNL     1       6.264   4.991  16.937  0.00  0.00    +0.000 C 
BRANCH  18  19
ATOM     19  C   UNL     1       7.586   4.823  17.700  0.00  0.00    +0.000 C 
BRANCH  19  21
ATOM     20  O   UNL     1       7.301   5.290  20.045  0.00  0.00    +0.000 OA
ATOM     21  C   UNL     1       7.695   5.660  18.949  0.00  0.00    +0.000 C 
BRANCH  21  22
ATOM     22  O   UNL     1       8.263   6.870  18.760  0.00  0.00    +0.000 OA
ATOM     23  H   UNL     1       9.193   6.937  19.054  0.00  0.00    +0.000 HD
ENDBRANCH  21  22
ENDBRANCH  19  21
ENDBRANCH  18  19
BRANCH  18  24
ATOM     24  C   UNL     1       5.992   3.857  15.925  0.00  0.00    +0.000 C 
BRANCH  24  25
ATOM     25  C   UNL     1       6.376   4.150  14.483  0.00  0.00    +0.000 A 
ATOM     26  C   UNL     1       7.394   5.062  14.164  0.00  0.00    +0.000 A 
ATOM     27  C   UNL     1       7.832   5.211  12.843  0.00  0.00    +0.000 A 
ATOM     28  C   UNL     1       7.264   4.445  11.827  0.00  0.00    +0.000 A 
ATOM     29  C   UNL     1       6.226   3.565  12.122  0.00  0.00    +0.000 A 
ATOM     30  C   UNL     1       5.776   3.429  13.439  0.00  0.00    +0.000 A 
ENDBRANCH  24  25
ENDBRANCH  18  24
ENDBRANCH   1  18
TORSDOF 8
ENDMDL
MODEL 2
REMARK VINA RESULT:      -8.5      2.581      4.624
REMARK  Name = 
REMARK  8 active torsions:
REMARK  status: ('A' for Active; 'I' for Inactive)
REMARK    1  A    between atoms: C_2  and  O_3
REMARK    2  A    between atoms: C_2  and  C_4
REMARK    3  A    between atoms: C_4  and  C_5
REMARK    4  A    between atoms: C_5  and  C_6
REMARK    5  A    between atoms: C_5  and  N_13
REMARK    6  A    between atoms: C_6  and  C_7
REMARK    7  A    between atoms: C_14  and  C_16
REMARK    8  A    between atoms: C_20  and  C_21
REMARK                            x       y       z     vdW  Elec       q    Type
REMARK                         _______ _______ _______ _____ _____    ______ ____
ROOT
ATOM      1  N   UNL     1       3.823   5.881  18.582  0.00  0.00    +0.000 N 
ATOM      2  C   UNL     1       3.242   7.035  18.114  0.00  0.00    +0.000 C 
ATOM      3  O   UNL     1       3.453   7.487  16.991  0.00  0.00    +0.000 OA
ATOM      4  H   UNL     1       3.640   5.649  19.554  0.00  0.00    +0.000 HD
ENDROOT
BRANCH   2   5
ATOM      5  C   UNL     1       2.334   7.741  19.079  0.00  0.00    +0.000 A 
ATOM      6  C   UNL     1       1.993   7.125  20.272  0.00  0.00    +0.000 A 
ATOM      7  C   UNL     1       1.126   7.793  21.124  0.00  0.00    +0.000 A 
ATOM      8  C   UNL     1       0.624   9.037  20.745  0.00  0.00    +0.000 A 
ATOM      9  C   UNL     1       1.018   9.607  19.527  0.00  0.00    +0.000 A 
ATOM     10  N   UNL     1       1.882   8.969  18.702  0.00  0.00    +0.000 NA
BRANCH   9  11
ATOM     11  C   UNL     1       0.548  10.949  19.097  0.00  0.00    +0.000 A 
ATOM     12  C   UNL     1       1.406  12.067  19.245  0.00  0.00    +0.000 A 
ATOM     13  C   UNL     1       1.027  13.356  18.860  0.00  0.00    +0.000 A 
ATOM     14  C   UNL     1      -0.224  13.571  18.298  0.00  0.00    +0.000 A 
ATOM     15  C   UNL     1      -1.092  12.495  18.130  0.00  0.00    +0.000 A 
ATOM     16  C   UNL     1      -0.720  11.200  18.526  0.00  0.00    +0.000 A 
ATOM     17 CL   UNL     1      -1.931   9.977  18.308  0.00  0.00    +0.000 Cl
ENDBRANCH   9  11
ENDBRANCH   2   5
BRANCH   1  18
ATOM     18  C   UNL     1       4.752   5.084  17.784  0.00  0.00    +0.000 C 
BRANCH  18  19
ATOM     19  C   UNL     1       6.182   5.324  18.287  0.00  0.00    +0.000 C 
BRANCH  19  21
ATOM     20  O   UNL     1       7.398   6.145  16.377  0.00  0.00    +0.000 OA
ATOM     21  C   UNL     1       7.239   5.267  17.213  0.00  0.00    +0.000 C 
BRANCH  21  22
ATOM     22  O   UNL     1       8.001   4.154  17.240  0.00  0.00    +0.000 OA
ATOM     23  H   UNL     1       8.628   4.067  16.496  0.00  0.00    +0.000 HD
ENDBRANCH  21  22
ENDBRANCH  19  21
ENDBRANCH  18  19
BRANCH  18  24
ATOM     24  C   UNL     1       4.336   3.598  17.801  0.00  0.00    +0.000 C 
BRANCH  24  25
ATOM     25  C   UNL     1       3.264   3.223  18.813  0.00  0.00    +0.000 A 
ATOM     26  C   UNL     1       3.579   2.953  20.154  0.00  0.00    +0.000 A 
ATOM     27  C   UNL     1       2.567   2.753  21.099  0.00  0.00    +0.000 A 
ATOM     28  C   UNL     1       1.228   2.828  20.719  0.00  0.00    +0.000 A 
ATOM     29  C   UNL     1       0.901   3.055  19.385  0.00  0.00    +0.000 A 
ATOM     30  C   UNL     1       1.911   3.238  18.436  0.00  0.00    +0.000 A 
ENDBRANCH  24  25
ENDBRANCH  18  24
ENDBRANCH   1  18
TORSDOF 8
ENDMDL
MODEL 3
REMARK VINA RESULT:      -8.4      1.399      1.908
REMARK  Name = 
REMARK  8 active torsions:
REMARK  status: ('A' for Active; 'I' for Inactive)
REMARK    1  A    between atoms: C_2  and  O_3
REMARK    2  A    between atoms: C_2  and  C_4
REMARK    3  A    between atoms: C_4  and  C_5
REMARK    4  A    between atoms: C_5  and  C_6
REMARK    5  A    between atoms: C_5  and  N_13
REMARK    6  A    between atoms: C_6  and  C_7
REMARK    7  A    between atoms: C_14  and  C_16
REMARK    8  A    between atoms: C_20  and  C_21
REMARK                            x       y       z     vdW  Elec       q    Type
REMARK                         _______ _______ _______ _____ _____    ______ ____
ROOT
ATOM      1  N   UNL     1       5.342   5.469  17.815  0.00  0.00    +0.000 N 
ATOM      2  C   UNL     1       4.837   4.626  18.775  0.00  0.00    +0.000 C 
ATOM      3  O   UNL     1       5.326   3.529  19.033  0.00  0.00    +0.000 OA
ATOM      4  H   UNL     1       4.807   6.313  17.631  0.00  0.00    +0.000 HD
ENDROOT
BRANCH   2   5
ATOM      5  C   UNL     1       3.614   5.120  19.492  0.00  0.00    +0.000 A 
ATOM      6  C   UNL     1       2.936   4.271  20.351  0.00  0.00    +0.000 A 
ATOM      7  C   UNL     1       1.792   4.751  20.971  0.00  0.00    +0.000 A 
ATOM      8  C   UNL     1       1.364   6.049  20.697  0.00  0.00    +0.000 A 
ATOM      9  C   UNL     1       2.102   6.858  19.824  0.00  0.00    +0.000 A 
ATOM     10  N   UNL     1       3.232   6.402  19.234  0.00  0.00    +0.000 NA
BRANCH   9  11
ATOM     11  C   UNL     1       1.715   8.263  19.534  0.00  0.00    +0.000 A 
ATOM     12  C   UNL     1       1.895   8.778  18.227  0.00  0.00    +0.000 A 
ATOM     13  C   UNL     1       1.552  10.090  17.887  0.00  0.00    +0.000 A 
ATOM     14  C   UNL     1       1.000  10.931  18.843  0.00  0.00    +0.000 A 
ATOM     15  C   UNL     1       0.801  10.458  20.137  0.00  0.00    +0.000 A 
ATOM     16  C   UNL     1       1.156   9.144  20.487  0.00  0.00    +0.000 A 
ATOM     17 CL   UNL     1       0.903   8.722  22.150  0.00  0.00    +0.000 Cl
ENDBRANCH   9  11
ENDBRANCH   2   5
BRANCH   1  18
ATOM     18  C   UNL     1       6.513   5.133  17.006  0.00  0.00    +0.000 C 
BRANCH  18  19
ATOM     19  C   UNL     1       7.696   4.827  17.936  0.00  0.00    +0.000 C 
BRANCH  19  21
ATOM     20  O   UNL     1       8.176   7.066  18.680  0.00  0.00    +0.000 OA
ATOM     21  C   UNL     1       7.973   5.895  18.963  0.00  0.00    +0.000 C 
BRANCH  21  22
ATOM     22  O   UNL     1       7.987   5.451  20.238  0.00  0.00    +0.000 OA
ATOM     23  H   UNL     1       8.720   4.841  20.452  0.00  0.00    +0.000 HD
ENDBRANCH  21  22
ENDBRANCH  19  21
ENDBRANCH  18  19
BRANCH  18  24
ATOM     24  C   UNL     1       6.181   3.979  16.037  0.00  0.00    +0.000 C 
BRANCH  24  25
ATOM     25  C   UNL     1       6.503   4.233  14.572  0.00  0.00    +0.000 A 
ATOM     26  C   UNL     1       7.470   5.172  14.183  0.00  0.00    +0.000 A 
ATOM     27  C   UNL     1       7.856   5.288  12.843  0.00  0.00    +0.000 A 
ATOM     28  C   UNL     1       7.286   4.461  11.876  0.00  0.00    +0.000 A 
ATOM     29  C   UNL     1       6.297   3.552  12.240  0.00  0.00    +0.000 A 
ATOM     30  C   UNL     1       5.898   3.448  13.577  0.00  0.00    +0.000 A 
ENDBRANCH  24  25
ENDBRANCH  18  24
ENDBRANCH   1  18
TORSDOF 8
ENDMDL
MODEL 4
REMARK VINA RESULT:      -8.4      2.905      4.357
REMARK  Name = 
REMARK  8 active torsions:
REMARK  status: ('A' for Active; 'I' for Inactive)
REMARK    1  A    between atoms: C_2  and  O_3
REMARK    2  A    between atoms: C_2  and  C_4
REMARK    3  A    between atoms: C_4  and  C_5
REMARK    4  A    between atoms: C_5  and  C_6
REMARK    5  A    between atoms: C_5  and  N_13
REMARK    6  A    between atoms: C_6  and  C_7
REMARK    7  A    between atoms: C_14  and  C_16
REMARK    8  A    between atoms: C_20  and  C_21
REMARK                            x       y       z     vdW  Elec       q    Type
REMARK                         _______ _______ _______ _____ _____    ______ ____
ROOT
ATOM      1  N   UNL     1       2.835   5.806  17.990  0.00  0.00    +0.000 N 
ATOM      2  C   UNL     1       2.556   6.484  19.152  0.00  0.00    +0.000 C 
ATOM      3  O   UNL     1       2.664   5.981  20.268  0.00  0.00    +0.000 OA
ATOM      4  H   UNL     1       2.630   6.295  17.124  0.00  0.00    +0.000 HD
ENDROOT
BRANCH   2   5
ATOM      5  C   UNL     1       2.080   7.897  18.979  0.00  0.00    +0.000 A 
ATOM      6  C   UNL     1       2.439   8.605  17.843  0.00  0.00    +0.000 A 
ATOM      7  C   UNL     1       2.008   9.919  17.732  0.00  0.00    +0.000 A 
ATOM      8  C   UNL     1       1.251  10.475  18.763  0.00  0.00    +0.000 A 
ATOM      9  C   UNL     1       0.916   9.700  19.880  0.00  0.00    +0.000 A 
ATOM     10  N   UNL     1       1.315   8.410  19.982  0.00  0.00    +0.000 NA
BRANCH   9  11
ATOM     11  C   UNL     1       0.075  10.230  20.984  0.00  0.00    +0.000 A 
ATOM     12  C   UNL     1       0.158   9.639  22.268  0.00  0.00    +0.000 A 
ATOM     13  C   UNL     1      -0.604  10.090  23.350  0.00  0.00    +0.000 A 
ATOM     14  C   UNL     1      -1.471  11.161  23.186  0.00  0.00    +0.000 A 
ATOM     15  C   UNL     1      -1.576  11.773  21.939  0.00  0.00    +0.000 A 
ATOM     16  C   UNL     1      -0.820  11.316  20.847  0.00  0.00    +0.000 A 
ATOM     17 CL   UNL     1      -1.105  12.140  19.347  0.00  0.00    +0.000 Cl
ENDBRANCH   9  11
ENDBRANCH   2   5
BRANCH   1  18
ATOM     18  C   UNL     1       3.285   4.416  17.977  0.00  0.00    +0.000 C 
BRANCH  18  19
ATOM     19  C   UNL     1       2.108   3.509  17.587  0.00  0.00    +0.000 C 
BRANCH  19  21
ATOM     20  O   UNL     1       0.406   2.169  18.637  0.00  0.00    +0.000 OA
ATOM     21  C   UNL     1       1.366   2.915  18.757  0.00  0.00    +0.000 C 
BRANCH  21  22
ATOM     22  O   UNL     1       1.845   3.282  19.965  0.00  0.00    +0.000 OA
ATOM     23  H   UNL     1       1.752   4.232  20.172  0.00  0.00    +0.000 HD
ENDBRANCH  21  22
ENDBRANCH  19  21
ENDBRANCH  18  19
BRANCH  18  24
ATOM     24  C   UNL     1       4.512   4.258  17.053  0.00  0.00    +0.000 C 
BRANCH  24  25
ATOM     25  C   UNL     1       5.719   5.114  17.405  0.00  0.00    +0.000 A 
ATOM     26  C   UNL     1       5.968   6.335  16.761  0.00  0.00    +0.000 A 
ATOM     27  C   UNL     1       6.998   7.176  17.197  0.00  0.00    +0.000 A 
ATOM     28  C   UNL     1       7.787   6.810  18.286  0.00  0.00    +0.000 A 
ATOM     29  C   UNL     1       7.578   5.583  18.910  0.00  0.00    +0.000 A 
ATOM     30  C   UNL     1       6.560   4.735  18.464  0.00  0.00    +0.000 A 
ENDBRANCH  24  25
ENDBRANCH  18  24
ENDBRANCH   1  18
TORSDOF 8
ENDMDL
MODEL 5
REMARK VINA RESULT:      -8.3      1.140      1.428
REMARK  Name = 
REMARK  8 active torsions:
REMARK  status: ('A' for Active; 'I' for Inactive)
REMARK    1  A    between atoms: C_2  and  O_3
REMARK    2  A    between atoms: C_2  and  C_4
REMARK    3  A    between atoms: C_4  and  C_5
REMARK    4  A    between atoms: C_5  and  C_6
REMARK    5  A    between atoms: C_5  and  N_13
REMARK    6  A    between atoms: C_6  and  C_7
REMARK    7  A    between atoms: C_14  and  C_16
REMARK    8  A    between atoms: C_20  and  C_21
REMARK                            x       y       z     vdW  Elec       q    Type
REMARK                         _______ _______ _______ _____ _____    ______ ____
ROOT
ATOM      1  N   UNL     1       5.207   5.299  17.848  0.00  0.00    +0.000 N 
ATOM      2  C   UNL     1       4.833   4.421  18.837  0.00  0.00    +0.000 C 
ATOM      3  O   UNL     1       5.456   3.393  19.095  0.00  0.00    +0.000 OA
ATOM      4  H   UNL     1       4.571   6.071  17.670  0.00  0.00    +0.000 HD
ENDROOT
BRANCH   2   5
ATOM      5  C   UNL     1       3.584   4.783  19.586  0.00  0.00    +0.000 A 
ATOM      6  C   UNL     1       2.889   3.798  20.269  0.00  0.00    +0.000 A 
ATOM      7  C   UNL     1       1.721   4.162  20.924  0.00  0.00    +0.000 A 
ATOM      8  C   UNL     1       1.288   5.486  20.857  0.00  0.00    +0.000 A 
ATOM      9  C   UNL     1       2.045   6.433  20.156  0.00  0.00    +0.000 A 
ATOM     10  N   UNL     1       3.197   6.087  19.534  0.00  0.00    +0.000 NA
BRANCH   9  11
ATOM     11  C   UNL     1       1.653   7.864  20.092  0.00  0.00    +0.000 A 
ATOM     12  C   UNL     1       1.102   8.486  21.239  0.00  0.00    +0.000 A 
ATOM     13  C   UNL     1       0.712   9.829  21.247  0.00  0.00    +0.000 A 
ATOM     14  C   UNL     1       0.875  10.603  20.106  0.00  0.00    +0.000 A 
ATOM     15  C   UNL     1       1.420  10.028  18.961  0.00  0.00    +0.000 A 
ATOM     16  C   UNL     1       1.801   8.677  18.945  0.00  0.00    +0.000 A 
ATOM     17 CL   UNL     1       2.408   8.091  17.428  0.00  0.00    +0.000 Cl
ENDBRANCH   9  11
ENDBRANCH   2   5
BRANCH   1  18
ATOM     18  C   UNL     1       6.382   5.087  17.007  0.00  0.00    +0.000 C 
BRANCH  18  19
ATOM     19  C   UNL     1       7.607   4.853  17.902  0.00  0.00    +0.000 C 
BRANCH  19  21
ATOM     20  O   UNL     1       8.052   7.128  18.553  0.00  0.00    +0.000 OA
ATOM     21  C   UNL     1       7.884   5.964  18.883  0.00  0.00    +0.000 C 
BRANCH  21  22
ATOM     22  O   UNL     1       7.938   5.567  20.172  0.00  0.00    +0.000 OA
ATOM     23  H   UNL     1       8.011   6.293  20.823  0.00  0.00    +0.000 HD
ENDBRANCH  21  22
ENDBRANCH  19  21
ENDBRANCH  18  19
BRANCH  18  24
ATOM     24  C   UNL     1       6.126   3.940  16.006  0.00  0.00    +0.000 C 
BRANCH  24  25
ATOM     25  C   UNL     1       6.478   4.236  14.556  0.00  0.00    +0.000 A 
ATOM     26  C   UNL     1       7.485   5.151  14.215  0.00  0.00    +0.000 A 
ATOM     27  C   UNL     1       7.893   5.302  12.886  0.00  0.00    +0.000 A 
ATOM     28  C   UNL     1       7.306   4.535  11.881  0.00  0.00    +0.000 A 
ATOM     29  C   UNL     1       6.277   3.652  12.199  0.00  0.00    +0.000 A 
ATOM     30  C   UNL     1       5.857   3.513  13.525  0.00  0.00    +0.000 A 
ENDBRANCH  24  25
ENDBRANCH  18  24
ENDBRANCH   1  18
TORSDOF 8
ENDMDL
MODEL 6
REMARK VINA RESULT:      -8.3      2.805      4.302
REMARK  Name = 
REMARK  8 active torsions:
REMARK  status: ('A' for Active; 'I' for Inactive)
REMARK    1  A    between atoms: C_2  and  O_3
REMARK    2  A    between atoms: C_2  and  C_4
REMARK    3  A    between atoms: C_4  and  C_5
REMARK    4  A    between atoms: C_5  and  C_6
REMARK    5  A    between atoms: C_5  and  N_13
REMARK    6  A    between atoms: C_6  and  C_7
REMARK    7  A    between atoms: C_14  and  C_16
REMARK    8  A    between atoms: C_20  and  C_21
REMARK                            x       y       z     vdW  Elec       q    Type
REMARK                         _______ _______ _______ _____ _____    ______ ____
ROOT
ATOM      1  N   UNL     1       2.981   4.958  19.084  0.00  0.00    +0.000 N 
ATOM      2  C   UNL     1       2.415   5.790  20.019  0.00  0.00    +0.000 C 
ATOM      3  O   UNL     1       2.175   5.441  21.173  0.00  0.00    +0.000 OA
ATOM      4  H   UNL     1       3.056   5.328  18.141  0.00  0.00    +0.000 HD
ENDROOT
BRANCH   2   5
ATOM      5  C   UNL     1       2.078   7.171  19.539  0.00  0.00    +0.000 A 
ATOM      6  C   UNL     1       2.500   7.580  18.285  0.00  0.00    +0.000 A 
ATOM      7  C   UNL     1       2.198   8.874  17.887  0.00  0.00    +0.000 A 
ATOM      8  C   UNL     1       1.503   9.709  18.761  0.00  0.00    +0.000 A 
ATOM      9  C   UNL     1       1.097   9.228  20.012  0.00  0.00    +0.000 A 
ATOM     10  N   UNL     1       1.370   7.959  20.396  0.00  0.00    +0.000 NA
BRANCH   9  11
ATOM     11  C   UNL     1       0.315  10.062  20.961  0.00  0.00    +0.000 A 
ATOM     12  C   UNL     1      -0.075   9.515  22.208  0.00  0.00    +0.000 A 
ATOM     13  C   UNL     1      -0.811  10.245  23.147  0.00  0.00    +0.000 A 
ATOM     14  C   UNL     1      -1.171  11.557  22.874  0.00  0.00    +0.000 A 
ATOM     15  C   UNL     1      -0.800  12.131  21.661  0.00  0.00    +0.000 A 
ATOM     16  C   UNL     1      -0.071  11.398  20.710  0.00  0.00    +0.000 A 
ATOM     17 CL   UNL     1       0.264  12.230  19.225  0.00  0.00    +0.000 Cl
ENDBRANCH   9  11
ENDBRANCH   2   5
BRANCH   1  18
ATOM     18  C   UNL     1       3.347   3.574  19.377  0.00  0.00    +0.000 C 
BRANCH  18  19
ATOM     19  C   UNL     1       2.462   2.632  18.548  0.00  0.00    +0.000 C 
BRANCH  19  21
ATOM     20  O   UNL     1       0.123   2.085  18.379  0.00  0.00    +0.000 OA
ATOM     21  C   UNL     1       1.052   2.489  19.062  0.00  0.00    +0.000 C 
BRANCH  21  22
ATOM     22  O   UNL     1       0.890   2.854  20.352  0.00  0.00    +0.000 OA
ATOM     23  H   UNL     1       1.702   2.821  20.893  0.00  0.00    +0.000 HD
ENDBRANCH  21  22
ENDBRANCH  19  21
ENDBRANCH  18  19
BRANCH  18  24
ATOM     24  C   UNL     1       4.858   3.358  19.144  0.00  0.00    +0.000 C 
BRANCH  24  25
ATOM     25  C   UNL     1       5.580   4.478  18.411  0.00  0.00    +0.000 A 
ATOM     26  C   UNL     1       6.463   5.344  19.075  0.00  0.00    +0.000 A 
ATOM     27  C   UNL     1       7.227   6.272  18.360  0.00  0.00    +0.000 A 
ATOM     28  C   UNL     1       7.125   6.342  16.972  0.00  0.00    +0.000 A 
ATOM     29  C   UNL     1       6.225   5.518  16.303  0.00  0.00    +0.000 A 
ATOM     30  C   UNL     1       5.448   4.602  17.018  0.00  0.00    +0.000 A 
ENDBRANCH  24  25
ENDBRANCH  18  24
ENDBRANCH   1  18
TORSDOF 8
ENDMDL
MODEL 7
REMARK VINA RESULT:      -8.2      2.699      4.808
REMARK  Name = 
REMARK  8 active torsions:
REMARK  status: ('A' for Active; 'I' for Inactive)
REMARK    1  A    between atoms: C_2  and  O_3
REMARK    2  A    between atoms: C_2  and  C_4
REMARK    3  A    between atoms: C_4  and  C_5
REMARK    4  A    between atoms: C_5  and  C_6
REMARK    5  A    between atoms: C_5  and  N_13
REMARK    6  A    between atoms: C_6  and  C_7
REMARK    7  A    between atoms: C_14  and  C_16
REMARK    8  A    between atoms: C_20  and  C_21
REMARK                            x       y       z     vdW  Elec       q    Type
REMARK                         _______ _______ _______ _____ _____    ______ ____
ROOT
ATOM      1  N   UNL     1       3.273   6.104  18.260  0.00  0.00    +0.000 N 
ATOM      2  C   UNL     1       2.852   7.372  17.942  0.00  0.00    +0.000 C 
ATOM      3  O   UNL     1       3.060   7.896  16.850  0.00  0.00    +0.000 OA
ATOM      4  H   UNL     1       3.117   5.806  19.219  0.00  0.00    +0.000 HD
ENDROOT
BRANCH   2   5
ATOM      5  C   UNL     1       2.126   8.107  19.031  0.00  0.00    +0.000 A 
ATOM      6  C   UNL     1       1.913   7.484  20.250  0.00  0.00    +0.000 A 
ATOM      7  C   UNL     1       1.211   8.181  21.223  0.00  0.00    +0.000 A 
ATOM      8  C   UNL     1       0.738   9.460  20.934  0.00  0.00    +0.000 A 
ATOM      9  C   UNL     1       0.997  10.034  19.683  0.00  0.00    +0.000 A 
ATOM     10  N   UNL     1       1.701   9.367  18.738  0.00  0.00    +0.000 NA
BRANCH   9  11
ATOM     11  C   UNL     1       0.554  11.411  19.340  0.00  0.00    +0.000 A 
ATOM     12  C   UNL     1       1.314  12.518  19.791  0.00  0.00    +0.000 A 
ATOM     13  C   UNL     1       0.954  13.838  19.503  0.00  0.00    +0.000 A 
ATOM     14  C   UNL     1      -0.175  14.096  18.740  0.00  0.00    +0.000 A 
ATOM     15  C   UNL     1      -0.945  13.033  18.274  0.00  0.00    +0.000 A 
ATOM     16  C   UNL     1      -0.593  11.706  18.570  0.00  0.00    +0.000 A 
ATOM     17 CL   UNL     1      -1.682  10.495  17.970  0.00  0.00    +0.000 Cl
ENDBRANCH   9  11
ENDBRANCH   2   5
BRANCH   1  18
ATOM     18  C   UNL     1       4.015   5.260  17.326  0.00  0.00    +0.000 C 
BRANCH  18  19
ATOM     19  C   UNL     1       5.497   5.658  17.355  0.00  0.00    +0.000 C 
BRANCH  19  21
ATOM     20  O   UNL     1       6.054   5.472  19.691  0.00  0.00    +0.000 OA
ATOM     21  C   UNL     1       6.263   5.123  18.538  0.00  0.00    +0.000 C 
BRANCH  21  22
ATOM     22  O   UNL     1       7.216   4.220  18.223  0.00  0.00    +0.000 OA
ATOM     23  H   UNL     1       7.100   3.340  18.633  0.00  0.00    +0.000 HD
ENDBRANCH  21  22
ENDBRANCH  19  21
ENDBRANCH  18  19
BRANCH  18  24
ATOM     24  C   UNL     1       3.774   3.769  17.642  0.00  0.00    +0.000 C 
BRANCH  24  25
ATOM     25  C   UNL     1       2.890   3.482  18.846  0.00  0.00    +0.000 A 
ATOM     26  C   UNL     1       1.491   3.468  18.745  0.00  0.00    +0.000 A 
ATOM     27  C   UNL     1       0.701   3.061  19.825  0.00  0.00    +0.000 A 
ATOM     28  C   UNL     1       1.298   2.655  21.017  0.00  0.00    +0.000 A 
ATOM     29  C   UNL     1       2.684   2.702  21.146  0.00  0.00    +0.000 A 
ATOM     30  C   UNL     1       3.474   3.125  20.072  0.00  0.00    +0.000 A 
ENDBRANCH  24  25
ENDBRANCH  18  24
ENDBRANCH   1  18
TORSDOF 8
ENDMDL
MODEL 8
REMARK VINA RESULT:      -8.2      2.500      4.021
REMARK  Name = 
REMARK  8 active torsions:
REMARK  status: ('A' for Active; 'I' for Inactive)
REMARK    1  A    between atoms: C_2  and  O_3
REMARK    2  A    between atoms: C_2  and  C_4
REMARK    3  A    between atoms: C_4  and  C_5
REMARK    4  A    between atoms: C_5  and  C_6
REMARK    5  A    between atoms: C_5  and  N_13
REMARK    6  A    between atoms: C_6  and  C_7
REMARK    7  A    between atoms: C_14  and  C_16
REMARK    8  A    between atoms: C_20  and  C_21
REMARK                            x       y       z     vdW  Elec       q    Type
REMARK                         _______ _______ _______ _____ _____    ______ ____
ROOT
ATOM      1  N   UNL     1       3.930   6.435  18.050  0.00  0.00    +0.000 N 
ATOM      2  C   UNL     1       3.109   7.509  17.811  0.00  0.00    +0.000 C 
ATOM      3  O   UNL     1       3.065   8.096  16.732  0.00  0.00    +0.000 OA
ATOM      4  H   UNL     1       3.943   6.082  19.003  0.00  0.00    +0.000 HD
ENDROOT
BRANCH   2   5
ATOM      5  C   UNL     1       2.265   7.951  18.971  0.00  0.00    +0.000 A 
ATOM      6  C   UNL     1       2.130   7.122  20.073  0.00  0.00    +0.000 A 
ATOM      7  C   UNL     1       1.317   7.548  21.112  0.00  0.00    +0.000 A 
ATOM      8  C   UNL     1       0.662   8.775  21.004  0.00  0.00    +0.000 A 
ATOM      9  C   UNL     1       0.850   9.568  19.865  0.00  0.00    +0.000 A 
ATOM     10  N   UNL     1       1.661   9.166  18.858  0.00  0.00    +0.000 NA
BRANCH   9  11
ATOM     11  C   UNL     1       0.212  10.902  19.720  0.00  0.00    +0.000 A 
ATOM     12  C   UNL     1       0.583  11.950  20.597  0.00  0.00    +0.000 A 
ATOM     13  C   UNL     1       0.022  13.228  20.515  0.00  0.00    +0.000 A 
ATOM     14  C   UNL     1      -0.924  13.506  19.538  0.00  0.00    +0.000 A 
ATOM     15  C   UNL     1      -1.309  12.503  18.652  0.00  0.00    +0.000 A 
ATOM     16  C   UNL     1      -0.757  11.215  18.739  0.00  0.00    +0.000 A 
ATOM     17 CL   UNL     1      -1.380  10.058  17.606  0.00  0.00    +0.000 Cl
ENDBRANCH   9  11
ENDBRANCH   2   5
BRANCH   1  18
ATOM     18  C   UNL     1       4.835   5.892  17.039  0.00  0.00    +0.000 C 
BRANCH  18  19
ATOM     19  C   UNL     1       6.286   6.124  17.483  0.00  0.00    +0.000 C 
BRANCH  19  21
ATOM     20  O   UNL     1       6.356   5.256  19.728  0.00  0.00    +0.000 OA
ATOM     21  C   UNL     1       6.759   5.198  18.575  0.00  0.00    +0.000 C 
BRANCH  21  22
ATOM     22  O   UNL     1       7.679   4.294  18.179  0.00  0.00    +0.000 OA
ATOM     23  H   UNL     1       8.061   3.755  18.899  0.00  0.00    +0.000 HD
ENDBRANCH  21  22
ENDBRANCH  19  21
ENDBRANCH  18  19
BRANCH  18  24
ATOM     24  C   UNL     1       4.507   4.408  16.767  0.00  0.00    +0.000 C 
BRANCH  24  25
ATOM     25  C   UNL     1       3.496   3.771  17.709  0.00  0.00    +0.000 A 
ATOM     26  C   UNL     1       2.116   3.963  17.547  0.00  0.00    +0.000 A 
ATOM     27  C   UNL     1       1.199   3.255  18.331  0.00  0.00    +0.000 A 
ATOM     28  C   UNL     1       1.649   2.340  19.281  0.00  0.00    +0.000 A 
ATOM     29  C   UNL     1       3.016   2.168  19.481  0.00  0.00    +0.000 A 
ATOM     30  C   UNL     1       3.933   2.888  18.709  0.00  0.00    +0.000 A 
ENDBRANCH  24  25
ENDBRANCH  18  24
ENDBRANCH   1  18
TORSDOF 8
ENDMDL
MODEL 9
REMARK VINA RESULT:      -8.2      2.370      3.823
REMARK  Name = 
REMARK  8 active torsions:
REMARK  status: ('A' for Active; 'I' for Inactive)
REMARK    1  A    between atoms: C_2  and  O_3
REMARK    2  A    between atoms: C_2  and  C_4
REMARK    3  A    between atoms: C_4  and  C_5
REMARK    4  A    between atoms: C_5  and  C_6
REMARK    5  A    between atoms: C_5  and  N_13
REMARK    6  A    between atoms: C_6  and  C_7
REMARK    7  A    between atoms: C_14  and  C_16
REMARK    8  A    between atoms: C_20  and  C_21
REMARK                            x       y       z     vdW  Elec       q    Type
REMARK                         _______ _______ _______ _____ _____    ______ ____
ROOT
ATOM      1  N   UNL     1       2.635   4.905  18.395  0.00  0.00    +0.000 N 
ATOM      2  C   UNL     1       3.146   5.933  19.149  0.00  0.00    +0.000 C 
ATOM      3  O   UNL     1       4.041   5.780  19.978  0.00  0.00    +0.000 OA
ATOM      4  H   UNL     1       1.842   5.133  17.803  0.00  0.00    +0.000 HD
ENDROOT
BRANCH   2   5
ATOM      5  C   UNL     1       2.523   7.278  18.918  0.00  0.00    +0.000 A 
ATOM      6  C   UNL     1       2.715   7.921  17.706  0.00  0.00    +0.000 A 
ATOM      7  C   UNL     1       2.151   9.177  17.539  0.00  0.00    +0.000 A 
ATOM      8  C   UNL     1       1.434   9.746  18.591  0.00  0.00    +0.000 A 
ATOM      9  C   UNL     1       1.271   9.037  19.788  0.00  0.00    +0.000 A 
ATOM     10  N   UNL     1       1.800   7.801  19.947  0.00  0.00    +0.000 NA
BRANCH   9  11
ATOM     11  C   UNL     1       0.479   9.578  20.922  0.00  0.00    +0.000 A 
ATOM     12  C   UNL     1       0.661   9.037  22.218  0.00  0.00    +0.000 A 
ATOM     13  C   UNL     1      -0.051   9.500  23.329  0.00  0.00    +0.000 A 
ATOM     14  C   UNL     1      -0.965  10.534  23.182  0.00  0.00    +0.000 A 
ATOM     15  C   UNL     1      -1.167  11.096  21.924  0.00  0.00    +0.000 A 
ATOM     16  C   UNL     1      -0.462  10.626  20.804  0.00  0.00    +0.000 A 
ATOM     17 CL   UNL     1      -0.866  11.385  19.297  0.00  0.00    +0.000 Cl
ENDBRANCH   9  11
ENDBRANCH   2   5
BRANCH   1  18
ATOM     18  C   UNL     1       3.110   3.527  18.512  0.00  0.00    +0.000 C 
BRANCH  18  19
ATOM     19  C   UNL     1       1.948   2.630  18.961  0.00  0.00    +0.000 C 
BRANCH  19  21
ATOM     20  O   UNL     1       0.551   4.048  20.317  0.00  0.00    +0.000 OA
ATOM     21  C   UNL     1       1.279   3.069  20.239  0.00  0.00    +0.000 C 
BRANCH  21  22
ATOM     22  O   UNL     1       1.555   2.292  21.307  0.00  0.00    +0.000 OA
ATOM     23  H   UNL     1       1.043   2.503  22.112  0.00  0.00    +0.000 HD
ENDBRANCH  21  22
ENDBRANCH  19  21
ENDBRANCH  18  19
BRANCH  18  24
ATOM     24  C   UNL     1       3.763   3.070  17.191  0.00  0.00    +0.000 C 
BRANCH  24  25
ATOM     25  C   UNL     1       4.950   3.896  16.718  0.00  0.00    +0.000 A 
ATOM     26  C   UNL     1       6.060   4.129  17.545  0.00  0.00    +0.000 A 
ATOM     27  C   UNL     1       7.201   4.765  17.046  0.00  0.00    +0.000 A 
ATOM     28  C   UNL     1       7.251   5.170  15.713  0.00  0.00    +0.000 A 
ATOM     29  C   UNL     1       6.143   4.983  14.892  0.00  0.00    +0.000 A 
ATOM     30  C   UNL     1       4.995   4.362  15.395  0.00  0.00    +0.000 A 
ENDBRANCH  24  25
ENDBRANCH  18  24
ENDBRANCH   1  18
TORSDOF 8
ENDMDL
