MODEL 1
REMARK VINA RESULT:      -7.9      0.000      0.000
REMARK  Name = 
REMARK  11 active torsions:
REMARK  status: ('A' for Active; 'I' for Inactive)
REMARK    1  A    between atoms: C_1  and  C_2
REMARK    2  A    between atoms: C_2  and  C_3
REMARK    3  A    between atoms: C_3  and  C_4
REMARK    4  A    between atoms: C_4  and  C_5
REMARK    5  A    between atoms: C_5  and  C_6
REMARK    6  A    between atoms: C_6  and  O_7
REMARK    7  A    between atoms: C_6  and  C_8
REMARK    8  A    between atoms: C_6  and  C_19
REMARK    9  A    between atoms: N_10  and  C_11
REMARK   10  A    between atoms: C_11  and  C_12
REMARK   11  A    between atoms: C_12  and  C_13
REMARK                            x       y       z     vdW  Elec       q    Type
REMARK                         _______ _______ _______ _____ _____    ______ ____
ROOT
ATOM      1  C   UNL     1       6.482   5.290  17.779  0.00  0.00    +0.000 C 
ENDROOT
BRANCH   1   2
ATOM      2  C   UNL     1       5.036   5.508  18.262  0.00  0.00    +0.000 A 
ATOM      3  C   UNL     1       4.462   4.667  19.234  0.00  0.00    +0.000 A 
ATOM      4  C   UNL     1       3.111   4.773  19.581  0.00  0.00    +0.000 A 
ATOM      5  C   UNL     1       2.309   5.739  18.982  0.00  0.00    +0.000 A 
ATOM      6  C   UNL     1       2.857   6.603  18.044  0.00  0.00    +0.000 A 
ATOM      7  C   UNL     1       4.202   6.484  17.683  0.00  0.00    +0.000 A 
ENDBRANCH   1   2
BRANCH   1   8
ATOM      8  C   UNL     1       7.529   6.208  18.502  0.00  0.00    +0.000 C 
ATOM      9  O   UNL     1       8.182   5.776  19.455  0.00  0.00    +0.000 OA
ATOM     10  N   UNL     1       7.763   7.463  17.979  0.00  0.00    +0.000 N 
ATOM     11  H   UNL     1       7.089   7.856  17.338  0.00  0.00    +0.000 HD
BRANCH  10  12
ATOM     12  C   UNL     1       8.648   8.396  18.658  0.00  0.00    +0.000 C 
BRANCH  12  13
ATOM     13  C   UNL     1       8.559   9.828  18.115  0.00  0.00    +0.000 C 
BRANCH  13  14
ATOM     14  C   UNL     1       9.603  10.770  18.678  0.00  0.00    +0.000 A 
ATOM     15  C   UNL     1      10.494  11.443  17.833  0.00  0.00    +0.000 A 
ATOM     16  C   UNL     1      11.458  12.310  18.358  0.00  0.00    +0.000 A 
ATOM     17  C   UNL     1      11.532  12.516  19.733  0.00  0.00    +0.000 A 
ATOM     18  C   UNL     1      10.644  11.861  20.583  0.00  0.00    +0.000 A 
ATOM     19  C   UNL     1       9.683  10.993  20.061  0.00  0.00    +0.000 A 
ENDBRANCH  13  14
ENDBRANCH  12  13
ENDBRANCH  10  12
ENDBRANCH   1   8
BRANCH   1  20
ATOM     20  O   UNL     1       6.858   3.922  18.059  0.00  0.00    +0.000 OA
ATOM     21  H   UNL     1       7.678   3.978  18.589  0.00  0.00    +0.000 HD
ENDBRANCH   1  20
BRANCH   1  22
ATOM     22  C   UNL     1       6.536   5.436  16.242  0.00  0.00    +0.000 C 
BRANCH  22  23
ATOM     23  C   UNL     1       6.357   4.123  15.475  0.00  0.00    +0.000 C 
BRANCH  23  24
ATOM     24  C   UNL     1       5.535   4.350  14.203  0.00  0.00    +0.000 C 
BRANCH  24  26
ATOM     25  C   UNL     1       5.187   3.211  11.982  0.00  0.00    +0.000 C 
ATOM     26  C   UNL     1       6.205   3.688  13.003  0.00  0.00    +0.000 C 
ENDBRANCH  24  26
ENDBRANCH  23  24
ENDBRANCH  22  23
ENDBRANCH   1  22
TORSDOF 10
ENDMDL
MODEL 2
REMARK VINA RESULT:      -7.9      0.918      1.295
REMARK  Name = 
REMARK  11 active torsions:
REMARK  status: ('A' for Active; 'I' for Inactive)
REMARK    1  A    between atoms: C_1  and  C_2
REMARK    2  A    between atoms: C_2  and  C_3
REMARK    3  A    between atoms: C_3  and  C_4
REMARK    4  A    between atoms: C_4  and  C_5
REMARK    5  A    between atoms: C_5  and  C_6
REMARK    6  A    between atoms: C_6  and  O_7
REMARK    7  A    between atoms: C_6  and  C_8
REMARK    8  A    between atoms: C_6  and  C_19
REMARK    9  A    between atoms: N_10  and  C_11
REMARK   10  A    between atoms: C_11  and  C_12
REMARK   11  A    between atoms: C_12  and  C_13
REMARK                            x       y       z     vdW  Elec       q    Type
REMARK                         _______ _______ _______ _____ _____    ______ ____
ROOT
ATOM      1  C   UNL     1       5.972   5.246  16.789  0.00  0.00    +0.000 C 
ENDROOT
BRANCH   1   2
ATOM      2  C   UNL     1       4.525   5.440  17.279  0.00  0.00    +0.000 A 
ATOM      3  C   UNL     1       4.022   6.724  17.565  0.00  0.00    +0.000 A 
ATOM      4  C   UNL     1       2.757   6.899  18.136  0.00  0.00    +0.000 A 
ATOM      5  C   UNL     1       1.955   5.796  18.410  0.00  0.00    +0.000 A 
ATOM      6  C   UNL     1       2.412   4.520  18.107  0.00  0.00    +0.000 A 
ATOM      7  C   UNL     1       3.684   4.345  17.556  0.00  0.00    +0.000 A 
ENDBRANCH   1   2
BRANCH   1   8
ATOM      8  C   UNL     1       7.033   6.020  17.648  0.00  0.00    +0.000 C 
ATOM      9  O   UNL     1       7.601   5.459  18.588  0.00  0.00    +0.000 OA
ATOM     10  N   UNL     1       7.379   7.297  17.257  0.00  0.00    +0.000 N 
ATOM     11  H   UNL     1       6.770   7.792  16.622  0.00  0.00    +0.000 HD
BRANCH  10  12
ATOM     12  C   UNL     1       8.282   8.100  18.065  0.00  0.00    +0.000 C 
BRANCH  12  13
ATOM     13  C   UNL     1       8.108   9.610  17.858  0.00  0.00    +0.000 C 
BRANCH  13  14
ATOM     14  C   UNL     1       9.171  10.454  18.530  0.00  0.00    +0.000 A 
ATOM     15  C   UNL     1      10.105  11.170  17.771  0.00  0.00    +0.000 A 
ATOM     16  C   UNL     1      11.087  11.946  18.395  0.00  0.00    +0.000 A 
ATOM     17  C   UNL     1      11.136  12.018  19.785  0.00  0.00    +0.000 A 
ATOM     18  C   UNL     1      10.205  11.320  20.551  0.00  0.00    +0.000 A 
ATOM     19  C   UNL     1       9.226  10.543  19.929  0.00  0.00    +0.000 A 
ENDBRANCH  13  14
ENDBRANCH  12  13
ENDBRANCH  10  12
ENDBRANCH   1   8
BRANCH   1  20
ATOM     20  O   UNL     1       6.302   3.842  16.878  0.00  0.00    +0.000 OA
ATOM     21  H   UNL     1       6.673   3.603  16.005  0.00  0.00    +0.000 HD
ENDBRANCH   1  20
BRANCH   1  22
ATOM     22  C   UNL     1       6.056   5.605  15.289  0.00  0.00    +0.000 C 
BRANCH  22  23
ATOM     23  C   UNL     1       5.591   4.492  14.345  0.00  0.00    +0.000 C 
BRANCH  23  24
ATOM     24  C   UNL     1       6.757   3.992  13.488  0.00  0.00    +0.000 C 
BRANCH  24  26
ATOM     25  C   UNL     1       4.735   3.470  12.077  0.00  0.00    +0.000 C 
ATOM     26  C   UNL     1       6.246   3.381  12.187  0.00  0.00    +0.000 C 
ENDBRANCH  24  26
ENDBRANCH  23  24
ENDBRANCH  22  23
ENDBRANCH   1  22
TORSDOF 10
ENDMDL
MODEL 3
REMARK VINA RESULT:      -7.7      0.618      1.162
REMARK  Name = 
REMARK  11 active torsions:
REMARK  status: ('A' for Active; 'I' for Inactive)
REMARK    1  A    between atoms: C_1  and  C_2
REMARK    2  A    between atoms: C_2  and  C_3
REMARK    3  A    between atoms: C_3  and  C_4
REMARK    4  A    between atoms: C_4  and  C_5
REMARK    5  A    between atoms: C_5  and  C_6
REMARK    6  A    between atoms: C_6  and  O_7
REMARK    7  A    between atoms: C_6  and  C_8
REMARK    8  A    between atoms: C_6  and  C_19
REMARK    9  A    between atoms: N_10  and  C_11
REMARK   10  A    between atoms: C_11  and  C_12
REMARK   11  A    between atoms: C_12  and  C_13
REMARK                            x       y       z     vdW  Elec       q    Type
REMARK                         _______ _______ _______ _____ _____    ______ ____
ROOT
ATOM      1  C   UNL     1       5.969   5.627  17.419  0.00  0.00    +0.000 C 
ENDROOT
BRANCH   1   2
ATOM      2  C   UNL     1       4.664   6.023  18.134  0.00  0.00    +0.000 A 
ATOM      3  C   UNL     1       4.217   5.320  19.270  0.00  0.00    +0.000 A 
ATOM      4  C   UNL     1       2.970   5.587  19.846  0.00  0.00    +0.000 A 
ATOM      5  C   UNL     1       2.153   6.579  19.315  0.00  0.00    +0.000 A 
ATOM      6  C   UNL     1       2.583   7.310  18.216  0.00  0.00    +0.000 A 
ATOM      7  C   UNL     1       3.819   7.031  17.629  0.00  0.00    +0.000 A 
ENDBRANCH   1   2
BRANCH   1   8
ATOM      8  C   UNL     1       7.233   6.386  17.955  0.00  0.00    +0.000 C 
ATOM      9  O   UNL     1       8.046   5.806  18.678  0.00  0.00    +0.000 OA
ATOM     10  N   UNL     1       7.453   7.674  17.511  0.00  0.00    +0.000 N 
ATOM     11  H   UNL     1       6.688   8.180  17.090  0.00  0.00    +0.000 HD
BRANCH  10  12
ATOM     12  C   UNL     1       8.552   8.463  18.045  0.00  0.00    +0.000 C 
BRANCH  12  13
ATOM     13  C   UNL     1       8.275   9.972  18.048  0.00  0.00    +0.000 C 
BRANCH  13  14
ATOM     14  C   UNL     1       9.390  10.805  18.646  0.00  0.00    +0.000 A 
ATOM     15  C   UNL     1       9.470  11.012  20.028  0.00  0.00    +0.000 A 
ATOM     16  C   UNL     1      10.500  11.784  20.575  0.00  0.00    +0.000 A 
ATOM     17  C   UNL     1      11.463  12.349  19.743  0.00  0.00    +0.000 A 
ATOM     18  C   UNL     1      11.401  12.140  18.367  0.00  0.00    +0.000 A 
ATOM     19  C   UNL     1      10.372  11.372  17.819  0.00  0.00    +0.000 A 
ENDBRANCH  13  14
ENDBRANCH  12  13
ENDBRANCH  10  12
ENDBRANCH   1   8
BRANCH   1  20
ATOM     20  O   UNL     1       6.201   4.217  17.636  0.00  0.00    +0.000 OA
ATOM     21  H   UNL     1       5.599   3.959  18.362  0.00  0.00    +0.000 HD
ENDBRANCH   1  20
BRANCH   1  22
ATOM     22  C   UNL     1       5.786   5.794  15.894  0.00  0.00    +0.000 C 
BRANCH  22  23
ATOM     23  C   UNL     1       6.729   4.934  15.046  0.00  0.00    +0.000 C 
BRANCH  23  24
ATOM     24  C   UNL     1       5.940   3.877  14.268  0.00  0.00    +0.000 C 
BRANCH  24  26
ATOM     25  C   UNL     1       5.315   3.262  11.906  0.00  0.00    +0.000 C 
ATOM     26  C   UNL     1       6.392   3.830  12.812  0.00  0.00    +0.000 C 
ENDBRANCH  24  26
ENDBRANCH  23  24
ENDBRANCH  22  23
ENDBRANCH   1  22
TORSDOF 10
ENDMDL
MODEL 4
REMARK VINA RESULT:      -7.7      0.444      1.416
REMARK  Name = 
REMARK  11 active torsions:
REMARK  status: ('A' for Active; 'I' for Inactive)
REMARK    1  A    between atoms: C_1  and  C_2
REMARK    2  A    between atoms: C_2  and  C_3
REMARK    3  A    between atoms: C_3  and  C_4
REMARK    4  A    between atoms: C_4  and  C_5
REMARK    5  A    between atoms: C_5  and  C_6
REMARK    6  A    between atoms: C_6  and  O_7
REMARK    7  A    between atoms: C_6  and  C_8
REMARK    8  A    between atoms: C_6  and  C_19
REMARK    9  A    between atoms: N_10  and  C_11
REMARK   10  A    between atoms: C_11  and  C_12
REMARK   11  A    between atoms: C_12  and  C_13
REMARK                            x       y       z     vdW  Elec       q    Type
REMARK                         _______ _______ _______ _____ _____    ______ ____
ROOT
ATOM      1  C   UNL     1       6.390   5.430  17.743  0.00  0.00    +0.000 C 
ENDROOT
BRANCH   1   2
ATOM      2  C   UNL     1       4.939   5.720  18.167  0.00  0.00    +0.000 A 
ATOM      3  C   UNL     1       4.134   6.614  17.435  0.00  0.00    +0.000 A 
ATOM      4  C   UNL     1       2.863   6.985  17.887  0.00  0.00    +0.000 A 
ATOM      5  C   UNL     1       2.357   6.452  19.068  0.00  0.00    +0.000 A 
ATOM      6  C   UNL     1       3.116   5.542  19.793  0.00  0.00    +0.000 A 
ATOM      7  C   UNL     1       4.393   5.187  19.352  0.00  0.00    +0.000 A 
ENDBRANCH   1   2
BRANCH   1   8
ATOM      8  C   UNL     1       7.442   6.379  18.417  0.00  0.00    +0.000 C 
ATOM      9  O   UNL     1       8.105   5.988  19.380  0.00  0.00    +0.000 OA
ATOM     10  N   UNL     1       7.669   7.611  17.839  0.00  0.00    +0.000 N 
ATOM     11  H   UNL     1       6.988   7.975  17.189  0.00  0.00    +0.000 HD
BRANCH  10  12
ATOM     12  C   UNL     1       8.559   8.572  18.471  0.00  0.00    +0.000 C 
BRANCH  12  13
ATOM     13  C   UNL     1       8.376  10.005  17.953  0.00  0.00    +0.000 C 
BRANCH  13  14
ATOM     14  C   UNL     1       9.431  10.978  18.438  0.00  0.00    +0.000 A 
ATOM     15  C   UNL     1       9.961  10.877  19.730  0.00  0.00    +0.000 A 
ATOM     16  C   UNL     1      10.933  11.780  20.174  0.00  0.00    +0.000 A 
ATOM     17  C   UNL     1      11.387  12.786  19.325  0.00  0.00    +0.000 A 
ATOM     18  C   UNL     1      10.876  12.889  18.034  0.00  0.00    +0.000 A 
ATOM     19  C   UNL     1       9.904  11.991  17.590  0.00  0.00    +0.000 A 
ENDBRANCH  13  14
ENDBRANCH  12  13
ENDBRANCH  10  12
ENDBRANCH   1   8
BRANCH   1  20
ATOM     20  O   UNL     1       6.725   4.081  18.141  0.00  0.00    +0.000 OA
ATOM     21  H   UNL     1       6.125   3.869  18.885  0.00  0.00    +0.000 HD
ENDBRANCH   1  20
BRANCH   1  22
ATOM     22  C   UNL     1       6.485   5.449  16.201  0.00  0.00    +0.000 C 
BRANCH  22  23
ATOM     23  C   UNL     1       6.228   4.095  15.534  0.00  0.00    +0.000 C 
BRANCH  23  24
ATOM     24  C   UNL     1       5.461   4.278  14.221  0.00  0.00    +0.000 C 
BRANCH  24  26
ATOM     25  C   UNL     1       5.550   3.179  11.955  0.00  0.00    +0.000 C 
ATOM     26  C   UNL     1       6.338   3.908  13.029  0.00  0.00    +0.000 C 
ENDBRANCH  24  26
ENDBRANCH  23  24
ENDBRANCH  22  23
ENDBRANCH   1  22
TORSDOF 10
ENDMDL
MODEL 5
REMARK VINA RESULT:      -7.7      4.790      6.763
REMARK  Name = 
REMARK  11 active torsions:
REMARK  status: ('A' for Active; 'I' for Inactive)
REMARK    1  A    between atoms: C_1  and  C_2
REMARK    2  A    between atoms: C_2  and  C_3
REMARK    3  A    between atoms: C_3  and  C_4
REMARK    4  A    between atoms: C_4  and  C_5
REMARK    5  A    between atoms: C_5  and  C_6
REMARK    6  A    between atoms: C_6  and  O_7
REMARK    7  A    between atoms: C_6  and  C_8
REMARK    8  A    between atoms: C_6  and  C_19
REMARK    9  A    between atoms: N_10  and  C_11
REMARK   10  A    between atoms: C_11  and  C_12
REMARK   11  A    between atoms: C_12  and  C_13
REMARK                            x       y       z     vdW  Elec       q    Type
REMARK                         _______ _______ _______ _____ _____    ______ ____
ROOT
ATOM      1  C   UNL     1       2.745   5.860  19.248  0.00  0.00    +0.000 C 
ENDROOT
BRANCH   1   2
ATOM      2  C   UNL     1       2.240   7.314  19.219  0.00  0.00    +0.000 A 
ATOM      3  C   UNL     1       1.681   7.910  20.366  0.00  0.00    +0.000 A 
ATOM      4  C   UNL     1       1.099   9.182  20.314  0.00  0.00    +0.000 A 
ATOM      5  C   UNL     1       1.085   9.897  19.121  0.00  0.00    +0.000 A 
ATOM      6  C   UNL     1       1.659   9.347  17.982  0.00  0.00    +0.000 A 
ATOM      7  C   UNL     1       2.222   8.069  18.029  0.00  0.00    +0.000 A 
ENDBRANCH   1   2
BRANCH   1   8
ATOM      8  C   UNL     1       4.139   5.668  18.554  0.00  0.00    +0.000 C 
ATOM      9  O   UNL     1       5.154   5.494  19.233  0.00  0.00    +0.000 OA
ATOM     10  N   UNL     1       4.175   5.597  17.176  0.00  0.00    +0.000 N 
ATOM     11  H   UNL     1       3.381   5.933  16.652  0.00  0.00    +0.000 HD
BRANCH  10  12
ATOM     12  C   UNL     1       5.445   5.517  16.472  0.00  0.00    +0.000 C 
BRANCH  12  13
ATOM     13  C   UNL     1       5.694   4.153  15.816  0.00  0.00    +0.000 C 
BRANCH  13  14
ATOM     14  C   UNL     1       6.263   4.233  14.415  0.00  0.00    +0.000 A 
ATOM     15  C   UNL     1       7.309   5.114  14.113  0.00  0.00    +0.000 A 
ATOM     16  C   UNL     1       7.829   5.187  12.817  0.00  0.00    +0.000 A 
ATOM     17  C   UNL     1       7.311   4.372  11.813  0.00  0.00    +0.000 A 
ATOM     18  C   UNL     1       6.278   3.483  12.104  0.00  0.00    +0.000 A 
ATOM     19  C   UNL     1       5.757   3.411  13.397  0.00  0.00    +0.000 A 
ENDBRANCH  13  14
ENDBRANCH  12  13
ENDBRANCH  10  12
ENDBRANCH   1   8
BRANCH   1  20
ATOM     20  O   UNL     1       2.902   5.456  20.626  0.00  0.00    +0.000 OA
ATOM     21  H   UNL     1       3.656   5.976  20.970  0.00  0.00    +0.000 HD
ENDBRANCH   1  20
BRANCH   1  22
ATOM     22  C   UNL     1       1.662   4.931  18.656  0.00  0.00    +0.000 C 
BRANCH  22  23
ATOM     23  C   UNL     1       1.172   3.841  19.614  0.00  0.00    +0.000 C 
BRANCH  23  24
ATOM     24  C   UNL     1       1.222   2.468  18.939  0.00  0.00    +0.000 C 
BRANCH  24  26
ATOM     25  C   UNL     1       3.524   1.673  18.289  0.00  0.00    +0.000 C 
ATOM     26  C   UNL     1       2.290   2.441  17.850  0.00  0.00    +0.000 C 
ENDBRANCH  24  26
ENDBRANCH  23  24
ENDBRANCH  22  23
ENDBRANCH   1  22
TORSDOF 10
ENDMDL
MODEL 6
REMARK VINA RESULT:      -7.6      1.905      7.947
REMARK  Name = 
REMARK  11 active torsions:
REMARK  status: ('A' for Active; 'I' for Inactive)
REMARK    1  A    between atoms: C_1  and  C_2
REMARK    2  A    between atoms: C_2  and  C_3
REMARK    3  A    between atoms: C_3  and  C_4
REMARK    4  A    between atoms: C_4  and  C_5
REMARK    5  A    between atoms: C_5  and  C_6
REMARK    6  A    between atoms: C_6  and  O_7
REMARK    7  A    between atoms: C_6  and  C_8
REMARK    8  A    between atoms: C_6  and  C_19
REMARK    9  A    between atoms: N_10  and  C_11
REMARK   10  A    between atoms: C_11  and  C_12
REMARK   11  A    between atoms: C_12  and  C_13
REMARK                            x       y       z     vdW  Elec       q    Type
REMARK                         _______ _______ _______ _____ _____    ______ ____
ROOT
ATOM      1  C   UNL     1       6.461   5.312  16.226  0.00  0.00    +0.000 C 
ENDROOT
BRANCH   1   2
ATOM      2  C   UNL     1       6.670   4.819  14.783  0.00  0.00    +0.000 A 
ATOM      3  C   UNL     1       7.637   5.409  13.947  0.00  0.00    +0.000 A 
ATOM      4  C   UNL     1       7.743   5.059  12.597  0.00  0.00    +0.000 A 
ATOM      5  C   UNL     1       6.901   4.091  12.058  0.00  0.00    +0.000 A 
ATOM      6  C   UNL     1       5.961   3.468  12.867  0.00  0.00    +0.000 A 
ATOM      7  C   UNL     1       5.842   3.833  14.211  0.00  0.00    +0.000 A 
ENDBRANCH   1   2
BRANCH   1   8
ATOM      8  C   UNL     1       5.185   6.207  16.404  0.00  0.00    +0.000 C 
ATOM      9  O   UNL     1       4.887   7.043  15.548  0.00  0.00    +0.000 OA
ATOM     10  N   UNL     1       4.362   5.957  17.484  0.00  0.00    +0.000 N 
ATOM     11  H   UNL     1       4.725   5.418  18.256  0.00  0.00    +0.000 HD
BRANCH  10  12
ATOM     12  C   UNL     1       3.219   6.813  17.756  0.00  0.00    +0.000 C 
BRANCH  12  13
ATOM     13  C   UNL     1       2.628   6.615  19.158  0.00  0.00    +0.000 C 
BRANCH  13  14
ATOM     14  C   UNL     1       2.044   5.237  19.394  0.00  0.00    +0.000 A 
ATOM     15  C   UNL     1       1.838   4.757  20.694  0.00  0.00    +0.000 A 
ATOM     16  C   UNL     1       1.301   3.484  20.907  0.00  0.00    +0.000 A 
ATOM     17  C   UNL     1       0.958   2.683  19.821  0.00  0.00    +0.000 A 
ATOM     18  C   UNL     1       1.146   3.154  18.523  0.00  0.00    +0.000 A 
ATOM     19  C   UNL     1       1.685   4.424  18.309  0.00  0.00    +0.000 A 
ENDBRANCH  13  14
ENDBRANCH  12  13
ENDBRANCH  10  12
ENDBRANCH   1   8
BRANCH   1  20
ATOM     20  O   UNL     1       6.292   4.162  17.086  0.00  0.00    +0.000 OA
ATOM     21  H   UNL     1       5.438   3.763  16.827  0.00  0.00    +0.000 HD
ENDBRANCH   1  20
BRANCH   1  22
ATOM     22  C   UNL     1       7.745   6.019  16.716  0.00  0.00    +0.000 C 
BRANCH  22  23
ATOM     23  C   UNL     1       7.546   6.915  17.942  0.00  0.00    +0.000 C 
BRANCH  23  24
ATOM     24  C   UNL     1       7.818   8.380  17.587  0.00  0.00    +0.000 C 
BRANCH  24  26
ATOM     25  C   UNL     1       9.035  10.472  18.290  0.00  0.00    +0.000 C 
ATOM     26  C   UNL     1       8.671   9.046  18.663  0.00  0.00    +0.000 C 
ENDBRANCH  24  26
ENDBRANCH  23  24
ENDBRANCH  22  23
ENDBRANCH   1  22
TORSDOF 10
ENDMDL
MODEL 7
REMARK VINA RESULT:      -7.6      4.599      5.806
REMARK  Name = 
REMARK  11 active torsions:
REMARK  status: ('A' for Active; 'I' for Inactive)
REMARK    1  A    between atoms: C_1  and  C_2
REMARK    2  A    between atoms: C_2  and  C_3
REMARK    3  A    between atoms: C_3  and  C_4
REMARK    4  A    between atoms: C_4  and  C_5
REMARK    5  A    between atoms: C_5  and  C_6
REMARK    6  A    between atoms: C_6  and  O_7
REMARK    7  A    between atoms: C_6  and  C_8
REMARK    8  A    between atoms: C_6  and  C_19
REMARK    9  A    between atoms: N_10  and  C_11
REMARK   10  A    between atoms: C_11  and  C_12
REMARK   11  A    between atoms: C_12  and  C_13
REMARK                            x       y       z     vdW  Elec       q    Type
REMARK                         _______ _______ _______ _____ _____    ______ ____
ROOT
ATOM      1  C   UNL     1       4.448   4.126  18.165  0.00  0.00    +0.000 C 
ENDROOT
BRANCH   1   2
ATOM      2  C   UNL     1       3.164   3.670  18.883  0.00  0.00    +0.000 A 
ATOM      3  C   UNL     1       2.205   2.881  18.220  0.00  0.00    +0.000 A 
ATOM      4  C   UNL     1       0.977   2.574  18.817  0.00  0.00    +0.000 A 
ATOM      5  C   UNL     1       0.692   3.027  20.101  0.00  0.00    +0.000 A 
ATOM      6  C   UNL     1       1.634   3.779  20.791  0.00  0.00    +0.000 A 
ATOM      7  C   UNL     1       2.851   4.102  20.186  0.00  0.00    +0.000 A 
ENDBRANCH   1   2
BRANCH   1   8
ATOM      8  C   UNL     1       4.620   5.685  18.121  0.00  0.00    +0.000 C 
ATOM      9  O   UNL     1       5.692   6.202  18.446  0.00  0.00    +0.000 OA
ATOM     10  N   UNL     1       3.582   6.439  17.614  0.00  0.00    +0.000 N 
ATOM     11  H   UNL     1       2.666   6.020  17.544  0.00  0.00    +0.000 HD
BRANCH  10  12
ATOM     12  C   UNL     1       3.643   7.892  17.636  0.00  0.00    +0.000 C 
BRANCH  12  13
ATOM     13  C   UNL     1       2.262   8.561  17.623  0.00  0.00    +0.000 C 
BRANCH  13  14
ATOM     14  C   UNL     1       1.641   8.728  18.995  0.00  0.00    +0.000 A 
ATOM     15  C   UNL     1       1.870   7.787  20.006  0.00  0.00    +0.000 A 
ATOM     16  C   UNL     1       1.293   7.945  21.271  0.00  0.00    +0.000 A 
ATOM     17  C   UNL     1       0.488   9.050  21.534  0.00  0.00    +0.000 A 
ATOM     18  C   UNL     1       0.263   9.999  20.540  0.00  0.00    +0.000 A 
ATOM     19  C   UNL     1       0.836   9.842  19.277  0.00  0.00    +0.000 A 
ENDBRANCH  13  14
ENDBRANCH  12  13
ENDBRANCH  10  12
ENDBRANCH   1   8
BRANCH   1  20
ATOM     20  O   UNL     1       5.587   3.597  18.881  0.00  0.00    +0.000 OA
ATOM     21  H   UNL     1       6.136   4.373  19.112  0.00  0.00    +0.000 HD
ENDBRANCH   1  20
BRANCH   1  22
ATOM     22  C   UNL     1       4.502   3.489  16.759  0.00  0.00    +0.000 C 
BRANCH  22  23
ATOM     23  C   UNL     1       5.750   3.850  15.948  0.00  0.00    +0.000 C 
BRANCH  23  24
ATOM     24  C   UNL     1       5.363   4.299  14.536  0.00  0.00    +0.000 C 
BRANCH  24  26
ATOM     25  C   UNL     1       5.878   3.299  12.281  0.00  0.00    +0.000 C 
ATOM     26  C   UNL     1       6.454   3.930  13.535  0.00  0.00    +0.000 C 
ENDBRANCH  24  26
ENDBRANCH  23  24
ENDBRANCH  22  23
ENDBRANCH   1  22
TORSDOF 10
ENDMDL
MODEL 8
REMARK VINA RESULT:      -7.4      4.366      8.080
REMARK  Name = 
REMARK  11 active torsions:
REMARK  status: ('A' for Active; 'I' for Inactive)
REMARK    1  A    between atoms: C_1  and  C_2
REMARK    2  A    between atoms: C_2  and  C_3
REMARK    3  A    between atoms: C_3  and  C_4
REMARK    4  A    between atoms: C_4  and  C_5
REMARK    5  A    between atoms: C_5  and  C_6
REMARK    6  A    between atoms: C_6  and  O_7
REMARK    7  A    between atoms: C_6  and  C_8
REMARK    8  A    between atoms: C_6  and  C_19
REMARK    9  A    between atoms: N_10  and  C_11
REMARK   10  A    between atoms: C_11  and  C_12
REMARK   11  A    between atoms: C_12  and  C_13
REMARK                            x       y       z     vdW  Elec       q    Type
REMARK                         _______ _______ _______ _____ _____    ______ ____
ROOT
ATOM      1  C   UNL     1       6.247   5.505  15.931  0.00  0.00    +0.000 C 
ENDROOT
BRANCH   1   2
ATOM      2  C   UNL     1       6.451   5.005  14.489  0.00  0.00    +0.000 A 
ATOM      3  C   UNL     1       5.592   4.041  13.927  0.00  0.00    +0.000 A 
ATOM      4  C   UNL     1       5.847   3.484  12.669  0.00  0.00    +0.000 A 
ATOM      5  C   UNL     1       6.953   3.896  11.933  0.00  0.00    +0.000 A 
ATOM      6  C   UNL     1       7.799   4.869  12.449  0.00  0.00    +0.000 A 
ATOM      7  C   UNL     1       7.555   5.411  13.713  0.00  0.00    +0.000 A 
ENDBRANCH   1   2
BRANCH   1   8
ATOM      8  C   UNL     1       6.033   4.349  16.970  0.00  0.00    +0.000 C 
ATOM      9  O   UNL     1       6.823   4.199  17.905  0.00  0.00    +0.000 OA
ATOM     10  N   UNL     1       4.890   3.583  16.863  0.00  0.00    +0.000 N 
ATOM     11  H   UNL     1       4.376   3.597  15.995  0.00  0.00    +0.000 HD
BRANCH  10  12
ATOM     12  C   UNL     1       4.683   2.438  17.735  0.00  0.00    +0.000 C 
BRANCH  12  13
ATOM     13  C   UNL     1       3.214   2.009  17.840  0.00  0.00    +0.000 C 
BRANCH  13  14
ATOM     14  C   UNL     1       2.536   2.427  19.128  0.00  0.00    +0.000 A 
ATOM     15  C   UNL     1       3.203   2.331  20.355  0.00  0.00    +0.000 A 
ATOM     16  C   UNL     1       2.572   2.717  21.542  0.00  0.00    +0.000 A 
ATOM     17  C   UNL     1       1.270   3.209  21.509  0.00  0.00    +0.000 A 
ATOM     18  C   UNL     1       0.600   3.322  20.293  0.00  0.00    +0.000 A 
ATOM     19  C   UNL     1       1.228   2.935  19.108  0.00  0.00    +0.000 A 
ENDBRANCH  13  14
ENDBRANCH  12  13
ENDBRANCH  10  12
ENDBRANCH   1   8
BRANCH   1  20
ATOM     20  O   UNL     1       7.433   6.224  16.340  0.00  0.00    +0.000 OA
ATOM     21  H   UNL     1       7.111   6.990  16.856  0.00  0.00    +0.000 HD
ENDBRANCH   1  20
BRANCH   1  22
ATOM     22  C   UNL     1       5.098   6.538  15.956  0.00  0.00    +0.000 C 
BRANCH  22  23
ATOM     23  C   UNL     1       4.742   7.054  17.353  0.00  0.00    +0.000 C 
BRANCH  23  24
ATOM     24  C   UNL     1       3.240   7.327  17.459  0.00  0.00    +0.000 C 
BRANCH  24  26
ATOM     25  C   UNL     1       3.672   5.825  19.436  0.00  0.00    +0.000 C 
ATOM     26  C   UNL     1       2.616   6.489  18.571  0.00  0.00    +0.000 C 
ENDBRANCH  24  26
ENDBRANCH  23  24
ENDBRANCH  22  23
ENDBRANCH   1  22
TORSDOF 10
ENDMDL
MODEL 9
REMARK VINA RESULT:      -7.4      4.347      8.102
REMARK  Name = 
REMARK  11 active torsions:
REMARK  status: ('A' for Active; 'I' for Inactive)
REMARK    1  A    between atoms: C_1  and  C_2
REMARK    2  A    between atoms: C_2  and  C_3
REMARK    3  A    between atoms: C_3  and  C_4
REMARK    4  A    between atoms: C_4  and  C_5
REMARK    5  A    between atoms: C_5  and  C_6
REMARK    6  A    between atoms: C_6  and  O_7
REMARK    7  A    between atoms: C_6  and  C_8
REMARK    8  A    between atoms: C_6  and  C_19
REMARK    9  A    between atoms: N_10  and  C_11
REMARK   10  A    between atoms: C_11  and  C_12
REMARK   11  A    between atoms: C_12  and  C_13
REMARK                            x       y       z     vdW  Elec       q    Type
REMARK                         _______ _______ _______ _____ _____    ______ ____
ROOT
ATOM      1  C   UNL     1       6.361   5.459  15.946  0.00  0.00    +0.000 C 
ENDROOT
BRANCH   1   2
ATOM      2  C   UNL     1       6.615   4.896  14.535  0.00  0.00    +0.000 A 
ATOM      3  C   UNL     1       7.606   5.449  13.701  0.00  0.00    +0.000 A 
ATOM      4  C   UNL     1       7.754   5.033  12.374  0.00  0.00    +0.000 A 
ATOM      5  C   UNL     1       6.931   4.037  11.857  0.00  0.00    +0.000 A 
ATOM      6  C   UNL     1       5.968   3.451  12.667  0.00  0.00    +0.000 A 
ATOM      7  C   UNL     1       5.807   3.880  13.987  0.00  0.00    +0.000 A 
ENDBRANCH   1   2
BRANCH   1   8
ATOM      8  C   UNL     1       6.156   4.349  17.036  0.00  0.00    +0.000 C 
ATOM      9  O   UNL     1       6.976   4.212  17.946  0.00  0.00    +0.000 OA
ATOM     10  N   UNL     1       4.990   3.611  16.999  0.00  0.00    +0.000 N 
ATOM     11  H   UNL     1       4.445   3.607  16.150  0.00  0.00    +0.000 HD
BRANCH  10  12
ATOM     12  C   UNL     1       4.785   2.506  17.921  0.00  0.00    +0.000 C 
BRANCH  12  13
ATOM     13  C   UNL     1       3.338   1.998  17.953  0.00  0.00    +0.000 C 
BRANCH  13  14
ATOM     14  C   UNL     1       2.570   2.393  19.197  0.00  0.00    +0.000 A 
ATOM     15  C   UNL     1       1.213   2.733  19.126  0.00  0.00    +0.000 A 
ATOM     16  C   UNL     1       0.508   3.100  20.277  0.00  0.00    +0.000 A 
ATOM     17  C   UNL     1       1.155   3.122  21.510  0.00  0.00    +0.000 A 
ATOM     18  C   UNL     1       2.501   2.774  21.596  0.00  0.00    +0.000 A 
ATOM     19  C   UNL     1       3.206   2.410  20.447  0.00  0.00    +0.000 A 
ENDBRANCH  13  14
ENDBRANCH  12  13
ENDBRANCH  10  12
ENDBRANCH   1   8
BRANCH   1  20
ATOM     20  O   UNL     1       7.515   6.233  16.346  0.00  0.00    +0.000 OA
ATOM     21  H   UNL     1       8.141   5.591  16.735  0.00  0.00    +0.000 HD
ENDBRANCH   1  20
BRANCH   1  22
ATOM     22  C   UNL     1       5.183   6.456  15.894  0.00  0.00    +0.000 C 
BRANCH  22  23
ATOM     23  C   UNL     1       4.800   7.054  17.250  0.00  0.00    +0.000 C 
BRANCH  23  24
ATOM     24  C   UNL     1       3.284   7.250  17.344  0.00  0.00    +0.000 C 
BRANCH  24  26
ATOM     25  C   UNL     1       3.597   5.876  19.433  0.00  0.00    +0.000 C 
ATOM     26  C   UNL     1       2.664   6.224  18.287  0.00  0.00    +0.000 C 
ENDBRANCH  24  26
ENDBRANCH  23  24
ENDBRANCH  22  23
ENDBRANCH   1  22
TORSDOF 10
ENDMDL
