MODEL 1
REMARK VINA RESULT:      -7.2      0.000      0.000
REMARK  Name = 
REMARK  5 active torsions:
REMARK  status: ('A' for Active; 'I' for Inactive)
REMARK    1  A    between atoms: C_2  and  C_13
REMARK    2  A    between atoms: N_3  and  S_4
REMARK    3  A    between atoms: S_4  and  C_7
REMARK    4  A    between atoms: CA_16  and  C_17
REMARK    5  A    between atoms: C_17  and  OXT_19
REMARK                            x       y       z     vdW  Elec       q    Type
REMARK                         _______ _______ _______ _____ _____    ______ ____
ROOT
ATOM      1  O   UNL     1       4.670   3.389  18.180  0.00  0.00    +0.000 OA
ATOM      2  C   UNL     1       4.601   4.420  17.531  0.00  0.00    +0.000 C 
ATOM      3  N   UNL     1       3.789   5.509  17.863  0.00  0.00    +0.000 N 
ATOM      4  H   UNL     1       3.640   6.292  17.237  0.00  0.00    +0.000 HD
ENDROOT
BRANCH   2   5
ATOM      5  C   UNL     1       5.436   4.585  16.320  0.00  0.00    +0.000 A 
ATOM      6  C   UNL     1       5.164   3.950  15.104  0.00  0.00    +0.000 A 
ATOM      7  C   UNL     1       6.000   4.178  14.010  0.00  0.00    +0.000 A 
ATOM      8  CA  UNL     1       7.088   5.027  14.175  0.00  0.00    +0.000 A 
ATOM      9  N   UNL     1       7.391   5.662  15.344  0.00  0.00    +0.000 NA
ATOM     10  C   UNL     1       6.547   5.427  16.385  0.00  0.00    +0.000 A 
BRANCH   8  11
ATOM     11  C   UNL     1       8.003   5.296  13.026  0.00  0.00    +0.000 C 
ATOM     12  O   UNL     1       9.001   5.992  13.090  0.00  0.00    +0.000 OA
BRANCH  11  13
ATOM     13  OXT UNL     1       7.576   4.667  11.907  0.00  0.00    +0.000 OA
ATOM     14  HXT UNL     1       8.285   4.700  11.223  0.00  0.00    +0.000 HD
ENDBRANCH  11  13
ENDBRANCH   8  11
ENDBRANCH   2   5
BRANCH   3  15
ATOM     15  S   UNL     1       2.714   5.541  19.140  0.00  0.00    +0.000 S 
ATOM     16  O   UNL     1       1.602   4.719  18.702  0.00  0.00    +0.000 OA
ATOM     17  O   UNL     1       3.403   5.254  20.376  0.00  0.00    +0.000 OA
BRANCH  15  18
ATOM     18  C   UNL     1       2.165   7.228  19.147  0.00  0.00    +0.000 A 
ATOM     19  C   UNL     1       2.238   7.983  17.971  0.00  0.00    +0.000 A 
ATOM     20  C   UNL     1       1.786   9.303  17.969  0.00  0.00    +0.000 A 
ATOM     21  C   UNL     1       1.254   9.859  19.133  0.00  0.00    +0.000 A 
ATOM     22  C   UNL     1       1.163   9.097  20.299  0.00  0.00    +0.000 A 
ATOM     23  C   UNL     1       1.612   7.775  20.309  0.00  0.00    +0.000 A 
ENDBRANCH  15  18
ENDBRANCH   3  15
TORSDOF 5
ENDMDL
MODEL 2
REMARK VINA RESULT:      -7.2      0.466      1.352
REMARK  Name = 
REMARK  5 active torsions:
REMARK  status: ('A' for Active; 'I' for Inactive)
REMARK    1  A    between atoms: C_2  and  C_13
REMARK    2  A    between atoms: N_3  and  S_4
REMARK    3  A    between atoms: S_4  and  C_7
REMARK    4  A    between atoms: CA_16  and  C_17
REMARK    5  A    between atoms: C_17  and  OXT_19
REMARK                            x       y       z     vdW  Elec       q    Type
REMARK                         _______ _______ _______ _____ _____    ______ ____
ROOT
ATOM      1  O   UNL     1       5.527   4.000  18.836  0.00  0.00    +0.000 OA
ATOM      2  C   UNL     1       4.989   4.558  17.894  0.00  0.00    +0.000 C 
ATOM      3  N   UNL     1       3.732   5.167  17.950  0.00  0.00    +0.000 N 
ATOM      4  H   UNL     1       3.246   5.497  17.123  0.00  0.00    +0.000 HD
ENDROOT
BRANCH   2   5
ATOM      5  C   UNL     1       5.690   4.646  16.592  0.00  0.00    +0.000 A 
ATOM      6  C   UNL     1       5.357   3.861  15.484  0.00  0.00    +0.000 A 
ATOM      7  C   UNL     1       6.064   4.024  14.291  0.00  0.00    +0.000 A 
ATOM      8  CA  UNL     1       7.090   4.961  14.255  0.00  0.00    +0.000 A 
ATOM      9  N   UNL     1       7.450   5.742  15.314  0.00  0.00    +0.000 NA
ATOM     10  C   UNL     1       6.730   5.565  16.455  0.00  0.00    +0.000 A 
BRANCH   8  11
ATOM     11  C   UNL     1       7.868   5.165  12.997  0.00  0.00    +0.000 C 
ATOM     12  O   UNL     1       7.591   4.653  11.926  0.00  0.00    +0.000 OA
BRANCH  11  13
ATOM     13  OXT UNL     1       8.921   5.990  13.204  0.00  0.00    +0.000 OA
ATOM     14  HXT UNL     1       9.213   5.916  14.143  0.00  0.00    +0.000 HD
ENDBRANCH  11  13
ENDBRANCH   8  11
ENDBRANCH   2   5
BRANCH   3  15
ATOM     15  S   UNL     1       2.724   5.148  19.279  0.00  0.00    +0.000 S 
ATOM     16  O   UNL     1       1.609   4.310  18.881  0.00  0.00    +0.000 OA
ATOM     17  O   UNL     1       3.480   4.852  20.473  0.00  0.00    +0.000 OA
BRANCH  15  18
ATOM     18  C   UNL     1       2.137   6.822  19.351  0.00  0.00    +0.000 A 
ATOM     19  C   UNL     1       1.635   7.326  20.556  0.00  0.00    +0.000 A 
ATOM     20  C   UNL     1       1.195   8.648  20.620  0.00  0.00    +0.000 A 
ATOM     21  C   UNL     1       1.266   9.463  19.489  0.00  0.00    +0.000 A 
ATOM     22  C   UNL     1       1.787   8.962  18.294  0.00  0.00    +0.000 A 
ATOM     23  C   UNL     1       2.232   7.641  18.222  0.00  0.00    +0.000 A 
ENDBRANCH  15  18
ENDBRANCH   3  15
TORSDOF 5
ENDMDL
MODEL 3
REMARK VINA RESULT:      -7.1      0.946      1.306
REMARK  Name = 
REMARK  5 active torsions:
REMARK  status: ('A' for Active; 'I' for Inactive)
REMARK    1  A    between atoms: C_2  and  C_13
REMARK    2  A    between atoms: N_3  and  S_4
REMARK    3  A    between atoms: S_4  and  C_7
REMARK    4  A    between atoms: CA_16  and  C_17
REMARK    5  A    between atoms: C_17  and  OXT_19
REMARK                            x       y       z     vdW  Elec       q    Type
REMARK                         _______ _______ _______ _____ _____    ______ ____
ROOT
ATOM      1  O   UNL     1       5.505   4.909  18.867  0.00  0.00    +0.000 OA
ATOM      2  C   UNL     1       4.891   4.696  17.834  0.00  0.00    +0.000 C 
ATOM      3  N   UNL     1       3.523   4.420  17.770  0.00  0.00    +0.000 N 
ATOM      4  H   UNL     1       3.066   4.107  16.920  0.00  0.00    +0.000 HD
ENDROOT
BRANCH   2   5
ATOM      5  C   UNL     1       5.599   4.753  16.533  0.00  0.00    +0.000 A 
ATOM      6  C   UNL     1       5.077   4.222  15.349  0.00  0.00    +0.000 A 
ATOM      7  C   UNL     1       5.810   4.338  14.167  0.00  0.00    +0.000 A 
ATOM      8  CA  UNL     1       7.046   4.971  14.214  0.00  0.00    +0.000 A 
ATOM      9  N   UNL     1       7.592   5.498  15.348  0.00  0.00    +0.000 NA
ATOM     10  C   UNL     1       6.844   5.379  16.478  0.00  0.00    +0.000 A 
BRANCH   8  11
ATOM     11  C   UNL     1       7.857   5.115  12.969  0.00  0.00    +0.000 C 
ATOM     12  O   UNL     1       7.603   4.559  11.914  0.00  0.00    +0.000 OA
BRANCH  11  13
ATOM     13  OXT UNL     1       8.911   5.940  13.168  0.00  0.00    +0.000 OA
ATOM     14  HXT UNL     1       9.698   5.408  13.431  0.00  0.00    +0.000 HD
ENDBRANCH  11  13
ENDBRANCH   8  11
ENDBRANCH   2   5
BRANCH   3  15
ATOM     15  S   UNL     1       2.526   4.240  19.096  0.00  0.00    +0.000 S 
ATOM     16  O   UNL     1       1.317   3.639  18.566  0.00  0.00    +0.000 OA
ATOM     17  O   UNL     1       3.247   3.615  20.179  0.00  0.00    +0.000 OA
BRANCH  15  18
ATOM     18  C   UNL     1       2.145   5.918  19.530  0.00  0.00    +0.000 A 
ATOM     19  C   UNL     1       2.354   6.938  18.594  0.00  0.00    +0.000 A 
ATOM     20  C   UNL     1       2.034   8.254  18.926  0.00  0.00    +0.000 A 
ATOM     21  C   UNL     1       1.499   8.547  20.181  0.00  0.00    +0.000 A 
ATOM     22  C   UNL     1       1.271   7.525  21.104  0.00  0.00    +0.000 A 
ATOM     23  C   UNL     1       1.587   6.204  20.780  0.00  0.00    +0.000 A 
ENDBRANCH  15  18
ENDBRANCH   3  15
TORSDOF 5
ENDMDL
MODEL 4
REMARK VINA RESULT:      -7.0      3.875      5.781
REMARK  Name = 
REMARK  5 active torsions:
REMARK  status: ('A' for Active; 'I' for Inactive)
REMARK    1  A    between atoms: C_2  and  C_13
REMARK    2  A    between atoms: N_3  and  S_4
REMARK    3  A    between atoms: S_4  and  C_7
REMARK    4  A    between atoms: CA_16  and  C_17
REMARK    5  A    between atoms: C_17  and  OXT_19
REMARK                            x       y       z     vdW  Elec       q    Type
REMARK                         _______ _______ _______ _____ _____    ______ ____
ROOT
ATOM      1  O   UNL     1       2.181   9.068  17.153  0.00  0.00    +0.000 OA
ATOM      2  C   UNL     1       2.035   8.584  18.265  0.00  0.00    +0.000 C 
ATOM      3  N   UNL     1       1.247   9.144  19.274  0.00  0.00    +0.000 N 
ATOM      4  H   UNL     1       1.255   8.803  20.229  0.00  0.00    +0.000 HD
ENDROOT
BRANCH   2   5
ATOM      5  C   UNL     1       2.696   7.302  18.600  0.00  0.00    +0.000 A 
ATOM      6  C   UNL     1       2.340   6.517  19.702  0.00  0.00    +0.000 A 
ATOM      7  C   UNL     1       3.010   5.314  19.931  0.00  0.00    +0.000 A 
ATOM      8  CA  UNL     1       4.022   4.943  19.053  0.00  0.00    +0.000 A 
ATOM      9  N   UNL     1       4.403   5.682  17.970  0.00  0.00    +0.000 NA
ATOM     10  C   UNL     1       3.719   6.841  17.771  0.00  0.00    +0.000 A 
BRANCH   8  11
ATOM     11  C   UNL     1       4.759   3.663  19.265  0.00  0.00    +0.000 C 
ATOM     12  O   UNL     1       4.315   2.705  19.873  0.00  0.00    +0.000 OA
BRANCH  11  13
ATOM     13  OXT UNL     1       5.986   3.708  18.694  0.00  0.00    +0.000 OA
ATOM     14  HXT UNL     1       6.119   2.902  18.142  0.00  0.00    +0.000 HD
ENDBRANCH  11  13
ENDBRANCH   8  11
ENDBRANCH   2   5
BRANCH   3  15
ATOM     15  S   UNL     1       0.457  10.610  19.160  0.00  0.00    +0.000 S 
ATOM     16  O   UNL     1       1.520  11.593  19.073  0.00  0.00    +0.000 OA
ATOM     17  O   UNL     1      -0.572  10.543  18.150  0.00  0.00    +0.000 OA
BRANCH  15  18
ATOM     18  C   UNL     1      -0.295  10.774  20.760  0.00  0.00    +0.000 A 
ATOM     19  C   UNL     1      -0.004   9.838  21.758  0.00  0.00    +0.000 A 
ATOM     20  C   UNL     1      -0.577   9.978  23.023  0.00  0.00    +0.000 A 
ATOM     21  C   UNL     1      -1.426  11.053  23.289  0.00  0.00    +0.000 A 
ATOM     22  C   UNL     1      -1.697  11.997  22.297  0.00  0.00    +0.000 A 
ATOM     23  C   UNL     1      -1.126  11.865  21.029  0.00  0.00    +0.000 A 
ENDBRANCH  15  18
ENDBRANCH   3  15
TORSDOF 5
ENDMDL
MODEL 5
REMARK VINA RESULT:      -7.0      2.016      2.410
REMARK  Name = 
REMARK  5 active torsions:
REMARK  status: ('A' for Active; 'I' for Inactive)
REMARK    1  A    between atoms: C_2  and  C_13
REMARK    2  A    between atoms: N_3  and  S_4
REMARK    3  A    between atoms: S_4  and  C_7
REMARK    4  A    between atoms: CA_16  and  C_17
REMARK    5  A    between atoms: C_17  and  OXT_19
REMARK                            x       y       z     vdW  Elec       q    Type
REMARK                         _______ _______ _______ _____ _____    ______ ____
ROOT
ATOM      1  O   UNL     1       6.322   4.433  18.619  0.00  0.00    +0.000 OA
ATOM      2  C   UNL     1       5.732   3.957  17.662  0.00  0.00    +0.000 C 
ATOM      3  N   UNL     1       4.582   3.168  17.756  0.00  0.00    +0.000 N 
ATOM      4  H   UNL     1       4.193   2.669  16.964  0.00  0.00    +0.000 HD
ENDROOT
BRANCH   2   5
ATOM      5  C   UNL     1       6.214   4.232  16.289  0.00  0.00    +0.000 A 
ATOM      6  C   UNL     1       5.746   3.556  15.159  0.00  0.00    +0.000 A 
ATOM      7  C   UNL     1       6.249   3.894  13.901  0.00  0.00    +0.000 A 
ATOM      8  CA  UNL     1       7.213   4.892  13.822  0.00  0.00    +0.000 A 
ATOM      9  N   UNL     1       7.700   5.572  14.900  0.00  0.00    +0.000 NA
ATOM     10  C   UNL     1       7.177   5.225  16.107  0.00  0.00    +0.000 A 
BRANCH   8  11
ATOM     11  C   UNL     1       7.773   5.282  12.494  0.00  0.00    +0.000 C 
ATOM     12  O   UNL     1       8.448   6.277  12.297  0.00  0.00    +0.000 OA
BRANCH  11  13
ATOM     13  OXT UNL     1       7.430   4.386  11.539  0.00  0.00    +0.000 OA
ATOM     14  HXT UNL     1       6.483   4.137  11.651  0.00  0.00    +0.000 HD
ENDBRANCH  11  13
ENDBRANCH   8  11
ENDBRANCH   2   5
BRANCH   3  15
ATOM     15  S   UNL     1       3.884   2.669  19.188  0.00  0.00    +0.000 S 
ATOM     16  O   UNL     1       2.885   1.696  18.789  0.00  0.00    +0.000 OA
ATOM     17  O   UNL     1       4.908   2.325  20.146  0.00  0.00    +0.000 OA
BRANCH  15  18
ATOM     18  C   UNL     1       3.027   4.124  19.735  0.00  0.00    +0.000 A 
ATOM     19  C   UNL     1       3.083   5.289  18.961  0.00  0.00    +0.000 A 
ATOM     20  C   UNL     1       2.391   6.427  19.378  0.00  0.00    +0.000 A 
ATOM     21  C   UNL     1       1.641   6.395  20.555  0.00  0.00    +0.000 A 
ATOM     22  C   UNL     1       1.571   5.225  21.312  0.00  0.00    +0.000 A 
ATOM     23  C   UNL     1       2.259   4.082  20.901  0.00  0.00    +0.000 A 
ENDBRANCH  15  18
ENDBRANCH   3  15
TORSDOF 5
ENDMDL
MODEL 6
REMARK VINA RESULT:      -6.9      2.816      7.352
REMARK  Name = 
REMARK  5 active torsions:
REMARK  status: ('A' for Active; 'I' for Inactive)
REMARK    1  A    between atoms: C_2  and  C_13
REMARK    2  A    between atoms: N_3  and  S_4
REMARK    3  A    between atoms: S_4  and  C_7
REMARK    4  A    between atoms: CA_16  and  C_17
REMARK    5  A    between atoms: C_17  and  OXT_19
REMARK                            x       y       z     vdW  Elec       q    Type
REMARK                         _______ _______ _______ _____ _____    ______ ____
ROOT
ATOM      1  O   UNL     1       2.424   5.120  18.052  0.00  0.00    +0.000 OA
ATOM      2  C   UNL     1       3.030   6.032  18.591  0.00  0.00    +0.000 C 
ATOM      3  N   UNL     1       4.359   5.955  19.016  0.00  0.00    +0.000 N 
ATOM      4  H   UNL     1       4.795   6.671  19.587  0.00  0.00    +0.000 HD
ENDROOT
BRANCH   2   5
ATOM      5  C   UNL     1       2.360   7.336  18.805  0.00  0.00    +0.000 A 
ATOM      6  C   UNL     1       2.167   8.278  17.789  0.00  0.00    +0.000 A 
ATOM      7  C   UNL     1       1.509   9.474  18.082  0.00  0.00    +0.000 A 
ATOM      8  CA  UNL     1       1.078   9.690  19.385  0.00  0.00    +0.000 A 
ATOM      9  N   UNL     1       1.251   8.800  20.405  0.00  0.00    +0.000 NA
ATOM     10  C   UNL     1       1.883   7.640  20.080  0.00  0.00    +0.000 A 
BRANCH   8  11
ATOM     11  C   UNL     1       0.370  10.957  19.735  0.00  0.00    +0.000 C 
ATOM     12  O   UNL     1       0.914  11.946  20.195  0.00  0.00    +0.000 OA
BRANCH  11  13
ATOM     13  OXT UNL     1      -0.955  10.861  19.474  0.00  0.00    +0.000 OA
ATOM     14  HXT UNL     1      -1.360  10.198  20.080  0.00  0.00    +0.000 HD
ENDBRANCH  11  13
ENDBRANCH   8  11
ENDBRANCH   2   5
BRANCH   3  15
ATOM     15  S   UNL     1       5.303   4.581  18.943  0.00  0.00    +0.000 S 
ATOM     16  O   UNL     1       6.465   4.892  19.754  0.00  0.00    +0.000 OA
ATOM     17  O   UNL     1       4.502   3.412  19.219  0.00  0.00    +0.000 OA
BRANCH  15  18
ATOM     18  C   UNL     1       5.825   4.553  17.247  0.00  0.00    +0.000 A 
ATOM     19  C   UNL     1       4.966   4.038  16.269  0.00  0.00    +0.000 A 
ATOM     20  C   UNL     1       5.365   4.035  14.933  0.00  0.00    +0.000 A 
ATOM     21  C   UNL     1       6.611   4.555  14.576  0.00  0.00    +0.000 A 
ATOM     22  C   UNL     1       7.456   5.087  15.551  0.00  0.00    +0.000 A 
ATOM     23  C   UNL     1       7.063   5.094  16.891  0.00  0.00    +0.000 A 
ENDBRANCH  15  18
ENDBRANCH   3  15
TORSDOF 5
ENDMDL
MODEL 7
REMARK VINA RESULT:      -6.9      2.811      7.373
REMARK  Name = 
REMARK  5 active torsions:
REMARK  status: ('A' for Active; 'I' for Inactive)
REMARK    1  A    between atoms: C_2  and  C_13
REMARK    2  A    between atoms: N_3  and  S_4
REMARK    3  A    between atoms: S_4  and  C_7
REMARK    4  A    between atoms: CA_16  and  C_17
REMARK    5  A    between atoms: C_17  and  OXT_19
REMARK                            x       y       z     vdW  Elec       q    Type
REMARK                         _______ _______ _______ _____ _____    ______ ____
ROOT
ATOM      1  O   UNL     1       2.408   5.174  18.014  0.00  0.00    +0.000 OA
ATOM      2  C   UNL     1       3.010   6.074  18.576  0.00  0.00    +0.000 C 
ATOM      3  N   UNL     1       4.335   5.986  19.013  0.00  0.00    +0.000 N 
ATOM      4  H   UNL     1       4.766   6.690  19.601  0.00  0.00    +0.000 HD
ENDROOT
BRANCH   2   5
ATOM      5  C   UNL     1       2.341   7.375  18.806  0.00  0.00    +0.000 A 
ATOM      6  C   UNL     1       2.148   8.330  17.802  0.00  0.00    +0.000 A 
ATOM      7  C   UNL     1       1.492   9.523  18.109  0.00  0.00    +0.000 A 
ATOM      8  CA  UNL     1       1.062   9.724  19.416  0.00  0.00    +0.000 A 
ATOM      9  N   UNL     1       1.235   8.821  20.424  0.00  0.00    +0.000 NA
ATOM     10  C   UNL     1       1.866   7.664  20.085  0.00  0.00    +0.000 A 
BRANCH   8  11
ATOM     11  C   UNL     1       0.355  10.987  19.781  0.00  0.00    +0.000 C 
ATOM     12  O   UNL     1       0.285  11.434  20.912  0.00  0.00    +0.000 OA
BRANCH  11  13
ATOM     13  OXT UNL     1      -0.199  11.567  18.690  0.00  0.00    +0.000 OA
ATOM     14  HXT UNL     1       0.493  11.689  17.999  0.00  0.00    +0.000 HD
ENDBRANCH  11  13
ENDBRANCH   8  11
ENDBRANCH   2   5
BRANCH   3  15
ATOM     15  S   UNL     1       5.276   4.610  18.925  0.00  0.00    +0.000 S 
ATOM     16  O   UNL     1       6.442   4.913  19.733  0.00  0.00    +0.000 OA
ATOM     17  O   UNL     1       4.474   3.441  19.197  0.00  0.00    +0.000 OA
BRANCH  15  18
ATOM     18  C   UNL     1       5.790   4.594  17.227  0.00  0.00    +0.000 A 
ATOM     19  C   UNL     1       7.055   5.085  16.884  0.00  0.00    +0.000 A 
ATOM     20  C   UNL     1       7.469   5.052  15.552  0.00  0.00    +0.000 A 
ATOM     21  C   UNL     1       6.628   4.523  14.572  0.00  0.00    +0.000 A 
ATOM     22  C   UNL     1       5.375   4.015  14.921  0.00  0.00    +0.000 A 
ATOM     23  C   UNL     1       4.953   4.042  16.252  0.00  0.00    +0.000 A 
ENDBRANCH  15  18
ENDBRANCH   3  15
TORSDOF 5
ENDMDL
MODEL 8
REMARK VINA RESULT:      -6.9      2.799      7.340
REMARK  Name = 
REMARK  5 active torsions:
REMARK  status: ('A' for Active; 'I' for Inactive)
REMARK    1  A    between atoms: C_2  and  C_13
REMARK    2  A    between atoms: N_3  and  S_4
REMARK    3  A    between atoms: S_4  and  C_7
REMARK    4  A    between atoms: CA_16  and  C_17
REMARK    5  A    between atoms: C_17  and  OXT_19
REMARK                            x       y       z     vdW  Elec       q    Type
REMARK                         _______ _______ _______ _____ _____    ______ ____
ROOT
ATOM      1  O   UNL     1       2.695   5.032  20.552  0.00  0.00    +0.000 OA
ATOM      2  C   UNL     1       3.038   5.877  19.742  0.00  0.00    +0.000 C 
ATOM      3  N   UNL     1       4.089   5.721  18.833  0.00  0.00    +0.000 N 
ATOM      4  H   UNL     1       4.446   6.485  18.271  0.00  0.00    +0.000 HD
ENDROOT
BRANCH   2   5
ATOM      5  C   UNL     1       2.301   7.160  19.660  0.00  0.00    +0.000 A 
ATOM      6  C   UNL     1       1.605   7.718  20.736  0.00  0.00    +0.000 A 
ATOM      7  C   UNL     1       0.952   8.940  20.569  0.00  0.00    +0.000 A 
ATOM      8  CA  UNL     1       1.010   9.557  19.325  0.00  0.00    +0.000 A 
ATOM      9  N   UNL     1       1.674   9.043  18.248  0.00  0.00    +0.000 NA
ATOM     10  C   UNL     1       2.310   7.858  18.452  0.00  0.00    +0.000 A 
BRANCH   8  11
ATOM     11  C   UNL     1       0.325  10.866  19.109  0.00  0.00    +0.000 C 
ATOM     12  O   UNL     1      -0.706  11.203  19.664  0.00  0.00    +0.000 OA
BRANCH  11  13
ATOM     13  OXT UNL     1       1.000  11.626  18.215  0.00  0.00    +0.000 OA
ATOM     14  HXT UNL     1       1.804  12.001  18.646  0.00  0.00    +0.000 HD
ENDBRANCH  11  13
ENDBRANCH   8  11
ENDBRANCH   2   5
BRANCH   3  15
ATOM     15  S   UNL     1       5.104   4.398  18.772  0.00  0.00    +0.000 S 
ATOM     16  O   UNL     1       6.187   4.725  19.680  0.00  0.00    +0.000 OA
ATOM     17  O   UNL     1       4.346   3.181  18.937  0.00  0.00    +0.000 OA
BRANCH  15  18
ATOM     18  C   UNL     1       5.748   4.474  17.120  0.00  0.00    +0.000 A 
ATOM     19  C   UNL     1       4.918   4.151  16.041  0.00  0.00    +0.000 A 
ATOM     20  C   UNL     1       5.416   4.231  14.740  0.00  0.00    +0.000 A 
ATOM     21  C   UNL     1       6.731   4.643  14.521  0.00  0.00    +0.000 A 
ATOM     22  C   UNL     1       7.550   4.985  15.599  0.00  0.00    +0.000 A 
ATOM     23  C   UNL     1       7.059   4.908  16.903  0.00  0.00    +0.000 A 
ENDBRANCH  15  18
ENDBRANCH   3  15
TORSDOF 5
ENDMDL
MODEL 9
REMARK VINA RESULT:      -6.9      2.136      2.674
REMARK  Name = 
REMARK  5 active torsions:
REMARK  status: ('A' for Active; 'I' for Inactive)
REMARK    1  A    between atoms: C_2  and  C_13
REMARK    2  A    between atoms: N_3  and  S_4
REMARK    3  A    between atoms: S_4  and  C_7
REMARK    4  A    between atoms: CA_16  and  C_17
REMARK    5  A    between atoms: C_17  and  OXT_19
REMARK                            x       y       z     vdW  Elec       q    Type
REMARK                         _______ _______ _______ _____ _____    ______ ____
ROOT
ATOM      1  O   UNL     1       3.172   3.580  16.703  0.00  0.00    +0.000 OA
ATOM      2  C   UNL     1       4.376   3.539  16.901  0.00  0.00    +0.000 C 
ATOM      3  N   UNL     1       4.969   3.060  18.072  0.00  0.00    +0.000 N 
ATOM      4  H   UNL     1       5.958   3.168  18.270  0.00  0.00    +0.000 HD
ENDROOT
BRANCH   2   5
ATOM      5  C   UNL     1       5.311   3.991  15.844  0.00  0.00    +0.000 A 
ATOM      6  C   UNL     1       5.172   3.649  14.495  0.00  0.00    +0.000 A 
ATOM      7  C   UNL     1       6.094   4.135  13.567  0.00  0.00    +0.000 A 
ATOM      8  CA  UNL     1       7.131   4.940  14.025  0.00  0.00    +0.000 A 
ATOM      9  N   UNL     1       7.305   5.293  15.332  0.00  0.00    +0.000 NA
ATOM     10  C   UNL     1       6.380   4.812  16.205  0.00  0.00    +0.000 A 
BRANCH   8  11
ATOM     11  C   UNL     1       8.135   5.480  13.061  0.00  0.00    +0.000 C 
ATOM     12  O   UNL     1       9.137   6.094  13.382  0.00  0.00    +0.000 OA
BRANCH  11  13
ATOM     13  OXT UNL     1       7.783   5.199  11.784  0.00  0.00    +0.000 OA
ATOM     14  HXT UNL     1       8.096   4.294  11.551  0.00  0.00    +0.000 HD
ENDBRANCH  11  13
ENDBRANCH   8  11
ENDBRANCH   2   5
BRANCH   3  15
ATOM     15  S   UNL     1       4.132   2.556  19.425  0.00  0.00    +0.000 S 
ATOM     16  O   UNL     1       3.246   1.515  18.941  0.00  0.00    +0.000 OA
ATOM     17  O   UNL     1       5.049   2.300  20.511  0.00  0.00    +0.000 OA
BRANCH  15  18
ATOM     18  C   UNL     1       3.133   3.971  19.817  0.00  0.00    +0.000 A 
ATOM     19  C   UNL     1       1.833   3.784  20.300  0.00  0.00    +0.000 A 
ATOM     20  C   UNL     1       1.054   4.894  20.629  0.00  0.00    +0.000 A 
ATOM     21  C   UNL     1       1.577   6.180  20.486  0.00  0.00    +0.000 A 
ATOM     22  C   UNL     1       2.881   6.361  20.023  0.00  0.00    +0.000 A 
ATOM     23  C   UNL     1       3.668   5.256  19.693  0.00  0.00    +0.000 A 
ENDBRANCH  15  18
ENDBRANCH   3  15
TORSDOF 5
ENDMDL
