MODEL 1
REMARK VINA RESULT:      -7.4      0.000      0.000
REMARK  Name = 
REMARK  8 active torsions:
REMARK  status: ('A' for Active; 'I' for Inactive)
REMARK    1  A    between atoms: C_1  and  O_2
REMARK    2  A    between atoms: O_2  and  C_3
REMARK    3  A    between atoms: C_12  and  N_13
REMARK    4  A    between atoms: N_13  and  C_14
REMARK    5  A    between atoms: C_14  and  C_15
REMARK    6  A    between atoms: C_15  and  N_16
REMARK    7  A    between atoms: N_16  and  C_17
REMARK    8  A    between atoms: N_16  and  C_18
REMARK                            x       y       z     vdW  Elec       q    Type
REMARK                         _______ _______ _______ _____ _____    ______ ____
ROOT
ATOM      1  C   UNL     1       6.833   6.158  16.691  0.00  0.00    +0.000 A 
ATOM      2  C   UNL     1       6.708   5.204  15.683  0.00  0.00    +0.000 A 
ATOM      3  C   UNL     1       5.732   4.204  15.770  0.00  0.00    +0.000 A 
ATOM      4  C   UNL     1       4.869   4.141  16.873  0.00  0.00    +0.000 A 
ATOM      5  S   UNL     1       3.728   2.790  16.994  0.00  0.00    +0.000 S 
ATOM      6  C   UNL     1       2.637   3.310  18.312  0.00  0.00    +0.000 A 
ATOM      7  C   UNL     1       1.496   2.520  18.514  0.00  0.00    +0.000 A 
ATOM      8  C   UNL     1       0.600   2.826  19.532  0.00  0.00    +0.000 A 
ATOM      9  C   UNL     1       0.797   3.973  20.299  0.00  0.00    +0.000 A 
ATOM     10  C   UNL     1       1.888   4.834  20.084  0.00  0.00    +0.000 A 
ATOM     11  C   UNL     1       2.865   4.417  19.148  0.00  0.00    +0.000 A 
ATOM     12  C   UNL     1       4.221   5.012  19.117  0.00  0.00    +0.000 A 
ATOM     13  O   UNL     1       4.768   5.371  20.160  0.00  0.00    +0.000 OA
ATOM     14  C   UNL     1       4.995   5.104  17.872  0.00  0.00    +0.000 A 
ATOM     15  C   UNL     1       5.956   6.123  17.772  0.00  0.00    +0.000 A 
ENDROOT
BRANCH   1  17
ATOM     16  C   UNL     1       7.880   8.107  17.512  0.00  0.00    +0.000 C 
ATOM     17  O   UNL     1       7.836   7.075  16.528  0.00  0.00    +0.000 OA
ENDBRANCH   1  17
BRANCH  10  18
ATOM     18  N   UNL     1       1.902   5.974  20.908  0.00  0.00    +0.000 N 
ATOM     19  H   UNL     1       2.716   5.976  21.528  0.00  0.00    +0.000 HD
BRANCH  18  20
ATOM     20  C   UNL     1       1.719   7.305  20.321  0.00  0.00    +0.000 C 
BRANCH  20  21
ATOM     21  C   UNL     1       1.355   8.350  21.405  0.00  0.00    +0.000 C 
BRANCH  21  22
ATOM     22  N   UNL     1      -0.056   8.809  21.439  0.00  0.00    +0.000 NA
ATOM     23  C   UNL     1      -0.429   9.369  22.740  0.00  0.00    +0.000 C 
ATOM     24  C   UNL     1      -0.266   9.816  20.393  0.00  0.00    +0.000 C 
ENDBRANCH  21  22
ENDBRANCH  20  21
ENDBRANCH  18  20
ENDBRANCH  10  18
TORSDOF 5
ENDMDL
MODEL 2
REMARK VINA RESULT:      -6.8      4.113      8.392
REMARK  Name = 
REMARK  8 active torsions:
REMARK  status: ('A' for Active; 'I' for Inactive)
REMARK    1  A    between atoms: C_1  and  O_2
REMARK    2  A    between atoms: O_2  and  C_3
REMARK    3  A    between atoms: C_12  and  N_13
REMARK    4  A    between atoms: N_13  and  C_14
REMARK    5  A    between atoms: C_14  and  C_15
REMARK    6  A    between atoms: C_15  and  N_16
REMARK    7  A    between atoms: N_16  and  C_17
REMARK    8  A    between atoms: N_16  and  C_18
REMARK                            x       y       z     vdW  Elec       q    Type
REMARK                         _______ _______ _______ _____ _____    ______ ____
ROOT
ATOM      1  C   UNL     1      -1.972  11.805  22.709  0.00  0.00    +0.000 A 
ATOM      2  C   UNL     1      -2.212  12.666  21.639  0.00  0.00    +0.000 A 
ATOM      3  C   UNL     1      -1.504  12.521  20.440  0.00  0.00    +0.000 A 
ATOM      4  C   UNL     1      -0.541  11.513  20.295  0.00  0.00    +0.000 A 
ATOM      5  S   UNL     1       0.410  11.443  18.801  0.00  0.00    +0.000 S 
ATOM      6  C   UNL     1       1.211   9.848  18.916  0.00  0.00    +0.000 A 
ATOM      7  C   UNL     1       1.894   9.419  17.769  0.00  0.00    +0.000 A 
ATOM      8  C   UNL     1       2.572   8.205  17.768  0.00  0.00    +0.000 A 
ATOM      9  C   UNL     1       2.499   7.376  18.886  0.00  0.00    +0.000 A 
ATOM     10  C   UNL     1       1.767   7.734  20.031  0.00  0.00    +0.000 A 
ATOM     11  C   UNL     1       1.217   9.038  20.064  0.00  0.00    +0.000 A 
ATOM     12  C   UNL     1       0.777   9.668  21.331  0.00  0.00    +0.000 A 
ATOM     13  O   UNL     1       1.378   9.441  22.381  0.00  0.00    +0.000 OA
ATOM     14  C   UNL     1      -0.314  10.651  21.365  0.00  0.00    +0.000 A 
ATOM     15  C   UNL     1      -1.043  10.779  22.560  0.00  0.00    +0.000 A 
ENDROOT
BRANCH   1  17
ATOM     16  C   UNL     1      -3.214  13.369  23.964  0.00  0.00    +0.000 C 
ATOM     17  O   UNL     1      -2.693  12.047  23.846  0.00  0.00    +0.000 OA
ENDBRANCH   1  17
BRANCH  10  18
ATOM     18  N   UNL     1       1.752   6.757  21.043  0.00  0.00    +0.000 N 
ATOM     19  H   UNL     1       0.853   6.739  21.532  0.00  0.00    +0.000 HD
BRANCH  18  20
ATOM     20  C   UNL     1       2.187   5.388  20.748  0.00  0.00    +0.000 C 
BRANCH  20  21
ATOM     21  C   UNL     1       0.977   4.467  20.452  0.00  0.00    +0.000 C 
BRANCH  21  22
ATOM     22  N   UNL     1       1.243   3.007  20.433  0.00  0.00    +0.000 NA
ATOM     23  C   UNL     1       2.233   2.634  19.419  0.00  0.00    +0.000 C 
ATOM     24  C   UNL     1       1.711   2.580  21.756  0.00  0.00    +0.000 C 
ENDBRANCH  21  22
ENDBRANCH  20  21
ENDBRANCH  18  20
ENDBRANCH  10  18
TORSDOF 5
ENDMDL
MODEL 3
REMARK VINA RESULT:      -6.7      1.255      1.547
REMARK  Name = 
REMARK  8 active torsions:
REMARK  status: ('A' for Active; 'I' for Inactive)
REMARK    1  A    between atoms: C_1  and  O_2
REMARK    2  A    between atoms: O_2  and  C_3
REMARK    3  A    between atoms: C_12  and  N_13
REMARK    4  A    between atoms: N_13  and  C_14
REMARK    5  A    between atoms: C_14  and  C_15
REMARK    6  A    between atoms: C_15  and  N_16
REMARK    7  A    between atoms: N_16  and  C_17
REMARK    8  A    between atoms: N_16  and  C_18
REMARK                            x       y       z     vdW  Elec       q    Type
REMARK                         _______ _______ _______ _____ _____    ______ ____
ROOT
ATOM      1  C   UNL     1       6.619   5.035  15.609  0.00  0.00    +0.000 A 
ATOM      2  C   UNL     1       6.247   3.819  15.038  0.00  0.00    +0.000 A 
ATOM      3  C   UNL     1       5.254   3.031  15.631  0.00  0.00    +0.000 A 
ATOM      4  C   UNL     1       4.620   3.447  16.811  0.00  0.00    +0.000 A 
ATOM      5  S   UNL     1       3.452   2.363  17.586  0.00  0.00    +0.000 S 
ATOM      6  C   UNL     1       2.670   3.423  18.795  0.00  0.00    +0.000 A 
ATOM      7  C   UNL     1       1.549   2.890  19.447  0.00  0.00    +0.000 A 
ATOM      8  C   UNL     1       0.887   3.626  20.423  0.00  0.00    +0.000 A 
ATOM      9  C   UNL     1       1.292   4.932  20.692  0.00  0.00    +0.000 A 
ATOM     10  C   UNL     1       2.366   5.533  20.012  0.00  0.00    +0.000 A 
ATOM     11  C   UNL     1       3.117   4.711  19.137  0.00  0.00    +0.000 A 
ATOM     12  C   UNL     1       4.472   5.094  18.676  0.00  0.00    +0.000 A 
ATOM     13  O   UNL     1       5.230   5.715  19.420  0.00  0.00    +0.000 OA
ATOM     14  C   UNL     1       4.991   4.668  17.370  0.00  0.00    +0.000 A 
ATOM     15  C   UNL     1       5.969   5.471  16.760  0.00  0.00    +0.000 A 
ENDROOT
BRANCH   1  17
ATOM     16  C   UNL     1       7.824   5.355  13.606  0.00  0.00    +0.000 C 
ATOM     17  O   UNL     1       7.619   5.716  14.970  0.00  0.00    +0.000 OA
ENDBRANCH   1  17
BRANCH  10  18
ATOM     18  N   UNL     1       2.603   6.874  20.365  0.00  0.00    +0.000 N 
ATOM     19  H   UNL     1       3.601   7.097  20.330  0.00  0.00    +0.000 HD
BRANCH  18  20
ATOM     20  C   UNL     1       1.829   7.947  19.735  0.00  0.00    +0.000 C 
BRANCH  20  21
ATOM     21  C   UNL     1       1.064   8.782  20.792  0.00  0.00    +0.000 C 
BRANCH  21  22
ATOM     22  N   UNL     1      -0.020   9.661  20.287  0.00  0.00    +0.000 NA
ATOM     23  C   UNL     1      -0.278  10.795  21.177  0.00  0.00    +0.000 C 
ATOM     24  C   UNL     1       0.337  10.156  18.953  0.00  0.00    +0.000 C 
ENDBRANCH  21  22
ENDBRANCH  20  21
ENDBRANCH  18  20
ENDBRANCH  10  18
TORSDOF 5
ENDMDL
MODEL 4
REMARK VINA RESULT:      -6.6      3.564      7.783
REMARK  Name = 
REMARK  8 active torsions:
REMARK  status: ('A' for Active; 'I' for Inactive)
REMARK    1  A    between atoms: C_1  and  O_2
REMARK    2  A    between atoms: O_2  and  C_3
REMARK    3  A    between atoms: C_12  and  N_13
REMARK    4  A    between atoms: N_13  and  C_14
REMARK    5  A    between atoms: C_14  and  C_15
REMARK    6  A    between atoms: C_15  and  N_16
REMARK    7  A    between atoms: N_16  and  C_17
REMARK    8  A    between atoms: N_16  and  C_18
REMARK                            x       y       z     vdW  Elec       q    Type
REMARK                         _______ _______ _______ _____ _____    ______ ____
ROOT
ATOM      1  C   UNL     1      -1.318  11.132  22.358  0.00  0.00    +0.000 A 
ATOM      2  C   UNL     1      -1.426  11.994  21.268  0.00  0.00    +0.000 A 
ATOM      3  C   UNL     1      -0.672  11.770  20.110  0.00  0.00    +0.000 A 
ATOM      4  C   UNL     1       0.207  10.681  20.027  0.00  0.00    +0.000 A 
ATOM      5  S   UNL     1       1.225  10.506  18.586  0.00  0.00    +0.000 S 
ATOM      6  C   UNL     1       1.878   8.851  18.762  0.00  0.00    +0.000 A 
ATOM      7  C   UNL     1       2.580   8.346  17.658  0.00  0.00    +0.000 A 
ATOM      8  C   UNL     1       3.150   7.079  17.707  0.00  0.00    +0.000 A 
ATOM      9  C   UNL     1       2.948   6.277  18.828  0.00  0.00    +0.000 A 
ATOM     10  C   UNL     1       2.190   6.714  19.929  0.00  0.00    +0.000 A 
ATOM     11  C   UNL     1       1.754   8.061  19.918  0.00  0.00    +0.000 A 
ATOM     12  C   UNL     1       1.304   8.747  21.153  0.00  0.00    +0.000 A 
ATOM     13  O   UNL     1       1.828   8.485  22.236  0.00  0.00    +0.000 OA
ATOM     14  C   UNL     1       0.302   9.820  21.118  0.00  0.00    +0.000 A 
ATOM     15  C   UNL     1      -0.474  10.029  22.270  0.00  0.00    +0.000 A 
ENDROOT
BRANCH   1  17
ATOM     16  C   UNL     1      -3.116  12.397  23.214  0.00  0.00    +0.000 C 
ATOM     17  O   UNL     1      -2.073  11.453  23.453  0.00  0.00    +0.000 OA
ENDBRANCH   1  17
BRANCH  10  18
ATOM     18  N   UNL     1       2.038   5.758  20.950  0.00  0.00    +0.000 N 
ATOM     19  H   UNL     1       1.682   6.184  21.810  0.00  0.00    +0.000 HD
BRANCH  18  20
ATOM     20  C   UNL     1       1.327   4.505  20.681  0.00  0.00    +0.000 C 
BRANCH  20  21
ATOM     21  C   UNL     1       2.290   3.292  20.729  0.00  0.00    +0.000 C 
BRANCH  21  22
ATOM     22  N   UNL     1       2.156   2.294  19.640  0.00  0.00    +0.000 NA
ATOM     23  C   UNL     1       1.012   2.570  18.768  0.00  0.00    +0.000 C 
ATOM     24  C   UNL     1       3.387   2.276  18.842  0.00  0.00    +0.000 C 
ENDBRANCH  21  22
ENDBRANCH  20  21
ENDBRANCH  18  20
ENDBRANCH  10  18
TORSDOF 5
ENDMDL
MODEL 5
REMARK VINA RESULT:      -6.4      2.934      6.498
REMARK  Name = 
REMARK  8 active torsions:
REMARK  status: ('A' for Active; 'I' for Inactive)
REMARK    1  A    between atoms: C_1  and  O_2
REMARK    2  A    between atoms: O_2  and  C_3
REMARK    3  A    between atoms: C_12  and  N_13
REMARK    4  A    between atoms: N_13  and  C_14
REMARK    5  A    between atoms: C_14  and  C_15
REMARK    6  A    between atoms: C_15  and  N_16
REMARK    7  A    between atoms: N_16  and  C_17
REMARK    8  A    between atoms: N_16  and  C_18
REMARK                            x       y       z     vdW  Elec       q    Type
REMARK                         _______ _______ _______ _____ _____    ______ ____
ROOT
ATOM      1  C   UNL     1       1.587   6.481  20.550  0.00  0.00    +0.000 A 
ATOM      2  C   UNL     1       1.335   5.115  20.670  0.00  0.00    +0.000 A 
ATOM      3  C   UNL     1       2.010   4.195  19.859  0.00  0.00    +0.000 A 
ATOM      4  C   UNL     1       2.946   4.630  18.910  0.00  0.00    +0.000 A 
ATOM      5  S   UNL     1       3.688   3.438  17.828  0.00  0.00    +0.000 S 
ATOM      6  C   UNL     1       5.023   4.363  17.078  0.00  0.00    +0.000 A 
ATOM      7  C   UNL     1       5.925   3.621  16.302  0.00  0.00    +0.000 A 
ATOM      8  C   UNL     1       6.981   4.252  15.655  0.00  0.00    +0.000 A 
ATOM      9  C   UNL     1       7.189   5.617  15.849  0.00  0.00    +0.000 A 
ATOM     10  C   UNL     1       6.352   6.386  16.676  0.00  0.00    +0.000 A 
ATOM     11  C   UNL     1       5.198   5.752  17.196  0.00  0.00    +0.000 A 
ATOM     12  C   UNL     1       4.056   6.528  17.736  0.00  0.00    +0.000 A 
ATOM     13  O   UNL     1       3.750   7.611  17.239  0.00  0.00    +0.000 OA
ATOM     14  C   UNL     1       3.198   5.996  18.802  0.00  0.00    +0.000 A 
ATOM     15  C   UNL     1       2.541   6.917  19.634  0.00  0.00    +0.000 A 
ENDROOT
BRANCH   1  17
ATOM     16  C   UNL     1       1.293   8.656  21.415  0.00  0.00    +0.000 C 
ATOM     17  O   UNL     1       0.855   7.299  21.366  0.00  0.00    +0.000 OA
ENDBRANCH   1  17
BRANCH  10  18
ATOM     18  N   UNL     1       6.738   7.733  16.805  0.00  0.00    +0.000 N 
ATOM     19  H   UNL     1       5.936   8.333  17.014  0.00  0.00    +0.000 HD
BRANCH  18  20
ATOM     20  C   UNL     1       7.869   8.091  17.667  0.00  0.00    +0.000 C 
BRANCH  20  21
ATOM     21  C   UNL     1       7.955   9.625  17.870  0.00  0.00    +0.000 C 
BRANCH  21  22
ATOM     22  N   UNL     1       9.260  10.162  18.327  0.00  0.00    +0.000 NA
ATOM     23  C   UNL     1       9.517  11.512  17.819  0.00  0.00    +0.000 C 
ATOM     24  C   UNL     1       9.295  10.175  19.793  0.00  0.00    +0.000 C 
ENDBRANCH  21  22
ENDBRANCH  20  21
ENDBRANCH  18  20
ENDBRANCH  10  18
TORSDOF 5
ENDMDL
MODEL 6
REMARK VINA RESULT:      -6.4      2.524      5.802
REMARK  Name = 
REMARK  8 active torsions:
REMARK  status: ('A' for Active; 'I' for Inactive)
REMARK    1  A    between atoms: C_1  and  O_2
REMARK    2  A    between atoms: O_2  and  C_3
REMARK    3  A    between atoms: C_12  and  N_13
REMARK    4  A    between atoms: N_13  and  C_14
REMARK    5  A    between atoms: C_14  and  C_15
REMARK    6  A    between atoms: C_15  and  N_16
REMARK    7  A    between atoms: N_16  and  C_17
REMARK    8  A    between atoms: N_16  and  C_18
REMARK                            x       y       z     vdW  Elec       q    Type
REMARK                         _______ _______ _______ _____ _____    ______ ____
ROOT
ATOM      1  C   UNL     1       1.513   7.902  20.162  0.00  0.00    +0.000 A 
ATOM      2  C   UNL     1       1.563   8.941  19.234  0.00  0.00    +0.000 A 
ATOM      3  C   UNL     1       2.382   8.843  18.103  0.00  0.00    +0.000 A 
ATOM      4  C   UNL     1       3.168   7.703  17.886  0.00  0.00    +0.000 A 
ATOM      5  S   UNL     1       4.274   7.674  16.501  0.00  0.00    +0.000 S 
ATOM      6  C   UNL     1       4.767   5.957  16.424  0.00  0.00    +0.000 A 
ATOM      7  C   UNL     1       5.507   5.579  15.294  0.00  0.00    +0.000 A 
ATOM      8  C   UNL     1       5.959   4.272  15.155  0.00  0.00    +0.000 A 
ATOM      9  C   UNL     1       5.604   3.316  16.105  0.00  0.00    +0.000 A 
ATOM     10  C   UNL     1       4.804   3.634  17.217  0.00  0.00    +0.000 A 
ATOM     11  C   UNL     1       4.487   4.999  17.415  0.00  0.00    +0.000 A 
ATOM     12  C   UNL     1       4.005   5.508  18.721  0.00  0.00    +0.000 A 
ATOM     13  O   UNL     1       4.419   5.018  19.771  0.00  0.00    +0.000 OA
ATOM     14  C   UNL     1       3.105   6.665  18.813  0.00  0.00    +0.000 A 
ATOM     15  C   UNL     1       2.263   6.752  19.934  0.00  0.00    +0.000 A 
ENDROOT
BRANCH   1  17
ATOM     16  C   UNL     1       0.411   9.472  21.536  0.00  0.00    +0.000 C 
ATOM     17  O   UNL     1       0.706   8.106  21.248  0.00  0.00    +0.000 OA
ENDBRANCH   1  17
BRANCH  10  18
ATOM     18  N   UNL     1       4.493   2.539  18.044  0.00  0.00    +0.000 N 
ATOM     19  H   UNL     1       4.764   2.716  19.015  0.00  0.00    +0.000 HD
BRANCH  18  20
ATOM     20  C   UNL     1       3.155   1.943  17.999  0.00  0.00    +0.000 C 
BRANCH  20  21
ATOM     21  C   UNL     1       2.583   1.739  19.425  0.00  0.00    +0.000 C 
BRANCH  21  22
ATOM     22  N   UNL     1       1.993   2.931  20.081  0.00  0.00    +0.000 NA
ATOM     23  C   UNL     1       0.724   3.333  19.470  0.00  0.00    +0.000 C 
ATOM     24  C   UNL     1       1.784   2.649  21.505  0.00  0.00    +0.000 C 
ENDBRANCH  21  22
ENDBRANCH  20  21
ENDBRANCH  18  20
ENDBRANCH  10  18
TORSDOF 5
ENDMDL
MODEL 7
REMARK VINA RESULT:      -6.3      3.170      5.941
REMARK  Name = 
REMARK  8 active torsions:
REMARK  status: ('A' for Active; 'I' for Inactive)
REMARK    1  A    between atoms: C_1  and  O_2
REMARK    2  A    between atoms: O_2  and  C_3
REMARK    3  A    between atoms: C_12  and  N_13
REMARK    4  A    between atoms: N_13  and  C_14
REMARK    5  A    between atoms: C_14  and  C_15
REMARK    6  A    between atoms: C_15  and  N_16
REMARK    7  A    between atoms: N_16  and  C_17
REMARK    8  A    between atoms: N_16  and  C_18
REMARK                            x       y       z     vdW  Elec       q    Type
REMARK                         _______ _______ _______ _____ _____    ______ ____
ROOT
ATOM      1  C   UNL     1       2.258   9.298  18.183  0.00  0.00    +0.000 A 
ATOM      2  C   UNL     1       1.438   9.461  19.298  0.00  0.00    +0.000 A 
ATOM      3  C   UNL     1       1.194   8.388  20.162  0.00  0.00    +0.000 A 
ATOM      4  C   UNL     1       1.763   7.130  19.920  0.00  0.00    +0.000 A 
ATOM      5  S   UNL     1       1.332   5.774  20.977  0.00  0.00    +0.000 S 
ATOM      6  C   UNL     1       2.530   4.525  20.527  0.00  0.00    +0.000 A 
ATOM      7  C   UNL     1       2.564   3.383  21.340  0.00  0.00    +0.000 A 
ATOM      8  C   UNL     1       3.442   2.344  21.057  0.00  0.00    +0.000 A 
ATOM      9  C   UNL     1       4.350   2.477  20.008  0.00  0.00    +0.000 A 
ATOM     10  C   UNL     1       4.400   3.634  19.211  0.00  0.00    +0.000 A 
ATOM     11  C   UNL     1       3.395   4.608  19.422  0.00  0.00    +0.000 A 
ATOM     12  C   UNL     1       3.100   5.657  18.417  0.00  0.00    +0.000 A 
ATOM     13  O   UNL     1       3.199   5.412  17.215  0.00  0.00    +0.000 OA
ATOM     14  C   UNL     1       2.588   6.977  18.808  0.00  0.00    +0.000 A 
ATOM     15  C   UNL     1       2.855   8.061  17.955  0.00  0.00    +0.000 A 
ENDROOT
BRANCH   1  17
ATOM     16  C   UNL     1       2.424  11.648  18.071  0.00  0.00    +0.000 C 
ATOM     17  O   UNL     1       2.410  10.398  17.384  0.00  0.00    +0.000 OA
ENDBRANCH   1  17
BRANCH  10  18
ATOM     18  N   UNL     1       5.413   3.626  18.235  0.00  0.00    +0.000 N 
ATOM     19  H   UNL     1       5.023   3.538  17.293  0.00  0.00    +0.000 HD
BRANCH  18  20
ATOM     20  C   UNL     1       6.455   4.657  18.250  0.00  0.00    +0.000 C 
BRANCH  20  21
ATOM     21  C   UNL     1       7.406   4.512  17.035  0.00  0.00    +0.000 C 
BRANCH  21  22
ATOM     22  N   UNL     1       7.328   5.572  16.000  0.00  0.00    +0.000 NA
ATOM     23  C   UNL     1       6.990   5.037  14.679  0.00  0.00    +0.000 C 
ATOM     24  C   UNL     1       6.326   6.567  16.397  0.00  0.00    +0.000 C 
ENDBRANCH  21  22
ENDBRANCH  20  21
ENDBRANCH  18  20
ENDBRANCH  10  18
TORSDOF 5
ENDMDL
MODEL 8
REMARK VINA RESULT:      -6.3      3.998      7.353
REMARK  Name = 
REMARK  8 active torsions:
REMARK  status: ('A' for Active; 'I' for Inactive)
REMARK    1  A    between atoms: C_1  and  O_2
REMARK    2  A    between atoms: O_2  and  C_3
REMARK    3  A    between atoms: C_12  and  N_13
REMARK    4  A    between atoms: N_13  and  C_14
REMARK    5  A    between atoms: C_14  and  C_15
REMARK    6  A    between atoms: C_15  and  N_16
REMARK    7  A    between atoms: N_16  and  C_17
REMARK    8  A    between atoms: N_16  and  C_18
REMARK                            x       y       z     vdW  Elec       q    Type
REMARK                         _______ _______ _______ _____ _____    ______ ____
ROOT
ATOM      1  C   UNL     1       2.223   8.009  18.547  0.00  0.00    +0.000 A 
ATOM      2  C   UNL     1       2.351   7.213  19.685  0.00  0.00    +0.000 A 
ATOM      3  C   UNL     1       1.764   7.604  20.894  0.00  0.00    +0.000 A 
ATOM      4  C   UNL     1       1.041   8.802  20.984  0.00  0.00    +0.000 A 
ATOM      5  S   UNL     1       0.415   9.310  22.563  0.00  0.00    +0.000 S 
ATOM      6  C   UNL     1      -0.699  10.642  22.136  0.00  0.00    +0.000 A 
ATOM      7  C   UNL     1      -1.503  11.129  23.177  0.00  0.00    +0.000 A 
ATOM      8  C   UNL     1      -2.382  12.181  22.952  0.00  0.00    +0.000 A 
ATOM      9  C   UNL     1      -2.523  12.698  21.666  0.00  0.00    +0.000 A 
ATOM     10  C   UNL     1      -1.789  12.193  20.577  0.00  0.00    +0.000 A 
ATOM     11  C   UNL     1      -0.792  11.229  20.862  0.00  0.00    +0.000 A 
ATOM     12  C   UNL     1       0.291  10.917  19.900  0.00  0.00    +0.000 A 
ATOM     13  O   UNL     1       0.756  11.799  19.179  0.00  0.00    +0.000 OA
ATOM     14  C   UNL     1       0.910   9.586  19.841  0.00  0.00    +0.000 A 
ATOM     15  C   UNL     1       1.477   9.182  18.620  0.00  0.00    +0.000 A 
ENDROOT
BRANCH   1  17
ATOM     16  C   UNL     1       3.842   6.548  17.648  0.00  0.00    +0.000 C 
ATOM     17  O   UNL     1       2.857   7.555  17.424  0.00  0.00    +0.000 OA
ENDBRANCH   1  17
BRANCH  10  18
ATOM     18  N   UNL     1      -2.095  12.789  19.341  0.00  0.00    +0.000 N 
ATOM     19  H   UNL     1      -1.251  13.123  18.869  0.00  0.00    +0.000 HD
BRANCH  18  20
ATOM     20  C   UNL     1      -2.960  12.092  18.384  0.00  0.00    +0.000 C 
BRANCH  20  21
ATOM     21  C   UNL     1      -2.149  11.569  17.172  0.00  0.00    +0.000 C 
BRANCH  21  22
ATOM     22  N   UNL     1      -2.361  10.151  16.793  0.00  0.00    +0.000 NA
ATOM     23  C   UNL     1      -3.313   9.474  17.676  0.00  0.00    +0.000 C 
ATOM     24  C   UNL     1      -2.843  10.084  15.409  0.00  0.00    +0.000 C 
ENDBRANCH  21  22
ENDBRANCH  20  21
ENDBRANCH  18  20
ENDBRANCH  10  18
TORSDOF 5
ENDMDL
MODEL 9
REMARK VINA RESULT:      -6.2      1.331      1.717
REMARK  Name = 
REMARK  8 active torsions:
REMARK  status: ('A' for Active; 'I' for Inactive)
REMARK    1  A    between atoms: C_1  and  O_2
REMARK    2  A    between atoms: O_2  and  C_3
REMARK    3  A    between atoms: C_12  and  N_13
REMARK    4  A    between atoms: N_13  and  C_14
REMARK    5  A    between atoms: C_14  and  C_15
REMARK    6  A    between atoms: C_15  and  N_16
REMARK    7  A    between atoms: N_16  and  C_17
REMARK    8  A    between atoms: N_16  and  C_18
REMARK                            x       y       z     vdW  Elec       q    Type
REMARK                         _______ _______ _______ _____ _____    ______ ____
ROOT
ATOM      1  C   UNL     1       6.921   6.076  16.667  0.00  0.00    +0.000 A 
ATOM      2  C   UNL     1       6.813   5.092  15.686  0.00  0.00    +0.000 A 
ATOM      3  C   UNL     1       5.832   4.098  15.783  0.00  0.00    +0.000 A 
ATOM      4  C   UNL     1       4.946   4.072  16.868  0.00  0.00    +0.000 A 
ATOM      5  S   UNL     1       3.797   2.728  17.006  0.00  0.00    +0.000 S 
ATOM      6  C   UNL     1       2.681   3.292  18.285  0.00  0.00    +0.000 A 
ATOM      7  C   UNL     1       1.533   2.512  18.487  0.00  0.00    +0.000 A 
ATOM      8  C   UNL     1       0.618   2.852  19.476  0.00  0.00    +0.000 A 
ATOM      9  C   UNL     1       0.802   4.021  20.212  0.00  0.00    +0.000 A 
ATOM     10  C   UNL     1       1.901   4.871  19.994  0.00  0.00    +0.000 A 
ATOM     11  C   UNL     1       2.895   4.423  19.092  0.00  0.00    +0.000 A 
ATOM     12  C   UNL     1       4.255   5.012  19.071  0.00  0.00    +0.000 A 
ATOM     13  O   UNL     1       4.781   5.401  20.114  0.00  0.00    +0.000 OA
ATOM     14  C   UNL     1       5.055   5.064  17.840  0.00  0.00    +0.000 A 
ATOM     15  C   UNL     1       6.022   6.077  17.730  0.00  0.00    +0.000 A 
ENDROOT
BRANCH   1  17
ATOM     16  C   UNL     1       7.982   8.023  17.473  0.00  0.00    +0.000 C 
ATOM     17  O   UNL     1       7.930   6.984  16.497  0.00  0.00    +0.000 OA
ENDBRANCH   1  17
BRANCH  10  18
ATOM     18  N   UNL     1       1.902   6.036  20.783  0.00  0.00    +0.000 N 
ATOM     19  H   UNL     1       2.485   5.921  21.616  0.00  0.00    +0.000 HD
BRANCH  18  20
ATOM     20  C   UNL     1       2.165   7.339  20.166  0.00  0.00    +0.000 C 
BRANCH  20  21
ATOM     21  C   UNL     1       1.211   7.598  18.973  0.00  0.00    +0.000 C 
BRANCH  21  22
ATOM     22  N   UNL     1       1.699   8.525  17.922  0.00  0.00    +0.000 NA
ATOM     23  C   UNL     1       1.547   9.931  18.303  0.00  0.00    +0.000 C 
ATOM     24  C   UNL     1       3.111   8.243  17.642  0.00  0.00    +0.000 C 
ENDBRANCH  21  22
ENDBRANCH  20  21
ENDBRANCH  18  20
ENDBRANCH  10  18
TORSDOF 5
ENDMDL
