MODEL 1
REMARK VINA RESULT:      -7.8      0.000      0.000
REMARK  Name = 
REMARK  4 active torsions:
REMARK  status: ('A' for Active; 'I' for Inactive)
REMARK    1  A    between atoms: C_7  and  N_8
REMARK    2  A    between atoms: C_9  and  C_11
REMARK    3  A    between atoms: C_13  and  C_14
REMARK    4  A    between atoms: C_15  and  C_16
REMARK                            x       y       z     vdW  Elec       q    Type
REMARK                         _______ _______ _______ _____ _____    ______ ____
ROOT
ATOM      1  C   UNL     1       0.125  11.973  18.832  0.00  0.00    +0.000 A 
ATOM      2  C   UNL     1      -1.111  12.591  18.650  0.00  0.00    +0.000 A 
ATOM      3  N   UNL     1      -0.853  13.944  18.638  0.00  0.00    +0.000 N 
ATOM      4  C   UNL     1       0.497  14.190  18.666  0.00  0.00    +0.000 A 
ATOM      5  C   UNL     1       1.181  15.406  18.652  0.00  0.00    +0.000 A 
ATOM      6  F   UNL     1       0.514  16.566  18.707  0.00  0.00    +0.000 F 
ATOM      7  C   UNL     1       2.566  15.399  18.582  0.00  0.00    +0.000 A 
ATOM      8  C   UNL     1       3.231  14.189  18.505  0.00  0.00    +0.000 A 
ATOM      9  F   UNL     1       4.564  14.184  18.368  0.00  0.00    +0.000 F 
ATOM     10  C   UNL     1       2.553  12.966  18.560  0.00  0.00    +0.000 A 
ATOM     11  C   UNL     1       1.148  12.957  18.687  0.00  0.00    +0.000 A 
ATOM     12  H   UNL     1      -1.552  14.669  18.543  0.00  0.00    +0.000 HD
ENDROOT
BRANCH   2  13
ATOM     13  C   UNL     1      -2.474  12.071  18.468  0.00  0.00    +0.000 A 
ATOM     14  C   UNL     1      -3.477  12.313  19.423  0.00  0.00    +0.000 A 
ATOM     15  C   UNL     1      -4.789  11.879  19.205  0.00  0.00    +0.000 A 
ATOM     16  C   UNL     1      -5.103  11.191  18.042  0.00  0.00    +0.000 A 
ATOM     17  F   UNL     1      -6.360  10.783  17.831  0.00  0.00    +0.000 F 
ATOM     18  C   UNL     1      -4.131  10.933  17.086  0.00  0.00    +0.000 A 
ATOM     19  C   UNL     1      -2.825  11.384  17.294  0.00  0.00    +0.000 A 
ENDBRANCH   2  13
BRANCH   1  22
ATOM     20  C   UNL     1      -0.217   9.692  21.059  0.00  0.00    +0.000 C 
ATOM     21  C   UNL     1      -0.952   9.800  19.707  0.00  0.00    +0.000 C 
ATOM     22  C   UNL     1       0.304  10.479  19.100  0.00  0.00    +0.000 C 
ATOM     23  C   UNL     1       1.108   9.961  20.300  0.00  0.00    +0.000 C 
BRANCH  20  25
ATOM     24  N   UNL     1      -1.201  11.773  22.078  0.00  0.00    +0.000 N 
ATOM     25  C   UNL     1      -0.490  10.604  22.274  0.00  0.00    +0.000 C 
ATOM     26  O   UNL     1      -0.081  10.301  23.407  0.00  0.00    +0.000 OA
ATOM     27  H   UNL     1      -1.443  12.076  21.145  0.00  0.00    +0.000 HD
BRANCH  24  34
ATOM     28  O   UNL     1      -3.672  11.816  23.959  0.00  0.00    +0.000 OA
ATOM     29  C   UNL     1      -3.030  12.729  23.441  0.00  0.00    +0.000 C 
ATOM     30  N   UNL     1      -3.710  13.793  22.900  0.00  0.00    +0.000 N 
ATOM     31  C   UNL     1      -3.091  15.065  22.612  0.00  0.00    +0.000 C 
ATOM     32  C   UNL     1      -1.683  14.901  22.071  0.00  0.00    +0.000 C 
ATOM     33  C   UNL     1      -0.869  14.035  23.026  0.00  0.00    +0.000 C 
ATOM     34  C   UNL     1      -1.509  12.656  23.207  0.00  0.00    +0.000 C 
ATOM     35  H   UNL     1      -4.696  13.783  23.139  0.00  0.00    +0.000 HD
ENDBRANCH  24  34
ENDBRANCH  20  25
ENDBRANCH   1  22
TORSDOF 4
ENDMDL
MODEL 2
REMARK VINA RESULT:      -7.3      9.502     11.556
REMARK  Name = 
REMARK  4 active torsions:
REMARK  status: ('A' for Active; 'I' for Inactive)
REMARK    1  A    between atoms: C_7  and  N_8
REMARK    2  A    between atoms: C_9  and  C_11
REMARK    3  A    between atoms: C_13  and  C_14
REMARK    4  A    between atoms: C_15  and  C_16
REMARK                            x       y       z     vdW  Elec       q    Type
REMARK                         _______ _______ _______ _____ _____    ______ ____
ROOT
ATOM      1  C   UNL     1       9.020  13.336  22.690  0.00  0.00    +0.000 A 
ATOM      2  C   UNL     1       8.306  12.219  23.122  0.00  0.00    +0.000 A 
ATOM      3  N   UNL     1       8.441  11.281  22.122  0.00  0.00    +0.000 N 
ATOM      4  C   UNL     1       9.316  11.711  21.156  0.00  0.00    +0.000 A 
ATOM      5  C   UNL     1       9.743  11.069  19.993  0.00  0.00    +0.000 A 
ATOM      6  F   UNL     1       9.216   9.894  19.628  0.00  0.00    +0.000 F 
ATOM      7  C   UNL     1      10.722  11.668  19.214  0.00  0.00    +0.000 A 
ATOM      8  C   UNL     1      11.266  12.872  19.623  0.00  0.00    +0.000 A 
ATOM      9  F   UNL     1      12.261  13.415  18.908  0.00  0.00    +0.000 F 
ATOM     10  C   UNL     1      10.813  13.539  20.767  0.00  0.00    +0.000 A 
ATOM     11  C   UNL     1       9.779  12.969  21.539  0.00  0.00    +0.000 A 
ATOM     12  H   UNL     1       8.019  10.362  22.126  0.00  0.00    +0.000 HD
ENDROOT
BRANCH   2  13
ATOM     13  C   UNL     1       7.547  11.927  24.347  0.00  0.00    +0.000 A 
ATOM     14  C   UNL     1       8.044  12.285  25.612  0.00  0.00    +0.000 A 
ATOM     15  C   UNL     1       7.281  12.071  26.765  0.00  0.00    +0.000 A 
ATOM     16  C   UNL     1       6.027  11.487  26.662  0.00  0.00    +0.000 A 
ATOM     17  F   UNL     1       5.295  11.289  27.765  0.00  0.00    +0.000 F 
ATOM     18  C   UNL     1       5.516  11.118  25.427  0.00  0.00    +0.000 A 
ATOM     19  C   UNL     1       6.269  11.350  24.273  0.00  0.00    +0.000 A 
ENDBRANCH   2  13
BRANCH   1  22
ATOM     20  C   UNL     1       8.114  16.393  22.358  0.00  0.00    +0.000 C 
ATOM     21  C   UNL     1       7.596  15.368  23.387  0.00  0.00    +0.000 C 
ATOM     22  C   UNL     1       8.992  14.693  23.391  0.00  0.00    +0.000 C 
ATOM     23  C   UNL     1       9.556  15.959  22.731  0.00  0.00    +0.000 C 
BRANCH  20  25
ATOM     24  N   UNL     1       8.781  16.631  19.943  0.00  0.00    +0.000 N 
ATOM     25  C   UNL     1       7.775  16.364  20.852  0.00  0.00    +0.000 C 
ATOM     26  O   UNL     1       6.625  16.110  20.459  0.00  0.00    +0.000 OA
ATOM     27  H   UNL     1       9.689  16.942  20.258  0.00  0.00    +0.000 HD
BRANCH  24  34
ATOM     28  O   UNL     1       8.314  14.194  18.074  0.00  0.00    +0.000 OA
ATOM     29  C   UNL     1       8.950  15.234  17.908  0.00  0.00    +0.000 C 
ATOM     30  N   UNL     1      10.184  15.168  17.308  0.00  0.00    +0.000 N 
ATOM     31  C   UNL     1      10.846  16.313  16.728  0.00  0.00    +0.000 C 
ATOM     32  C   UNL     1      10.635  17.568  17.555  0.00  0.00    +0.000 C 
ATOM     33  C   UNL     1       9.143  17.783  17.782  0.00  0.00    +0.000 C 
ATOM     34  C   UNL     1       8.514  16.587  18.502  0.00  0.00    +0.000 C 
ATOM     35  H   UNL     1      10.370  14.254  16.909  0.00  0.00    +0.000 HD
ENDBRANCH  24  34
ENDBRANCH  20  25
ENDBRANCH   1  22
TORSDOF 4
ENDMDL
MODEL 3
REMARK VINA RESULT:      -7.0      6.708     10.009
REMARK  Name = 
REMARK  4 active torsions:
REMARK  status: ('A' for Active; 'I' for Inactive)
REMARK    1  A    between atoms: C_7  and  N_8
REMARK    2  A    between atoms: C_9  and  C_11
REMARK    3  A    between atoms: C_13  and  C_14
REMARK    4  A    between atoms: C_15  and  C_16
REMARK                            x       y       z     vdW  Elec       q    Type
REMARK                         _______ _______ _______ _____ _____    ______ ____
ROOT
ATOM      1  C   UNL     1       8.764  13.486  21.645  0.00  0.00    +0.000 A 
ATOM      2  C   UNL     1       8.423  12.379  22.421  0.00  0.00    +0.000 A 
ATOM      3  N   UNL     1       8.666  11.279  21.627  0.00  0.00    +0.000 N 
ATOM      4  C   UNL     1       9.270  11.643  20.449  0.00  0.00    +0.000 A 
ATOM      5  C   UNL     1       9.696  10.848  19.384  0.00  0.00    +0.000 A 
ATOM      6  F   UNL     1       9.446   9.533  19.371  0.00  0.00    +0.000 F 
ATOM      7  C   UNL     1      10.380  11.440  18.334  0.00  0.00    +0.000 A 
ATOM      8  C   UNL     1      10.643  12.798  18.380  0.00  0.00    +0.000 A 
ATOM      9  F   UNL     1      11.365  13.357  17.399  0.00  0.00    +0.000 F 
ATOM     10  C   UNL     1      10.183  13.606  19.426  0.00  0.00    +0.000 A 
ATOM     11  C   UNL     1       9.438  13.027  20.474  0.00  0.00    +0.000 A 
ATOM     12  H   UNL     1       8.499  10.319  21.896  0.00  0.00    +0.000 HD
ENDROOT
BRANCH   2  13
ATOM     13  C   UNL     1       7.927  12.233  23.796  0.00  0.00    +0.000 A 
ATOM     14  C   UNL     1       8.604  12.823  24.878  0.00  0.00    +0.000 A 
ATOM     15  C   UNL     1       8.084  12.743  26.175  0.00  0.00    +0.000 A 
ATOM     16  C   UNL     1       6.895  12.063  26.399  0.00  0.00    +0.000 A 
ATOM     17  F   UNL     1       6.395  11.993  27.639  0.00  0.00    +0.000 F 
ATOM     18  C   UNL     1       6.211  11.466  25.351  0.00  0.00    +0.000 A 
ATOM     19  C   UNL     1       6.719  11.564  24.053  0.00  0.00    +0.000 A 
ENDBRANCH   2  13
BRANCH   1  22
ATOM     20  C   UNL     1       6.787  15.959  21.142  0.00  0.00    +0.000 C 
ATOM     21  C   UNL     1       7.003  15.184  22.458  0.00  0.00    +0.000 C 
ATOM     22  C   UNL     1       8.477  14.932  22.046  0.00  0.00    +0.000 C 
ATOM     23  C   UNL     1       8.329  16.049  21.003  0.00  0.00    +0.000 C 
BRANCH  20  25
ATOM     24  N   UNL     1       4.667  15.575  19.841  0.00  0.00    +0.000 N 
ATOM     25  C   UNL     1       6.035  15.400  19.915  0.00  0.00    +0.000 C 
ATOM     26  O   UNL     1       6.641  14.803  19.010  0.00  0.00    +0.000 OA
ATOM     27  H   UNL     1       4.156  15.964  20.621  0.00  0.00    +0.000 HD
BRANCH  24  34
ATOM     28  O   UNL     1       3.415  17.146  17.472  0.00  0.00    +0.000 OA
ATOM     29  C   UNL     1       2.995  16.192  18.125  0.00  0.00    +0.000 C 
ATOM     30  N   UNL     1       1.679  16.186  18.517  0.00  0.00    +0.000 N 
ATOM     31  C   UNL     1       0.985  14.995  18.945  0.00  0.00    +0.000 C 
ATOM     32  C   UNL     1       1.873  14.087  19.775  0.00  0.00    +0.000 C 
ATOM     33  C   UNL     1       3.160  13.796  19.009  0.00  0.00    +0.000 C 
ATOM     34  C   UNL     1       3.914  15.087  18.681  0.00  0.00    +0.000 C 
ATOM     35  H   UNL     1       1.140  16.921  18.071  0.00  0.00    +0.000 HD
ENDBRANCH  24  34
ENDBRANCH  20  25
ENDBRANCH   1  22
TORSDOF 4
ENDMDL
MODEL 4
REMARK VINA RESULT:      -7.0      3.214      6.193
REMARK  Name = 
REMARK  4 active torsions:
REMARK  status: ('A' for Active; 'I' for Inactive)
REMARK    1  A    between atoms: C_7  and  N_8
REMARK    2  A    between atoms: C_9  and  C_11
REMARK    3  A    between atoms: C_13  and  C_14
REMARK    4  A    between atoms: C_15  and  C_16
REMARK                            x       y       z     vdW  Elec       q    Type
REMARK                         _______ _______ _______ _____ _____    ______ ____
ROOT
ATOM      1  C   UNL     1      -1.213  13.819  20.432  0.00  0.00    +0.000 A 
ATOM      2  C   UNL     1      -1.131  15.196  20.230  0.00  0.00    +0.000 A 
ATOM      3  N   UNL     1      -2.040  15.755  21.101  0.00  0.00    +0.000 N 
ATOM      4  C   UNL     1      -2.582  14.804  21.928  0.00  0.00    +0.000 A 
ATOM      5  C   UNL     1      -3.519  14.945  22.953  0.00  0.00    +0.000 A 
ATOM      6  F   UNL     1      -4.104  16.126  23.186  0.00  0.00    +0.000 F 
ATOM      7  C   UNL     1      -3.841  13.841  23.727  0.00  0.00    +0.000 A 
ATOM      8  C   UNL     1      -3.208  12.636  23.480  0.00  0.00    +0.000 A 
ATOM      9  F   UNL     1      -3.467  11.587  24.273  0.00  0.00    +0.000 F 
ATOM     10  C   UNL     1      -2.298  12.480  22.429  0.00  0.00    +0.000 A 
ATOM     11  C   UNL     1      -2.002  13.580  21.597  0.00  0.00    +0.000 A 
ATOM     12  H   UNL     1      -2.234  16.744  21.183  0.00  0.00    +0.000 HD
ENDROOT
BRANCH   2  13
ATOM     13  C   UNL     1      -0.301  16.031  19.350  0.00  0.00    +0.000 A 
ATOM     14  C   UNL     1       1.091  15.852  19.280  0.00  0.00    +0.000 A 
ATOM     15  C   UNL     1       1.863  16.600  18.384  0.00  0.00    +0.000 A 
ATOM     16  C   UNL     1       1.251  17.540  17.567  0.00  0.00    +0.000 A 
ATOM     17  F   UNL     1       1.989  18.251  16.705  0.00  0.00    +0.000 F 
ATOM     18  C   UNL     1      -0.120  17.742  17.621  0.00  0.00    +0.000 A 
ATOM     19  C   UNL     1      -0.893  16.980  18.501  0.00  0.00    +0.000 A 
ENDBRANCH   2  13
BRANCH   1  22
ATOM     20  C   UNL     1      -1.738  11.518  18.263  0.00  0.00    +0.000 C 
ATOM     21  C   UNL     1      -0.963  12.836  18.063  0.00  0.00    +0.000 C 
ATOM     22  C   UNL     1      -0.523  12.781  19.548  0.00  0.00    +0.000 C 
ATOM     23  C   UNL     1      -0.928  11.301  19.567  0.00  0.00    +0.000 C 
BRANCH  20  25
ATOM     24  N   UNL     1      -3.955  12.491  18.952  0.00  0.00    +0.000 N 
ATOM     25  C   UNL     1      -3.272  11.422  18.404  0.00  0.00    +0.000 C 
ATOM     26  O   UNL     1      -3.887  10.408  18.036  0.00  0.00    +0.000 OA
ATOM     27  H   UNL     1      -3.452  13.272  19.349  0.00  0.00    +0.000 HD
BRANCH  24  34
ATOM     28  O   UNL     1      -6.150  12.541  16.755  0.00  0.00    +0.000 OA
ATOM     29  C   UNL     1      -6.083  13.100  17.849  0.00  0.00    +0.000 C 
ATOM     30  N   UNL     1      -6.474  14.414  17.946  0.00  0.00    +0.000 N 
ATOM     31  C   UNL     1      -6.795  15.054  19.200  0.00  0.00    +0.000 C 
ATOM     32  C   UNL     1      -5.873  14.607  20.318  0.00  0.00    +0.000 C 
ATOM     33  C   UNL     1      -5.873  13.084  20.399  0.00  0.00    +0.000 C 
ATOM     34  C   UNL     1      -5.415  12.458  19.079  0.00  0.00    +0.000 C 
ATOM     35  H   UNL     1      -6.941  14.741  17.107  0.00  0.00    +0.000 HD
ENDBRANCH  24  34
ENDBRANCH  20  25
ENDBRANCH   1  22
TORSDOF 4
ENDMDL
MODEL 5
REMARK VINA RESULT:      -7.0      2.055      5.567
REMARK  Name = 
REMARK  4 active torsions:
REMARK  status: ('A' for Active; 'I' for Inactive)
REMARK    1  A    between atoms: C_7  and  N_8
REMARK    2  A    between atoms: C_9  and  C_11
REMARK    3  A    between atoms: C_13  and  C_14
REMARK    4  A    between atoms: C_15  and  C_16
REMARK                            x       y       z     vdW  Elec       q    Type
REMARK                         _______ _______ _______ _____ _____    ______ ____
ROOT
ATOM      1  C   UNL     1      -0.721  12.020  19.330  0.00  0.00    +0.000 A 
ATOM      2  C   UNL     1      -0.443  13.104  18.500  0.00  0.00    +0.000 A 
ATOM      3  N   UNL     1      -1.028  12.805  17.289  0.00  0.00    +0.000 N 
ATOM      4  C   UNL     1      -1.772  11.655  17.369  0.00  0.00    +0.000 A 
ATOM      5  C   UNL     1      -2.531  11.014  16.389  0.00  0.00    +0.000 A 
ATOM      6  F   UNL     1      -2.530  11.458  15.126  0.00  0.00    +0.000 F 
ATOM      7  C   UNL     1      -3.286   9.906  16.739  0.00  0.00    +0.000 A 
ATOM      8  C   UNL     1      -3.287   9.479  18.055  0.00  0.00    +0.000 A 
ATOM      9  F   UNL     1      -4.071   8.451  18.407  0.00  0.00    +0.000 F 
ATOM     10  C   UNL     1      -2.497  10.092  19.033  0.00  0.00    +0.000 A 
ATOM     11  C   UNL     1      -1.680  11.187  18.680  0.00  0.00    +0.000 A 
ATOM     12  H   UNL     1      -0.988  13.388  16.464  0.00  0.00    +0.000 HD
ENDROOT
BRANCH   2  13
ATOM     13  C   UNL     1       0.275  14.369  18.710  0.00  0.00    +0.000 A 
ATOM     14  C   UNL     1      -0.414  15.546  19.052  0.00  0.00    +0.000 A 
ATOM     15  C   UNL     1       0.283  16.728  19.325  0.00  0.00    +0.000 A 
ATOM     16  C   UNL     1       1.669  16.744  19.242  0.00  0.00    +0.000 A 
ATOM     17  F   UNL     1       2.336  17.874  19.510  0.00  0.00    +0.000 F 
ATOM     18  C   UNL     1       2.372  15.600  18.900  0.00  0.00    +0.000 A 
ATOM     19  C   UNL     1       1.677  14.414  18.648  0.00  0.00    +0.000 A 
ENDBRANCH   2  13
BRANCH   1  22
ATOM     20  C   UNL     1      -1.316  12.244  22.472  0.00  0.00    +0.000 C 
ATOM     21  C   UNL     1      -0.982  10.970  21.670  0.00  0.00    +0.000 C 
ATOM     22  C   UNL     1      -0.107  11.823  20.715  0.00  0.00    +0.000 C 
ATOM     23  C   UNL     1      -0.117  12.935  21.773  0.00  0.00    +0.000 C 
BRANCH  20  25
ATOM     24  N   UNL     1      -3.603  12.573  21.475  0.00  0.00    +0.000 N 
ATOM     25  C   UNL     1      -2.661  12.996  22.394  0.00  0.00    +0.000 C 
ATOM     26  O   UNL     1      -2.900  13.963  23.136  0.00  0.00    +0.000 OA
ATOM     27  H   UNL     1      -3.375  11.858  20.798  0.00  0.00    +0.000 HD
BRANCH  24  34
ATOM     28  O   UNL     1      -6.033  12.472  23.406  0.00  0.00    +0.000 OA
ATOM     29  C   UNL     1      -5.972  12.458  22.178  0.00  0.00    +0.000 C 
ATOM     30  N   UNL     1      -6.779  11.590  21.483  0.00  0.00    +0.000 N 
ATOM     31  C   UNL     1      -7.073  11.733  20.077  0.00  0.00    +0.000 C 
ATOM     32  C   UNL     1      -5.864  12.205  19.290  0.00  0.00    +0.000 C 
ATOM     33  C   UNL     1      -5.309  13.476  19.925  0.00  0.00    +0.000 C 
ATOM     34  C   UNL     1      -4.907  13.237  21.383  0.00  0.00    +0.000 C 
ATOM     35  H   UNL     1      -7.476  11.153  22.077  0.00  0.00    +0.000 HD
ENDBRANCH  24  34
ENDBRANCH  20  25
ENDBRANCH   1  22
TORSDOF 4
ENDMDL
MODEL 6
REMARK VINA RESULT:      -6.9      2.527      4.763
REMARK  Name = 
REMARK  4 active torsions:
REMARK  status: ('A' for Active; 'I' for Inactive)
REMARK    1  A    between atoms: C_7  and  N_8
REMARK    2  A    between atoms: C_9  and  C_11
REMARK    3  A    between atoms: C_13  and  C_14
REMARK    4  A    between atoms: C_15  and  C_16
REMARK                            x       y       z     vdW  Elec       q    Type
REMARK                         _______ _______ _______ _____ _____    ______ ____
ROOT
ATOM      1  C   UNL     1      -3.009  14.686  21.913  0.00  0.00    +0.000 A 
ATOM      2  C   UNL     1      -4.004  14.619  20.938  0.00  0.00    +0.000 A 
ATOM      3  N   UNL     1      -3.850  15.753  20.171  0.00  0.00    +0.000 N 
ATOM      4  C   UNL     1      -2.726  16.450  20.537  0.00  0.00    +0.000 A 
ATOM      5  C   UNL     1      -2.200  17.631  20.013  0.00  0.00    +0.000 A 
ATOM      6  F   UNL     1      -2.860  18.313  19.069  0.00  0.00    +0.000 F 
ATOM      7  C   UNL     1      -0.981  18.094  20.486  0.00  0.00    +0.000 A 
ATOM      8  C   UNL     1      -0.308  17.360  21.446  0.00  0.00    +0.000 A 
ATOM      9  F   UNL     1       0.902  17.771  21.852  0.00  0.00    +0.000 F 
ATOM     10  C   UNL     1      -0.849  16.197  22.004  0.00  0.00    +0.000 A 
ATOM     11  C   UNL     1      -2.114  15.744  21.573  0.00  0.00    +0.000 A 
ATOM     12  H   UNL     1      -4.436  16.010  19.388  0.00  0.00    +0.000 HD
ENDROOT
BRANCH   2  13
ATOM     13  C   UNL     1      -5.044  13.627  20.635  0.00  0.00    +0.000 A 
ATOM     14  C   UNL     1      -4.833  12.624  19.673  0.00  0.00    +0.000 A 
ATOM     15  C   UNL     1      -5.800  11.638  19.445  0.00  0.00    +0.000 A 
ATOM     16  C   UNL     1      -6.986  11.658  20.165  0.00  0.00    +0.000 A 
ATOM     17  F   UNL     1      -7.908  10.711  19.951  0.00  0.00    +0.000 F 
ATOM     18  C   UNL     1      -7.223  12.641  21.114  0.00  0.00    +0.000 A 
ATOM     19  C   UNL     1      -6.249  13.613  21.357  0.00  0.00    +0.000 A 
ENDBRANCH   2  13
BRANCH   1  22
ATOM     20  C   UNL     1      -1.417  12.161  23.080  0.00  0.00    +0.000 C 
ATOM     21  C   UNL     1      -1.479  13.584  23.670  0.00  0.00    +0.000 C 
ATOM     22  C   UNL     1      -2.915  13.736  23.106  0.00  0.00    +0.000 C 
ATOM     23  C   UNL     1      -2.961  12.212  22.934  0.00  0.00    +0.000 C 
BRANCH  20  25
ATOM     24  N   UNL     1      -1.267  11.899  20.582  0.00  0.00    +0.000 N 
ATOM     25  C   UNL     1      -0.636  11.778  21.805  0.00  0.00    +0.000 C 
ATOM     26  O   UNL     1       0.534  11.368  21.869  0.00  0.00    +0.000 OA
ATOM     27  H   UNL     1      -2.249  12.130  20.531  0.00  0.00    +0.000 HD
BRANCH  24  34
ATOM     28  O   UNL     1      -0.316  13.761  18.284  0.00  0.00    +0.000 OA
ATOM     29  C   UNL     1      -0.829  12.643  18.263  0.00  0.00    +0.000 C 
ATOM     30  N   UNL     1      -1.808  12.380  17.337  0.00  0.00    +0.000 N 
ATOM     31  C   UNL     1      -2.210  11.044  16.965  0.00  0.00    +0.000 C 
ATOM     32  C   UNL     1      -2.229  10.105  18.157  0.00  0.00    +0.000 C 
ATOM     33  C   UNL     1      -0.880  10.157  18.867  0.00  0.00    +0.000 C 
ATOM     34  C   UNL     1      -0.556  11.576  19.341  0.00  0.00    +0.000 C 
ATOM     35  H   UNL     1      -1.890  13.115  16.642  0.00  0.00    +0.000 HD
ENDBRANCH  24  34
ENDBRANCH  20  25
ENDBRANCH   1  22
TORSDOF 4
ENDMDL
MODEL 7
REMARK VINA RESULT:      -6.9      3.245      5.809
REMARK  Name = 
REMARK  4 active torsions:
REMARK  status: ('A' for Active; 'I' for Inactive)
REMARK    1  A    between atoms: C_7  and  N_8
REMARK    2  A    between atoms: C_9  and  C_11
REMARK    3  A    between atoms: C_13  and  C_14
REMARK    4  A    between atoms: C_15  and  C_16
REMARK                            x       y       z     vdW  Elec       q    Type
REMARK                         _______ _______ _______ _____ _____    ______ ____
ROOT
ATOM      1  C   UNL     1      -1.680  11.494  19.639  0.00  0.00    +0.000 A 
ATOM      2  C   UNL     1      -2.590  12.364  20.238  0.00  0.00    +0.000 A 
ATOM      3  N   UNL     1      -3.564  12.592  19.291  0.00  0.00    +0.000 N 
ATOM      4  C   UNL     1      -3.376  11.800  18.186  0.00  0.00    +0.000 A 
ATOM      5  C   UNL     1      -4.133  11.706  17.018  0.00  0.00    +0.000 A 
ATOM      6  F   UNL     1      -5.167  12.529  16.806  0.00  0.00    +0.000 F 
ATOM      7  C   UNL     1      -3.798  10.748  16.073  0.00  0.00    +0.000 A 
ATOM      8  C   UNL     1      -2.738   9.895  16.324  0.00  0.00    +0.000 A 
ATOM      9  F   UNL     1      -2.458   8.924  15.444  0.00  0.00    +0.000 F 
ATOM     10  C   UNL     1      -1.951  10.012  17.475  0.00  0.00    +0.000 A 
ATOM     11  C   UNL     1      -2.245  11.018  18.419  0.00  0.00    +0.000 A 
ATOM     12  H   UNL     1      -4.362  13.202  19.412  0.00  0.00    +0.000 HD
ENDROOT
BRANCH   2  13
ATOM     13  C   UNL     1      -2.663  12.975  21.572  0.00  0.00    +0.000 A 
ATOM     14  C   UNL     1      -2.382  14.339  21.762  0.00  0.00    +0.000 A 
ATOM     15  C   UNL     1      -2.527  14.929  23.022  0.00  0.00    +0.000 A 
ATOM     16  C   UNL     1      -2.939  14.158  24.100  0.00  0.00    +0.000 A 
ATOM     17  F   UNL     1      -3.084  14.726  25.304  0.00  0.00    +0.000 F 
ATOM     18  C   UNL     1      -3.216  12.809  23.942  0.00  0.00    +0.000 A 
ATOM     19  C   UNL     1      -3.091  12.224  22.679  0.00  0.00    +0.000 A 
ENDBRANCH   2  13
BRANCH   1  22
ATOM     20  C   UNL     1       1.328  12.510  20.084  0.00  0.00    +0.000 C 
ATOM     21  C   UNL     1       0.269  12.212  21.165  0.00  0.00    +0.000 C 
ATOM     22  C   UNL     1      -0.331  11.115  20.249  0.00  0.00    +0.000 C 
ATOM     23  C   UNL     1       0.967  11.150  19.432  0.00  0.00    +0.000 C 
BRANCH  20  25
ATOM     24  N   UNL     1       0.661  14.883  19.576  0.00  0.00    +0.000 N 
ATOM     25  C   UNL     1       1.293  13.733  19.143  0.00  0.00    +0.000 C 
ATOM     26  O   UNL     1       1.819  13.693  18.019  0.00  0.00    +0.000 OA
ATOM     27  H   UNL     1       0.142  14.888  20.443  0.00  0.00    +0.000 HD
BRANCH  24  34
ATOM     28  O   UNL     1       2.913  16.914  18.904  0.00  0.00    +0.000 OA
ATOM     29  C   UNL     1       1.720  17.079  19.156  0.00  0.00    +0.000 C 
ATOM     30  N   UNL     1       1.355  18.108  19.990  0.00  0.00    +0.000 N 
ATOM     31  C   UNL     1       0.010  18.630  20.063  0.00  0.00    +0.000 C 
ATOM     32  C   UNL     1      -1.031  17.532  19.956  0.00  0.00    +0.000 C 
ATOM     33  C   UNL     1      -0.770  16.704  18.703  0.00  0.00    +0.000 C 
ATOM     34  C   UNL     1       0.627  16.080  18.730  0.00  0.00    +0.000 C 
ATOM     35  H   UNL     1       2.125  18.739  20.184  0.00  0.00    +0.000 HD
ENDBRANCH  24  34
ENDBRANCH  20  25
ENDBRANCH   1  22
TORSDOF 4
ENDMDL
MODEL 8
REMARK VINA RESULT:      -6.9      3.906      6.625
REMARK  Name = 
REMARK  4 active torsions:
REMARK  status: ('A' for Active; 'I' for Inactive)
REMARK    1  A    between atoms: C_7  and  N_8
REMARK    2  A    between atoms: C_9  and  C_11
REMARK    3  A    between atoms: C_13  and  C_14
REMARK    4  A    between atoms: C_15  and  C_16
REMARK                            x       y       z     vdW  Elec       q    Type
REMARK                         _______ _______ _______ _____ _____    ______ ____
ROOT
ATOM      1  C   UNL     1       0.902   9.181  19.844  0.00  0.00    +0.000 A 
ATOM      2  C   UNL     1       1.484   8.045  20.407  0.00  0.00    +0.000 A 
ATOM      3  N   UNL     1       1.258   8.145  21.763  0.00  0.00    +0.000 N 
ATOM      4  C   UNL     1       0.447   9.214  22.052  0.00  0.00    +0.000 A 
ATOM      5  C   UNL     1      -0.034   9.659  23.284  0.00  0.00    +0.000 A 
ATOM      6  F   UNL     1       0.365   9.080  24.423  0.00  0.00    +0.000 F 
ATOM      7  C   UNL     1      -0.932  10.715  23.314  0.00  0.00    +0.000 A 
ATOM      8  C   UNL     1      -1.346  11.283  22.122  0.00  0.00    +0.000 A 
ATOM      9  F   UNL     1      -2.266  12.257  22.148  0.00  0.00    +0.000 F 
ATOM     10  C   UNL     1      -0.835  10.868  20.888  0.00  0.00    +0.000 A 
ATOM     11  C   UNL     1       0.121   9.832  20.845  0.00  0.00    +0.000 A 
ATOM     12  H   UNL     1       1.577   7.481  22.455  0.00  0.00    +0.000 HD
ENDROOT
BRANCH   2  13
ATOM     13  C   UNL     1       2.192   6.893  19.833  0.00  0.00    +0.000 A 
ATOM     14  C   UNL     1       2.070   5.611  20.397  0.00  0.00    +0.000 A 
ATOM     15  C   UNL     1       2.687   4.507  19.799  0.00  0.00    +0.000 A 
ATOM     16  C   UNL     1       3.441   4.679  18.647  0.00  0.00    +0.000 A 
ATOM     17  F   UNL     1       4.025   3.620  18.072  0.00  0.00    +0.000 F 
ATOM     18  C   UNL     1       3.584   5.934  18.074  0.00  0.00    +0.000 A 
ATOM     19  C   UNL     1       2.950   7.033  18.659  0.00  0.00    +0.000 A 
ENDBRANCH   2  13
BRANCH   1  22
ATOM     20  C   UNL     1       1.567  11.659  17.923  0.00  0.00    +0.000 C 
ATOM     21  C   UNL     1       2.386  10.364  18.100  0.00  0.00    +0.000 C 
ATOM     22  C   UNL     1       1.071   9.593  18.382  0.00  0.00    +0.000 C 
ATOM     23  C   UNL     1       0.301  10.775  17.779  0.00  0.00    +0.000 C 
BRANCH  20  25
ATOM     24  N   UNL     1       0.791  13.940  18.650  0.00  0.00    +0.000 N 
ATOM     25  C   UNL     1       1.481  12.787  18.973  0.00  0.00    +0.000 C 
ATOM     26  O   UNL     1       2.019  12.669  20.086  0.00  0.00    +0.000 OA
ATOM     27  H   UNL     1       0.443  14.084  17.712  0.00  0.00    +0.000 HD
BRANCH  24  34
ATOM     28  O   UNL     1      -1.622  14.726  20.441  0.00  0.00    +0.000 OA
ATOM     29  C   UNL     1      -0.822  15.414  19.808  0.00  0.00    +0.000 C 
ATOM     30  N   UNL     1      -1.293  16.491  19.096  0.00  0.00    +0.000 N 
ATOM     31  C   UNL     1      -0.449  17.567  18.635  0.00  0.00    +0.000 C 
ATOM     32  C   UNL     1       0.902  17.065  18.160  0.00  0.00    +0.000 C 
ATOM     33  C   UNL     1       1.543  16.219  19.255  0.00  0.00    +0.000 C 
ATOM     34  C   UNL     1       0.657  15.026  19.625  0.00  0.00    +0.000 C 
ATOM     35  H   UNL     1      -2.263  16.700  19.309  0.00  0.00    +0.000 HD
ENDBRANCH  24  34
ENDBRANCH  20  25
ENDBRANCH   1  22
TORSDOF 4
ENDMDL
MODEL 9
REMARK VINA RESULT:      -6.8      1.320      1.509
REMARK  Name = 
REMARK  4 active torsions:
REMARK  status: ('A' for Active; 'I' for Inactive)
REMARK    1  A    between atoms: C_7  and  N_8
REMARK    2  A    between atoms: C_9  and  C_11
REMARK    3  A    between atoms: C_13  and  C_14
REMARK    4  A    between atoms: C_15  and  C_16
REMARK                            x       y       z     vdW  Elec       q    Type
REMARK                         _______ _______ _______ _____ _____    ______ ____
ROOT
ATOM      1  C   UNL     1      -0.078  11.634  19.052  0.00  0.00    +0.000 A 
ATOM      2  C   UNL     1      -1.099  12.078  18.213  0.00  0.00    +0.000 A 
ATOM      3  N   UNL     1      -1.087  13.453  18.307  0.00  0.00    +0.000 N 
ATOM      4  C   UNL     1      -0.021  13.888  19.055  0.00  0.00    +0.000 A 
ATOM      5  C   UNL     1       0.367  15.189  19.380  0.00  0.00    +0.000 A 
ATOM      6  F   UNL     1      -0.394  16.235  19.034  0.00  0.00    +0.000 F 
ATOM      7  C   UNL     1       1.553  15.385  20.070  0.00  0.00    +0.000 A 
ATOM      8  C   UNL     1       2.332  14.289  20.398  0.00  0.00    +0.000 A 
ATOM      9  F   UNL     1       3.511  14.485  21.003  0.00  0.00    +0.000 F 
ATOM     10  C   UNL     1       1.928  12.981  20.110  0.00  0.00    +0.000 A 
ATOM     11  C   UNL     1       0.697  12.763  19.457  0.00  0.00    +0.000 A 
ATOM     12  H   UNL     1      -1.726  14.074  17.830  0.00  0.00    +0.000 HD
ENDROOT
BRANCH   2  13
ATOM     13  C   UNL     1      -2.051  11.381  17.337  0.00  0.00    +0.000 A 
ATOM     14  C   UNL     1      -3.406  11.751  17.296  0.00  0.00    +0.000 A 
ATOM     15  C   UNL     1      -4.288  11.132  16.404  0.00  0.00    +0.000 A 
ATOM     16  C   UNL     1      -3.826  10.132  15.561  0.00  0.00    +0.000 A 
ATOM     17  F   UNL     1      -4.669   9.545  14.703  0.00  0.00    +0.000 F 
ATOM     18  C   UNL     1      -2.495   9.742  15.586  0.00  0.00    +0.000 A 
ATOM     19  C   UNL     1      -1.609  10.375  16.462  0.00  0.00    +0.000 A 
ENDBRANCH   2  13
BRANCH   1  22
ATOM     20  C   UNL     1      -0.314   9.494  21.426  0.00  0.00    +0.000 C 
ATOM     21  C   UNL     1      -1.068   9.489  20.081  0.00  0.00    +0.000 C 
ATOM     22  C   UNL     1       0.156  10.168  19.414  0.00  0.00    +0.000 C 
ATOM     23  C   UNL     1       0.992   9.757  20.633  0.00  0.00    +0.000 C 
BRANCH  20  25
ATOM     24  N   UNL     1      -1.379  11.588  22.329  0.00  0.00    +0.000 N 
ATOM     25  C   UNL     1      -0.604  10.473  22.584  0.00  0.00    +0.000 C 
ATOM     26  O   UNL     1      -0.152  10.271  23.723  0.00  0.00    +0.000 OA
ATOM     27  H   UNL     1      -1.661  11.813  21.385  0.00  0.00    +0.000 HD
BRANCH  24  34
ATOM     28  O   UNL     1      -3.925  11.795  24.097  0.00  0.00    +0.000 OA
ATOM     29  C   UNL     1      -3.232  12.662  23.567  0.00  0.00    +0.000 C 
ATOM     30  N   UNL     1      -3.852  13.722  22.950  0.00  0.00    +0.000 N 
ATOM     31  C   UNL     1      -3.180  14.959  22.633  0.00  0.00    +0.000 C 
ATOM     32  C   UNL     1      -1.756  14.727  22.162  0.00  0.00    +0.000 C 
ATOM     33  C   UNL     1      -1.013  13.880  23.189  0.00  0.00    +0.000 C 
ATOM     34  C   UNL     1      -1.706  12.532  23.403  0.00  0.00    +0.000 C 
ATOM     35  H   UNL     1      -4.847  13.754  23.146  0.00  0.00    +0.000 HD
ENDBRANCH  24  34
ENDBRANCH  20  25
ENDBRANCH   1  22
TORSDOF 4
ENDMDL
