MODEL 1
REMARK VINA RESULT:      -7.0      0.000      0.000
REMARK  Name = 
REMARK  12 active torsions:
REMARK  status: ('A' for Active; 'I' for Inactive)
REMARK    1  A    between atoms: C_2  and  C_3
REMARK    2  A    between atoms: C_2  and  C_5
REMARK    3  A    between atoms: C_3  and  C_4
REMARK    4  A    between atoms: C_5  and  C_7
REMARK    5  A    between atoms: C_10  and  O_11
REMARK    6  A    between atoms: O_11  and  C_12
REMARK    7  A    between atoms: C_12  and  C_13
REMARK    8  A    between atoms: N_15  and  C_16
REMARK    9  A    between atoms: N_19  and  C_20
REMARK   10  A    between atoms: C_20  and  C_21
REMARK   11  A    between atoms: C_21  and  O_23
REMARK   12  A    between atoms: O_23  and  C_24
REMARK                            x       y       z     vdW  Elec       q    Type
REMARK                         _______ _______ _______ _____ _____    ______ ____
ROOT
ATOM      1  C   UNL     1       0.663   5.230  20.721  0.00  0.00    +0.000 C 
ENDROOT
BRANCH   1   2
ATOM      2  C   UNL     1       1.526   3.978  20.566  0.00  0.00    +0.000 C 
ATOM      3  O   UNL     1       1.480   3.039  21.357  0.00  0.00    +0.000 OA
ATOM      4  N   UNL     1       2.371   4.013  19.472  0.00  0.00    +0.000 N 
ATOM      5  H   UNL     1       2.144   4.681  18.744  0.00  0.00    +0.000 HD
BRANCH   4   6
ATOM      6  C   UNL     1       3.237   2.886  19.125  0.00  0.00    +0.000 C 
ATOM      7  C   UNL     1       4.698   3.186  19.472  0.00  0.00    +0.000 C 
ATOM      8  C   UNL     1       5.325   4.205  18.520  0.00  0.00    +0.000 C 
ATOM      9  N   UNL     1       5.152   3.828  17.114  0.00  0.00    +0.000 NA
ATOM     10  C   UNL     1       3.748   3.587  16.755  0.00  0.00    +0.000 C 
ATOM     11  C   UNL     1       3.119   2.515  17.646  0.00  0.00    +0.000 C 
BRANCH   9  12
ATOM     12  C   UNL     1       5.801   4.801  16.198  0.00  0.00    +0.000 C 
BRANCH  12  13
ATOM     13  C   UNL     1       7.265   5.091  16.532  0.00  0.00    +0.000 C 
ATOM     14  O   UNL     1       8.092   4.250  16.867  0.00  0.00    +0.000 OA
BRANCH  13  15
ATOM     15  O   UNL     1       7.542   6.416  16.362  0.00  0.00    +0.000 OA
ATOM     16  C   UNL     1       7.465   7.178  17.569  0.00  0.00    +0.000 C 
ENDBRANCH  13  15
ENDBRANCH  12  13
ENDBRANCH   9  12
ENDBRANCH   4   6
ENDBRANCH   1   2
BRANCH   1  17
ATOM     17  O   UNL     1       1.479   6.319  21.115  0.00  0.00    +0.000 OA
BRANCH  17  21
ATOM     18  C   UNL     1       0.537  10.267  20.028  0.00  0.00    +0.000 A 
ATOM     19  C   UNL     1       0.039   9.609  21.153  0.00  0.00    +0.000 A 
ATOM     20  C   UNL     1       0.442   8.309  21.460  0.00  0.00    +0.000 A 
ATOM     21  C   UNL     1       1.288   7.579  20.615  0.00  0.00    +0.000 A 
ATOM     22  C   UNL     1       1.760   8.203  19.446  0.00  0.00    +0.000 A 
ATOM     23 CL   UNL     1       2.750   7.360  18.285  0.00  0.00    +0.000 Cl
ATOM     24  C   UNL     1       1.404   9.556  19.166  0.00  0.00    +0.000 A 
ATOM     25 CL   UNL     1       2.091  10.337  17.760  0.00  0.00    +0.000 Cl
BRANCH  18  26
ATOM     26  C   UNL     1       0.040  11.639  19.705  0.00  0.00    +0.000 C 
ATOM     27  O   UNL     1       0.818  12.585  19.810  0.00  0.00    +0.000 OA
BRANCH  26  29
ATOM     28  C   UNL     1      -2.229  12.344  20.120  0.00  0.00    +0.000 C 
ATOM     29  C   UNL     1      -1.371  11.877  19.188  0.00  0.00    +0.000 C 
BRANCH  29  30
ATOM     30  C   UNL     1      -1.773  11.563  17.768  0.00  0.00    +0.000 C 
ATOM     31  C   UNL     1      -1.772  10.091  17.361  0.00  0.00    +0.000 C 
ENDBRANCH  29  30
ENDBRANCH  26  29
ENDBRANCH  18  26
ENDBRANCH  17  21
ENDBRANCH   1  17
TORSDOF 10
ENDMDL
MODEL 2
REMARK VINA RESULT:      -6.8      2.024      2.597
REMARK  Name = 
REMARK  12 active torsions:
REMARK  status: ('A' for Active; 'I' for Inactive)
REMARK    1  A    between atoms: C_2  and  C_3
REMARK    2  A    between atoms: C_2  and  C_5
REMARK    3  A    between atoms: C_3  and  C_4
REMARK    4  A    between atoms: C_5  and  C_7
REMARK    5  A    between atoms: C_10  and  O_11
REMARK    6  A    between atoms: O_11  and  C_12
REMARK    7  A    between atoms: C_12  and  C_13
REMARK    8  A    between atoms: N_15  and  C_16
REMARK    9  A    between atoms: N_19  and  C_20
REMARK   10  A    between atoms: C_20  and  C_21
REMARK   11  A    between atoms: C_21  and  O_23
REMARK   12  A    between atoms: O_23  and  C_24
REMARK                            x       y       z     vdW  Elec       q    Type
REMARK                         _______ _______ _______ _____ _____    ______ ____
ROOT
ATOM      1  C   UNL     1       1.265   6.435  21.110  0.00  0.00    +0.000 C 
ENDROOT
BRANCH   1   2
ATOM      2  C   UNL     1       1.547   5.088  20.447  0.00  0.00    +0.000 C 
ATOM      3  O   UNL     1       1.023   4.042  20.821  0.00  0.00    +0.000 OA
ATOM      4  N   UNL     1       2.456   5.155  19.406  0.00  0.00    +0.000 N 
ATOM      5  H   UNL     1       2.614   6.070  19.001  0.00  0.00    +0.000 HD
BRANCH   4   6
ATOM      6  C   UNL     1       2.815   3.980  18.613  0.00  0.00    +0.000 C 
ATOM      7  C   UNL     1       3.926   3.174  19.291  0.00  0.00    +0.000 C 
ATOM      8  C   UNL     1       5.283   3.875  19.214  0.00  0.00    +0.000 C 
ATOM      9  N   UNL     1       5.631   4.258  17.843  0.00  0.00    +0.000 NA
ATOM     10  C   UNL     1       4.594   5.075  17.197  0.00  0.00    +0.000 C 
ATOM     11  C   UNL     1       3.242   4.363  17.195  0.00  0.00    +0.000 C 
BRANCH   9  12
ATOM     12  C   UNL     1       6.969   4.898  17.772  0.00  0.00    +0.000 C 
BRANCH  12  13
ATOM     13  C   UNL     1       7.368   5.359  16.370  0.00  0.00    +0.000 C 
ATOM     14  O   UNL     1       7.486   4.626  15.394  0.00  0.00    +0.000 OA
BRANCH  13  15
ATOM     15  O   UNL     1       7.531   6.713  16.338  0.00  0.00    +0.000 OA
ATOM     16  C   UNL     1       7.594   7.314  17.633  0.00  0.00    +0.000 C 
ENDBRANCH  13  15
ENDBRANCH  12  13
ENDBRANCH   9  12
ENDBRANCH   4   6
ENDBRANCH   1   2
BRANCH   1  17
ATOM     17  O   UNL     1       1.928   7.461  20.392  0.00  0.00    +0.000 OA
BRANCH  17  21
ATOM     18  C   UNL     1       0.290  11.128  19.154  0.00  0.00    +0.000 A 
ATOM     19  C   UNL     1       0.956  10.229  18.320  0.00  0.00    +0.000 A 
ATOM     20  C   UNL     1       1.430   9.012  18.810  0.00  0.00    +0.000 A 
ATOM     21  C   UNL     1       1.339   8.677  20.167  0.00  0.00    +0.000 A 
ATOM     22  C   UNL     1       0.720   9.592  21.039  0.00  0.00    +0.000 A 
ATOM     23 CL   UNL     1       0.627   9.313  22.756  0.00  0.00    +0.000 Cl
ATOM     24  C   UNL     1       0.173  10.807  20.526  0.00  0.00    +0.000 A 
ATOM     25 CL   UNL     1      -0.681  11.874  21.617  0.00  0.00    +0.000 Cl
BRANCH  18  26
ATOM     26  C   UNL     1      -0.154  12.445  18.603  0.00  0.00    +0.000 C 
ATOM     27  O   UNL     1      -1.222  12.496  17.995  0.00  0.00    +0.000 OA
BRANCH  26  29
ATOM     28  C   UNL     1      -0.107  14.843  18.855  0.00  0.00    +0.000 C 
ATOM     29  C   UNL     1       0.643  13.720  18.836  0.00  0.00    +0.000 C 
BRANCH  29  30
ATOM     30  C   UNL     1       2.145  13.716  18.977  0.00  0.00    +0.000 C 
ATOM     31  C   UNL     1       2.704  13.624  20.395  0.00  0.00    +0.000 C 
ENDBRANCH  29  30
ENDBRANCH  26  29
ENDBRANCH  18  26
ENDBRANCH  17  21
ENDBRANCH   1  17
TORSDOF 10
ENDMDL
MODEL 3
REMARK VINA RESULT:      -6.6      2.391      3.171
REMARK  Name = 
REMARK  12 active torsions:
REMARK  status: ('A' for Active; 'I' for Inactive)
REMARK    1  A    between atoms: C_2  and  C_3
REMARK    2  A    between atoms: C_2  and  C_5
REMARK    3  A    between atoms: C_3  and  C_4
REMARK    4  A    between atoms: C_5  and  C_7
REMARK    5  A    between atoms: C_10  and  O_11
REMARK    6  A    between atoms: O_11  and  C_12
REMARK    7  A    between atoms: C_12  and  C_13
REMARK    8  A    between atoms: N_15  and  C_16
REMARK    9  A    between atoms: N_19  and  C_20
REMARK   10  A    between atoms: C_20  and  C_21
REMARK   11  A    between atoms: C_21  and  O_23
REMARK   12  A    between atoms: O_23  and  C_24
REMARK                            x       y       z     vdW  Elec       q    Type
REMARK                         _______ _______ _______ _____ _____    ______ ____
ROOT
ATOM      1  C   UNL     1       1.334   6.136  20.467  0.00  0.00    +0.000 C 
ENDROOT
BRANCH   1   2
ATOM      2  C   UNL     1       2.499   5.147  20.481  0.00  0.00    +0.000 C 
ATOM      3  O   UNL     1       2.475   4.103  21.129  0.00  0.00    +0.000 OA
ATOM      4  N   UNL     1       3.582   5.546  19.719  0.00  0.00    +0.000 N 
ATOM      5  H   UNL     1       3.407   6.259  19.021  0.00  0.00    +0.000 HD
BRANCH   4   6
ATOM      6  C   UNL     1       4.772   4.709  19.565  0.00  0.00    +0.000 C 
ATOM      7  C   UNL     1       5.954   5.524  19.032  0.00  0.00    +0.000 C 
ATOM      8  C   UNL     1       5.790   5.893  17.557  0.00  0.00    +0.000 C 
ATOM      9  N   UNL     1       5.499   4.722  16.724  0.00  0.00    +0.000 NA
ATOM     10  C   UNL     1       4.336   3.959  17.195  0.00  0.00    +0.000 C 
ATOM     11  C   UNL     1       4.509   3.514  18.647  0.00  0.00    +0.000 C 
BRANCH   9  12
ATOM     12  C   UNL     1       5.385   5.083  15.288  0.00  0.00    +0.000 C 
BRANCH  12  13
ATOM     13  C   UNL     1       6.613   4.718  14.452  0.00  0.00    +0.000 C 
ATOM     14  O   UNL     1       7.704   5.274  14.523  0.00  0.00    +0.000 OA
BRANCH  13  15
ATOM     15  O   UNL     1       6.345   3.652  13.645  0.00  0.00    +0.000 OA
ATOM     16  C   UNL     1       6.785   3.829  12.296  0.00  0.00    +0.000 C 
ENDBRANCH  13  15
ENDBRANCH  12  13
ENDBRANCH   9  12
ENDBRANCH   4   6
ENDBRANCH   1   2
BRANCH   1  17
ATOM     17  O   UNL     1       1.702   7.307  21.175  0.00  0.00    +0.000 OA
BRANCH  17  21
ATOM     18  C   UNL     1       0.529  10.987  19.521  0.00  0.00    +0.000 A 
ATOM     19  C   UNL     1       1.210   9.983  18.831  0.00  0.00    +0.000 A 
ATOM     20  C   UNL     1       1.521   8.773  19.451  0.00  0.00    +0.000 A 
ATOM     21  C   UNL     1       1.246   8.544  20.805  0.00  0.00    +0.000 A 
ATOM     22  C   UNL     1       0.609   9.563  21.536  0.00  0.00    +0.000 A 
ATOM     23 CL   UNL     1       0.295   9.417  23.244  0.00  0.00    +0.000 Cl
ATOM     24  C   UNL     1       0.228  10.775  20.886  0.00  0.00    +0.000 A 
ATOM     25 CL   UNL     1      -0.655  11.979  21.796  0.00  0.00    +0.000 Cl
BRANCH  18  26
ATOM     26  C   UNL     1       0.262  12.291  18.838  0.00  0.00    +0.000 C 
ATOM     27  O   UNL     1      -0.801  12.431  18.237  0.00  0.00    +0.000 OA
BRANCH  26  29
ATOM     28  C   UNL     1       2.297  13.356  18.101  0.00  0.00    +0.000 C 
ATOM     29  C   UNL     1       1.236  13.456  18.930  0.00  0.00    +0.000 C 
BRANCH  29  30
ATOM     30  C   UNL     1       1.044  14.590  19.908  0.00  0.00    +0.000 C 
ATOM     31  C   UNL     1       1.871  14.541  21.191  0.00  0.00    +0.000 C 
ENDBRANCH  29  30
ENDBRANCH  26  29
ENDBRANCH  18  26
ENDBRANCH  17  21
ENDBRANCH   1  17
TORSDOF 10
ENDMDL
MODEL 4
REMARK VINA RESULT:      -6.6      5.422      8.822
REMARK  Name = 
REMARK  12 active torsions:
REMARK  status: ('A' for Active; 'I' for Inactive)
REMARK    1  A    between atoms: C_2  and  C_3
REMARK    2  A    between atoms: C_2  and  C_5
REMARK    3  A    between atoms: C_3  and  C_4
REMARK    4  A    between atoms: C_5  and  C_7
REMARK    5  A    between atoms: C_10  and  O_11
REMARK    6  A    between atoms: O_11  and  C_12
REMARK    7  A    between atoms: C_12  and  C_13
REMARK    8  A    between atoms: N_15  and  C_16
REMARK    9  A    between atoms: N_19  and  C_20
REMARK   10  A    between atoms: C_20  and  C_21
REMARK   11  A    between atoms: C_21  and  O_23
REMARK   12  A    between atoms: O_23  and  C_24
REMARK                            x       y       z     vdW  Elec       q    Type
REMARK                         _______ _______ _______ _____ _____    ______ ____
ROOT
ATOM      1  C   UNL     1       6.873   8.784  17.339  0.00  0.00    +0.000 C 
ENDROOT
BRANCH   1   2
ATOM      2  C   UNL     1       8.177   8.939  18.121  0.00  0.00    +0.000 C 
ATOM      3  O   UNL     1       8.715   8.002  18.706  0.00  0.00    +0.000 OA
ATOM      4  N   UNL     1       8.679  10.227  18.123  0.00  0.00    +0.000 N 
ATOM      5  H   UNL     1       8.331  10.851  17.404  0.00  0.00    +0.000 HD
BRANCH   4   6
ATOM      6  C   UNL     1       9.946  10.565  18.772  0.00  0.00    +0.000 C 
ATOM      7  C   UNL     1       9.718  11.073  20.198  0.00  0.00    +0.000 C 
ATOM      8  C   UNL     1       9.111  12.477  20.226  0.00  0.00    +0.000 C 
ATOM      9  N   UNL     1       9.877  13.426  19.413  0.00  0.00    +0.000 NA
ATOM     10  C   UNL     1      10.061  12.974  18.027  0.00  0.00    +0.000 C 
ATOM     11  C   UNL     1      10.734  11.602  17.971  0.00  0.00    +0.000 C 
BRANCH   9  12
ATOM     12  C   UNL     1       9.307  14.795  19.481  0.00  0.00    +0.000 C 
BRANCH  12  13
ATOM     13  C   UNL     1       9.240  15.512  18.132  0.00  0.00    +0.000 C 
ATOM     14  O   UNL     1       8.229  15.633  17.448  0.00  0.00    +0.000 OA
BRANCH  13  15
ATOM     15  O   UNL     1      10.453  16.044  17.809  0.00  0.00    +0.000 OA
ATOM     16  C   UNL     1      10.404  17.438  17.497  0.00  0.00    +0.000 C 
ENDBRANCH  13  15
ENDBRANCH  12  13
ENDBRANCH   9  12
ENDBRANCH   4   6
ENDBRANCH   1   2
BRANCH   1  17
ATOM     17  O   UNL     1       6.808   7.483  16.784  0.00  0.00    +0.000 OA
BRANCH  17  21
ATOM     18  C   UNL     1       3.333   5.346  17.792  0.00  0.00    +0.000 A 
ATOM     19  C   UNL     1       3.468   6.733  17.869  0.00  0.00    +0.000 A 
ATOM     20  C   UNL     1       4.648   7.362  17.471  0.00  0.00    +0.000 A 
ATOM     21  C   UNL     1       5.772   6.632  17.063  0.00  0.00    +0.000 A 
ATOM     22  C   UNL     1       5.679   5.229  17.030  0.00  0.00    +0.000 A 
ATOM     23 CL   UNL     1       7.040   4.222  16.618  0.00  0.00    +0.000 Cl
ATOM     24  C   UNL     1       4.450   4.588  17.371  0.00  0.00    +0.000 A 
ATOM     25 CL   UNL     1       4.334   2.850  17.219  0.00  0.00    +0.000 Cl
BRANCH  18  26
ATOM     26  C   UNL     1       2.073   4.706  18.279  0.00  0.00    +0.000 C 
ATOM     27  O   UNL     1       1.211   4.406  17.456  0.00  0.00    +0.000 OA
BRANCH  26  29
ATOM     28  C   UNL     1       1.396   5.380  20.494  0.00  0.00    +0.000 C 
ATOM     29  C   UNL     1       1.867   4.359  19.746  0.00  0.00    +0.000 C 
BRANCH  29  30
ATOM     30  C   UNL     1       2.214   3.003  20.310  0.00  0.00    +0.000 C 
ATOM     31  C   UNL     1       1.481   2.575  21.579  0.00  0.00    +0.000 C 
ENDBRANCH  29  30
ENDBRANCH  26  29
ENDBRANCH  18  26
ENDBRANCH  17  21
ENDBRANCH   1  17
TORSDOF 10
ENDMDL
MODEL 5
REMARK VINA RESULT:      -6.6      3.463      9.313
REMARK  Name = 
REMARK  12 active torsions:
REMARK  status: ('A' for Active; 'I' for Inactive)
REMARK    1  A    between atoms: C_2  and  C_3
REMARK    2  A    between atoms: C_2  and  C_5
REMARK    3  A    between atoms: C_3  and  C_4
REMARK    4  A    between atoms: C_5  and  C_7
REMARK    5  A    between atoms: C_10  and  O_11
REMARK    6  A    between atoms: O_11  and  C_12
REMARK    7  A    between atoms: C_12  and  C_13
REMARK    8  A    between atoms: N_15  and  C_16
REMARK    9  A    between atoms: N_19  and  C_20
REMARK   10  A    between atoms: C_20  and  C_21
REMARK   11  A    between atoms: C_21  and  O_23
REMARK   12  A    between atoms: O_23  and  C_24
REMARK                            x       y       z     vdW  Elec       q    Type
REMARK                         _______ _______ _______ _____ _____    ______ ____
ROOT
ATOM      1  C   UNL     1       1.733   9.261  18.190  0.00  0.00    +0.000 C 
ENDROOT
BRANCH   1   2
ATOM      2  C   UNL     1       1.797  10.786  18.120  0.00  0.00    +0.000 C 
ATOM      3  O   UNL     1       2.766  11.390  17.667  0.00  0.00    +0.000 OA
ATOM      4  N   UNL     1       0.678  11.417  18.631  0.00  0.00    +0.000 N 
ATOM      5  H   UNL     1      -0.160  10.854  18.720  0.00  0.00    +0.000 HD
BRANCH   4   6
ATOM      6  C   UNL     1       0.528  12.872  18.604  0.00  0.00    +0.000 C 
ATOM      7  C   UNL     1       1.449  13.541  19.628  0.00  0.00    +0.000 C 
ATOM      8  C   UNL     1       0.974  13.329  21.066  0.00  0.00    +0.000 C 
ATOM      9  N   UNL     1      -0.429  13.712  21.246  0.00  0.00    +0.000 NA
ATOM     10  C   UNL     1      -1.332  13.038  20.303  0.00  0.00    +0.000 C 
ATOM     11  C   UNL     1      -0.920  13.297  18.854  0.00  0.00    +0.000 C 
BRANCH   9  12
ATOM     12  C   UNL     1      -0.869  13.543  22.655  0.00  0.00    +0.000 C 
BRANCH  12  13
ATOM     13  C   UNL     1      -1.356  12.134  22.993  0.00  0.00    +0.000 C 
ATOM     14  O   UNL     1      -2.531  11.808  23.132  0.00  0.00    +0.000 OA
BRANCH  13  15
ATOM     15  O   UNL     1      -0.305  11.269  23.075  0.00  0.00    +0.000 OA
ATOM     16  C   UNL     1      -0.686   9.893  23.005  0.00  0.00    +0.000 C 
ENDBRANCH  13  15
ENDBRANCH  12  13
ENDBRANCH   9  12
ENDBRANCH   4   6
ENDBRANCH   1   2
BRANCH   1  17
ATOM     17  O   UNL     1       2.876   8.713  17.557  0.00  0.00    +0.000 OA
BRANCH  17  21
ATOM     18  C   UNL     1       3.781   4.777  18.718  0.00  0.00    +0.000 A 
ATOM     19  C   UNL     1       2.996   5.665  19.454  0.00  0.00    +0.000 A 
ATOM     20  C   UNL     1       2.711   6.942  18.968  0.00  0.00    +0.000 A 
ATOM     21  C   UNL     1       3.266   7.418  17.774  0.00  0.00    +0.000 A 
ATOM     22  C   UNL     1       4.106   6.559  17.041  0.00  0.00    +0.000 A 
ATOM     23 CL   UNL     1       4.914   7.077  15.587  0.00  0.00    +0.000 Cl
ATOM     24  C   UNL     1       4.342   5.229  17.502  0.00  0.00    +0.000 A 
ATOM     25 CL   UNL     1       5.305   4.153  16.516  0.00  0.00    +0.000 Cl
BRANCH  18  26
ATOM     26  C   UNL     1       4.107   3.438  19.298  0.00  0.00    +0.000 C 
ATOM     27  O   UNL     1       5.184   3.294  19.874  0.00  0.00    +0.000 OA
BRANCH  26  29
ATOM     28  C   UNL     1       3.413   1.339  18.333  0.00  0.00    +0.000 C 
ATOM     29  C   UNL     1       3.117   2.284  19.252  0.00  0.00    +0.000 C 
BRANCH  29  30
ATOM     30  C   UNL     1       1.888   2.241  20.127  0.00  0.00    +0.000 C 
ATOM     31  C   UNL     1       2.028   2.804  21.540  0.00  0.00    +0.000 C 
ENDBRANCH  29  30
ENDBRANCH  26  29
ENDBRANCH  18  26
ENDBRANCH  17  21
ENDBRANCH   1  17
TORSDOF 10
ENDMDL
MODEL 6
REMARK VINA RESULT:      -6.5      2.100      2.572
REMARK  Name = 
REMARK  12 active torsions:
REMARK  status: ('A' for Active; 'I' for Inactive)
REMARK    1  A    between atoms: C_2  and  C_3
REMARK    2  A    between atoms: C_2  and  C_5
REMARK    3  A    between atoms: C_3  and  C_4
REMARK    4  A    between atoms: C_5  and  C_7
REMARK    5  A    between atoms: C_10  and  O_11
REMARK    6  A    between atoms: O_11  and  C_12
REMARK    7  A    between atoms: C_12  and  C_13
REMARK    8  A    between atoms: N_15  and  C_16
REMARK    9  A    between atoms: N_19  and  C_20
REMARK   10  A    between atoms: C_20  and  C_21
REMARK   11  A    between atoms: C_21  and  O_23
REMARK   12  A    between atoms: O_23  and  C_24
REMARK                            x       y       z     vdW  Elec       q    Type
REMARK                         _______ _______ _______ _____ _____    ______ ____
ROOT
ATOM      1  C   UNL     1       1.883   6.751  21.173  0.00  0.00    +0.000 C 
ENDROOT
BRANCH   1   2
ATOM      2  C   UNL     1       2.004   5.414  20.443  0.00  0.00    +0.000 C 
ATOM      3  O   UNL     1       1.046   4.666  20.266  0.00  0.00    +0.000 OA
ATOM      4  N   UNL     1       3.288   5.120  20.022  0.00  0.00    +0.000 N 
ATOM      5  H   UNL     1       3.936   5.898  19.965  0.00  0.00    +0.000 HD
BRANCH   4   6
ATOM      6  C   UNL     1       3.597   3.911  19.259  0.00  0.00    +0.000 C 
ATOM      7  C   UNL     1       5.097   3.607  19.288  0.00  0.00    +0.000 C 
ATOM      8  C   UNL     1       5.906   4.583  18.431  0.00  0.00    +0.000 C 
ATOM      9  N   UNL     1       5.384   4.681  17.065  0.00  0.00    +0.000 NA
ATOM     10  C   UNL     1       3.956   5.022  17.021  0.00  0.00    +0.000 C 
ATOM     11  C   UNL     1       3.117   4.017  17.811  0.00  0.00    +0.000 C 
BRANCH   9  12
ATOM     12  C   UNL     1       6.201   5.597  16.228  0.00  0.00    +0.000 C 
BRANCH  12  13
ATOM     13  C   UNL     1       6.864   4.921  15.027  0.00  0.00    +0.000 C 
ATOM     14  O   UNL     1       7.927   5.266  14.522  0.00  0.00    +0.000 OA
BRANCH  13  15
ATOM     15  O   UNL     1       6.133   3.845  14.617  0.00  0.00    +0.000 OA
ATOM     16  C   UNL     1       5.953   3.778  13.201  0.00  0.00    +0.000 C 
ENDBRANCH  13  15
ENDBRANCH  12  13
ENDBRANCH   9  12
ENDBRANCH   4   6
ENDBRANCH   1   2
BRANCH   1  17
ATOM     17  O   UNL     1       2.093   7.809  20.255  0.00  0.00    +0.000 OA
BRANCH  17  21
ATOM     18  C   UNL     1      -0.714  10.697  19.056  0.00  0.00    +0.000 A 
ATOM     19  C   UNL     1       0.035   9.904  18.187  0.00  0.00    +0.000 A 
ATOM     20  C   UNL     1       0.915   8.938  18.676  0.00  0.00    +0.000 A 
ATOM     21  C   UNL     1       1.150   8.780  20.048  0.00  0.00    +0.000 A 
ATOM     22  C   UNL     1       0.446   9.606  20.943  0.00  0.00    +0.000 A 
ATOM     23 CL   UNL     1       0.722   9.551  22.663  0.00  0.00    +0.000 Cl
ATOM     24  C   UNL     1      -0.505  10.548  20.447  0.00  0.00    +0.000 A 
ATOM     25 CL   UNL     1      -1.440  11.486  21.589  0.00  0.00    +0.000 Cl
BRANCH  18  26
ATOM     26  C   UNL     1      -1.605  11.758  18.493  0.00  0.00    +0.000 C 
ATOM     27  O   UNL     1      -1.152  12.892  18.354  0.00  0.00    +0.000 OA
BRANCH  26  29
ATOM     28  C   UNL     1      -3.984  12.058  18.756  0.00  0.00    +0.000 C 
ATOM     29  C   UNL     1      -3.021  11.450  18.030  0.00  0.00    +0.000 C 
BRANCH  29  30
ATOM     30  C   UNL     1      -3.308  10.503  16.890  0.00  0.00    +0.000 C 
ATOM     31  C   UNL     1      -3.160  11.061  15.476  0.00  0.00    +0.000 C 
ENDBRANCH  29  30
ENDBRANCH  26  29
ENDBRANCH  18  26
ENDBRANCH  17  21
ENDBRANCH   1  17
TORSDOF 10
ENDMDL
MODEL 7
REMARK VINA RESULT:      -6.5      5.584      9.465
REMARK  Name = 
REMARK  12 active torsions:
REMARK  status: ('A' for Active; 'I' for Inactive)
REMARK    1  A    between atoms: C_2  and  C_3
REMARK    2  A    between atoms: C_2  and  C_5
REMARK    3  A    between atoms: C_3  and  C_4
REMARK    4  A    between atoms: C_5  and  C_7
REMARK    5  A    between atoms: C_10  and  O_11
REMARK    6  A    between atoms: O_11  and  C_12
REMARK    7  A    between atoms: C_12  and  C_13
REMARK    8  A    between atoms: N_15  and  C_16
REMARK    9  A    between atoms: N_19  and  C_20
REMARK   10  A    between atoms: C_20  and  C_21
REMARK   11  A    between atoms: C_21  and  O_23
REMARK   12  A    between atoms: O_23  and  C_24
REMARK                            x       y       z     vdW  Elec       q    Type
REMARK                         _______ _______ _______ _____ _____    ______ ____
ROOT
ATOM      1  C   UNL     1       7.515   8.734  17.310  0.00  0.00    +0.000 C 
ENDROOT
BRANCH   1   2
ATOM      2  C   UNL     1       8.579   9.230  18.288  0.00  0.00    +0.000 C 
ATOM      3  O   UNL     1       8.969   8.560  19.241  0.00  0.00    +0.000 OA
ATOM      4  N   UNL     1       9.044  10.503  18.011  0.00  0.00    +0.000 N 
ATOM      5  H   UNL     1       8.877  10.854  17.075  0.00  0.00    +0.000 HD
BRANCH   4   6
ATOM      6  C   UNL     1      10.102  11.131  18.802  0.00  0.00    +0.000 C 
ATOM      7  C   UNL     1       9.516  12.005  19.914  0.00  0.00    +0.000 C 
ATOM      8  C   UNL     1       8.894  13.294  19.374  0.00  0.00    +0.000 C 
ATOM      9  N   UNL     1       9.819  14.035  18.511  0.00  0.00    +0.000 NA
ATOM     10  C   UNL     1      10.351  13.222  17.410  0.00  0.00    +0.000 C 
ATOM     11  C   UNL     1      11.044  11.962  17.929  0.00  0.00    +0.000 C 
BRANCH   9  12
ATOM     12  C   UNL     1       9.223  15.306  18.028  0.00  0.00    +0.000 C 
BRANCH  12  13
ATOM     13  C   UNL     1       9.491  16.508  18.935  0.00  0.00    +0.000 C 
ATOM     14  O   UNL     1       8.808  16.827  19.903  0.00  0.00    +0.000 OA
BRANCH  13  15
ATOM     15  O   UNL     1      10.627  17.156  18.550  0.00  0.00    +0.000 OA
ATOM     16  C   UNL     1      10.853  17.129  17.139  0.00  0.00    +0.000 C 
ENDBRANCH  13  15
ENDBRANCH  12  13
ENDBRANCH   9  12
ENDBRANCH   4   6
ENDBRANCH   1   2
BRANCH   1  17
ATOM     17  O   UNL     1       7.694   7.347  17.082  0.00  0.00    +0.000 OA
BRANCH  17  21
ATOM     18  C   UNL     1       5.108   4.541  18.839  0.00  0.00    +0.000 A 
ATOM     19  C   UNL     1       6.160   5.177  19.498  0.00  0.00    +0.000 A 
ATOM     20  C   UNL     1       6.942   6.131  18.845  0.00  0.00    +0.000 A 
ATOM     21  C   UNL     1       6.766   6.426  17.487  0.00  0.00    +0.000 A 
ATOM     22  C   UNL     1       5.746   5.756  16.787  0.00  0.00    +0.000 A 
ATOM     23 CL   UNL     1       5.494   5.986  15.078  0.00  0.00    +0.000 Cl
ATOM     24  C   UNL     1       4.900   4.831  17.471  0.00  0.00    +0.000 A 
ATOM     25 CL   UNL     1       3.576   4.094  16.599  0.00  0.00    +0.000 Cl
BRANCH  18  26
ATOM     26  C   UNL     1       4.328   3.486  19.557  0.00  0.00    +0.000 C 
ATOM     27  O   UNL     1       4.888   2.426  19.830  0.00  0.00    +0.000 OA
BRANCH  26  29
ATOM     28  C   UNL     1       2.563   5.025  20.139  0.00  0.00    +0.000 C 
ATOM     29  C   UNL     1       2.896   3.721  20.013  0.00  0.00    +0.000 C 
BRANCH  29  30
ATOM     30  C   UNL     1       1.959   2.586  20.344  0.00  0.00    +0.000 C 
ATOM     31  C   UNL     1       1.488   2.480  21.794  0.00  0.00    +0.000 C 
ENDBRANCH  29  30
ENDBRANCH  26  29
ENDBRANCH  18  26
ENDBRANCH  17  21
ENDBRANCH   1  17
TORSDOF 10
ENDMDL
MODEL 8
REMARK VINA RESULT:      -6.5      2.111      2.698
REMARK  Name = 
REMARK  12 active torsions:
REMARK  status: ('A' for Active; 'I' for Inactive)
REMARK    1  A    between atoms: C_2  and  C_3
REMARK    2  A    between atoms: C_2  and  C_5
REMARK    3  A    between atoms: C_3  and  C_4
REMARK    4  A    between atoms: C_5  and  C_7
REMARK    5  A    between atoms: C_10  and  O_11
REMARK    6  A    between atoms: O_11  and  C_12
REMARK    7  A    between atoms: C_12  and  C_13
REMARK    8  A    between atoms: N_15  and  C_16
REMARK    9  A    between atoms: N_19  and  C_20
REMARK   10  A    between atoms: C_20  and  C_21
REMARK   11  A    between atoms: C_21  and  O_23
REMARK   12  A    between atoms: O_23  and  C_24
REMARK                            x       y       z     vdW  Elec       q    Type
REMARK                         _______ _______ _______ _____ _____    ______ ____
ROOT
ATOM      1  C   UNL     1       1.656   6.208  20.583  0.00  0.00    +0.000 C 
ENDROOT
BRANCH   1   2
ATOM      2  C   UNL     1       2.718   5.117  20.459  0.00  0.00    +0.000 C 
ATOM      3  O   UNL     1       2.593   4.007  20.971  0.00  0.00    +0.000 OA
ATOM      4  N   UNL     1       3.835   5.503  19.740  0.00  0.00    +0.000 N 
ATOM      5  H   UNL     1       3.731   6.312  19.139  0.00  0.00    +0.000 HD
BRANCH   4   6
ATOM      6  C   UNL     1       4.938   4.581  19.468  0.00  0.00    +0.000 C 
ATOM      7  C   UNL     1       6.200   5.339  19.048  0.00  0.00    +0.000 C 
ATOM      8  C   UNL     1       6.088   5.922  17.638  0.00  0.00    +0.000 C 
ATOM      9  N   UNL     1       5.692   4.912  16.653  0.00  0.00    +0.000 NA
ATOM     10  C   UNL     1       4.453   4.210  17.018  0.00  0.00    +0.000 C 
ATOM     11  C   UNL     1       4.567   3.556  18.395  0.00  0.00    +0.000 C 
BRANCH   9  12
ATOM     12  C   UNL     1       5.628   5.476  15.281  0.00  0.00    +0.000 C 
BRANCH  12  13
ATOM     13  C   UNL     1       6.544   4.777  14.275  0.00  0.00    +0.000 C 
ATOM     14  O   UNL     1       6.260   3.761  13.650  0.00  0.00    +0.000 OA
BRANCH  13  15
ATOM     15  O   UNL     1       7.711   5.467  14.129  0.00  0.00    +0.000 OA
ATOM     16  C   UNL     1       8.188   5.511  12.782  0.00  0.00    +0.000 C 
ENDBRANCH  13  15
ENDBRANCH  12  13
ENDBRANCH   9  12
ENDBRANCH   4   6
ENDBRANCH   1   2
BRANCH   1  17
ATOM     17  O   UNL     1       2.140   7.405  20.000  0.00  0.00    +0.000 OA
BRANCH  17  21
ATOM     18  C   UNL     1      -0.110  10.910  19.442  0.00  0.00    +0.000 A 
ATOM     19  C   UNL     1       0.383  10.106  18.414  0.00  0.00    +0.000 A 
ATOM     20  C   UNL     1       1.085   8.933  18.694  0.00  0.00    +0.000 A 
ATOM     21  C   UNL     1       1.401   8.558  20.006  0.00  0.00    +0.000 A 
ATOM     22  C   UNL     1       0.962   9.383  21.058  0.00  0.00    +0.000 A 
ATOM     23 CL   UNL     1       1.371   9.055  22.720  0.00  0.00    +0.000 Cl
ATOM     24  C   UNL     1       0.185  10.546  20.776  0.00  0.00    +0.000 A 
ATOM     25 CL   UNL     1      -0.433  11.492  22.110  0.00  0.00    +0.000 Cl
BRANCH  18  26
ATOM     26  C   UNL     1      -0.810  12.186  19.100  0.00  0.00    +0.000 C 
ATOM     27  O   UNL     1      -0.163  13.086  18.567  0.00  0.00    +0.000 OA
BRANCH  26  29
ATOM     28  C   UNL     1      -3.081  11.626  18.513  0.00  0.00    +0.000 C 
ATOM     29  C   UNL     1      -2.303  12.367  19.331  0.00  0.00    +0.000 C 
BRANCH  29  30
ATOM     30  C   UNL     1      -2.848  13.334  20.353  0.00  0.00    +0.000 C 
ATOM     31  C   UNL     1      -3.825  12.770  21.384  0.00  0.00    +0.000 C 
ENDBRANCH  29  30
ENDBRANCH  26  29
ENDBRANCH  18  26
ENDBRANCH  17  21
ENDBRANCH   1  17
TORSDOF 10
ENDMDL
MODEL 9
REMARK VINA RESULT:      -6.5      3.427      9.656
REMARK  Name = 
REMARK  12 active torsions:
REMARK  status: ('A' for Active; 'I' for Inactive)
REMARK    1  A    between atoms: C_2  and  C_3
REMARK    2  A    between atoms: C_2  and  C_5
REMARK    3  A    between atoms: C_3  and  C_4
REMARK    4  A    between atoms: C_5  and  C_7
REMARK    5  A    between atoms: C_10  and  O_11
REMARK    6  A    between atoms: O_11  and  C_12
REMARK    7  A    between atoms: C_12  and  C_13
REMARK    8  A    between atoms: N_15  and  C_16
REMARK    9  A    between atoms: N_19  and  C_20
REMARK   10  A    between atoms: C_20  and  C_21
REMARK   11  A    between atoms: C_21  and  O_23
REMARK   12  A    between atoms: O_23  and  C_24
REMARK                            x       y       z     vdW  Elec       q    Type
REMARK                         _______ _______ _______ _____ _____    ______ ____
ROOT
ATOM      1  C   UNL     1       1.028   7.826  21.385  0.00  0.00    +0.000 C 
ENDROOT
BRANCH   1   2
ATOM      2  C   UNL     1       1.176   9.282  21.825  0.00  0.00    +0.000 C 
ATOM      3  O   UNL     1       1.898   9.622  22.759  0.00  0.00    +0.000 OA
ATOM      4  N   UNL     1       0.409  10.169  21.092  0.00  0.00    +0.000 N 
ATOM      5  H   UNL     1       0.074   9.844  20.192  0.00  0.00    +0.000 HD
BRANCH   4   6
ATOM      6  C   UNL     1       0.454  11.612  21.328  0.00  0.00    +0.000 C 
ATOM      7  C   UNL     1      -0.548  12.027  22.408  0.00  0.00    +0.000 C 
ATOM      8  C   UNL     1      -1.994  11.962  21.917  0.00  0.00    +0.000 C 
ATOM      9  N   UNL     1      -2.187  12.701  20.665  0.00  0.00    +0.000 NA
ATOM     10  C   UNL     1      -1.264  12.277  19.603  0.00  0.00    +0.000 C 
ATOM     11  C   UNL     1       0.194  12.404  20.045  0.00  0.00    +0.000 C 
BRANCH   9  12
ATOM     12  C   UNL     1      -3.603  12.669  20.219  0.00  0.00    +0.000 C 
BRANCH  12  13
ATOM     13  C   UNL     1      -4.605  13.107  21.288  0.00  0.00    +0.000 C 
ATOM     14  O   UNL     1      -5.396  12.364  21.859  0.00  0.00    +0.000 OA
BRANCH  13  15
ATOM     15  O   UNL     1      -4.469  14.437  21.556  0.00  0.00    +0.000 OA
ATOM     16  C   UNL     1      -5.519  15.243  21.014  0.00  0.00    +0.000 C 
ENDBRANCH  13  15
ENDBRANCH  12  13
ENDBRANCH   9  12
ENDBRANCH   4   6
ENDBRANCH   1   2
BRANCH   1  17
ATOM     17  O   UNL     1       1.164   7.744  19.977  0.00  0.00    +0.000 OA
BRANCH  17  21
ATOM     18  C   UNL     1       4.432   6.230  17.813  0.00  0.00    +0.000 A 
ATOM     19  C   UNL     1       3.772   7.427  17.529  0.00  0.00    +0.000 A 
ATOM     20  C   UNL     1       2.721   7.873  18.330  0.00  0.00    +0.000 A 
ATOM     21  C   UNL     1       2.227   7.107  19.394  0.00  0.00    +0.000 A 
ATOM     22  C   UNL     1       2.841   5.871  19.666  0.00  0.00    +0.000 A 
ATOM     23 CL   UNL     1       2.254   4.802  20.911  0.00  0.00    +0.000 Cl
ATOM     24  C   UNL     1       3.961   5.445  18.890  0.00  0.00    +0.000 A 
ATOM     25 CL   UNL     1       4.767   3.954  19.319  0.00  0.00    +0.000 Cl
BRANCH  18  26
ATOM     26  C   UNL     1       5.517   5.760  16.898  0.00  0.00    +0.000 C 
ATOM     27  O   UNL     1       5.231   5.503  15.730  0.00  0.00    +0.000 OA
BRANCH  26  29
ATOM     28  C   UNL     1       7.594   4.535  16.960  0.00  0.00    +0.000 C 
ATOM     29  C   UNL     1       6.964   5.661  17.358  0.00  0.00    +0.000 C 
BRANCH  29  30
ATOM     30  C   UNL     1       7.607   6.714  18.227  0.00  0.00    +0.000 C 
ATOM     31  C   UNL     1       7.769   8.106  17.619  0.00  0.00    +0.000 C 
ENDBRANCH  29  30
ENDBRANCH  26  29
ENDBRANCH  18  26
ENDBRANCH  17  21
ENDBRANCH   1  17
TORSDOF 10
ENDMDL
