MODEL 1
REMARK VINA RESULT:      -9.1      0.000      0.000
REMARK  Name = 
REMARK  5 active torsions:
REMARK  status: ('A' for Active; 'I' for Inactive)
REMARK    1  A    between atoms: C_1  and  C_2
REMARK    2  A    between atoms: N_4  and  C_5
REMARK    3  A    between atoms: C_8  and  C_9
REMARK    4  A    between atoms: C_14  and  C_15
REMARK    5  A    between atoms: C_29  and  C_30
REMARK                            x       y       z     vdW  Elec       q    Type
REMARK                         _______ _______ _______ _____ _____    ______ ____
ROOT
ATOM      1  C   UNL     1       3.336   5.669  19.157  0.00  0.00    +0.000 A 
ATOM      2  C   UNL     1       2.356   6.508  19.816  0.00  0.00    +0.000 A 
ATOM      3  C   UNL     1       1.994   7.793  19.364  0.00  0.00    +0.000 A 
ATOM      4  C   UNL     1       2.592   8.194  18.160  0.00  0.00    +0.000 A 
ATOM      5  C   UNL     1       3.610   7.462  17.553  0.00  0.00    +0.000 A 
ATOM      6  C   UNL     1       4.027   6.201  18.016  0.00  0.00    +0.000 A 
ATOM      7  O   UNL     1       2.273   9.356  17.483  0.00  0.00    +0.000 OA
ATOM      8  C   UNL     1       0.992   9.851  17.849  0.00  0.00    +0.000 C 
ATOM      9  C   UNL     1       0.922   9.915  19.361  0.00  0.00    +0.000 C 
ATOM     10  N   UNL     1       0.729  11.074  19.913  0.00  0.00    +0.000 NA
ATOM     11  N   UNL     1       0.747  11.112  21.268  0.00  0.00    +0.000 N 
ATOM     12  C   UNL     1       0.691  10.013  22.092  0.00  0.00    +0.000 C 
ATOM     13  O   UNL     1       0.532  10.157  23.301  0.00  0.00    +0.000 OA
ATOM     14  C   UNL     1       0.728   8.623  21.426  0.00  0.00    +0.000 C 
ATOM     15  C   UNL     1      -0.689   8.046  21.551  0.00  0.00    +0.000 C 
ATOM     16  N   UNL     1       1.126   8.705  20.010  0.00  0.00    +0.000 N 
ATOM     17  H   UNL     1       0.700  12.033  21.695  0.00  0.00    +0.000 HD
ENDROOT
BRANCH   1  25
ATOM     18  C   UNL     1       2.651   4.193  22.003  0.00  0.00    +0.000 C 
ATOM     19  C   UNL     1       2.766   3.468  20.662  0.00  0.00    +0.000 C 
ATOM     20  C   UNL     1       1.434   2.998  20.062  0.00  0.00    +0.000 C 
ATOM     21  N   UNL     1       1.612   2.204  18.836  0.00  0.00    +0.000 NA
ATOM     22  C   UNL     1       0.313   1.943  18.210  0.00  0.00    +0.000 C 
ATOM     23  C   UNL     1       2.506   2.818  17.848  0.00  0.00    +0.000 C 
ATOM     24  C   UNL     1       3.838   3.244  18.450  0.00  0.00    +0.000 C 
ATOM     25  C   UNL     1       3.642   4.221  19.631  0.00  0.00    +0.000 C 
ENDBRANCH   1  25
BRANCH   6  26
ATOM     26  C   UNL     1       5.132   5.540  17.235  0.00  0.00    +0.000 A 
ATOM     27  C   UNL     1       4.979   5.084  15.912  0.00  0.00    +0.000 A 
ATOM     28  C   UNL     1       6.041   4.521  15.188  0.00  0.00    +0.000 A 
ATOM     29  C   UNL     1       7.266   4.296  15.800  0.00  0.00    +0.000 A 
ATOM     30  C   UNL     1       7.436   4.661  17.128  0.00  0.00    +0.000 A 
ATOM     31  C   UNL     1       6.398   5.296  17.814  0.00  0.00    +0.000 A 
ATOM     32  F   UNL     1       6.657   5.669  19.078  0.00  0.00    +0.000 F 
ENDBRANCH   6  26
TORSDOF 2
ENDMDL
MODEL 2
REMARK VINA RESULT:      -8.8      1.017      1.510
REMARK  Name = 
REMARK  5 active torsions:
REMARK  status: ('A' for Active; 'I' for Inactive)
REMARK    1  A    between atoms: C_1  and  C_2
REMARK    2  A    between atoms: N_4  and  C_5
REMARK    3  A    between atoms: C_8  and  C_9
REMARK    4  A    between atoms: C_14  and  C_15
REMARK    5  A    between atoms: C_29  and  C_30
REMARK                            x       y       z     vdW  Elec       q    Type
REMARK                         _______ _______ _______ _____ _____    ______ ____
ROOT
ATOM      1  C   UNL     1       3.207   5.574  18.198  0.00  0.00    +0.000 A 
ATOM      2  C   UNL     1       2.312   6.339  19.042  0.00  0.00    +0.000 A 
ATOM      3  C   UNL     1       2.121   7.731  18.924  0.00  0.00    +0.000 A 
ATOM      4  C   UNL     1       2.802   8.340  17.860  0.00  0.00    +0.000 A 
ATOM      5  C   UNL     1       3.746   7.660  17.093  0.00  0.00    +0.000 A 
ATOM      6  C   UNL     1       3.994   6.282  17.228  0.00  0.00    +0.000 A 
ATOM      7  O   UNL     1       2.648   9.663  17.494  0.00  0.00    +0.000 OA
ATOM      8  C   UNL     1       1.422  10.207  17.967  0.00  0.00    +0.000 C 
ATOM      9  C   UNL     1       1.310   9.903  19.447  0.00  0.00    +0.000 C 
ATOM     10  N   UNL     1       1.237  10.904  20.271  0.00  0.00    +0.000 NA
ATOM     11  N   UNL     1       1.214  10.604  21.592  0.00  0.00    +0.000 N 
ATOM     12  C   UNL     1       0.999   9.350  22.116  0.00  0.00    +0.000 C 
ATOM     13  O   UNL     1       0.818   9.210  23.322  0.00  0.00    +0.000 OA
ATOM     14  C   UNL     1       0.893   8.174  21.124  0.00  0.00    +0.000 C 
ATOM     15  C   UNL     1      -0.586   7.765  21.096  0.00  0.00    +0.000 C 
ATOM     16  N   UNL     1       1.346   8.555  19.774  0.00  0.00    +0.000 N 
ATOM     17  H   UNL     1       1.262  11.388  22.235  0.00  0.00    +0.000 HD
ENDROOT
BRANCH   1  25
ATOM     18  C   UNL     1       5.570   3.715  19.503  0.00  0.00    +0.000 C 
ATOM     19  C   UNL     1       4.098   3.310  19.427  0.00  0.00    +0.000 C 
ATOM     20  C   UNL     1       3.346   3.347  20.764  0.00  0.00    +0.000 C 
ATOM     21  N   UNL     1       1.971   2.834  20.656  0.00  0.00    +0.000 NA
ATOM     22  C   UNL     1       1.245   3.065  21.910  0.00  0.00    +0.000 C 
ATOM     23  C   UNL     1       1.202   3.407  19.545  0.00  0.00    +0.000 C 
ATOM     24  C   UNL     1       1.946   3.329  18.220  0.00  0.00    +0.000 C 
ATOM     25  C   UNL     1       3.322   4.028  18.296  0.00  0.00    +0.000 C 
ENDBRANCH   1  25
BRANCH   6  26
ATOM     26  C   UNL     1       5.039   5.704  16.310  0.00  0.00    +0.000 A 
ATOM     27  C   UNL     1       4.729   4.929  15.176  0.00  0.00    +0.000 A 
ATOM     28  C   UNL     1       5.720   4.448  14.307  0.00  0.00    +0.000 A 
ATOM     29  C   UNL     1       7.064   4.633  14.603  0.00  0.00    +0.000 A 
ATOM     30  C   UNL     1       7.414   5.326  15.753  0.00  0.00    +0.000 A 
ATOM     31  C   UNL     1       6.419   5.873  16.567  0.00  0.00    +0.000 A 
ATOM     32  F   UNL     1       6.836   6.576  17.632  0.00  0.00    +0.000 F 
ENDBRANCH   6  26
TORSDOF 2
ENDMDL
MODEL 3
REMARK VINA RESULT:      -8.1      0.841      1.194
REMARK  Name = 
REMARK  5 active torsions:
REMARK  status: ('A' for Active; 'I' for Inactive)
REMARK    1  A    between atoms: C_1  and  C_2
REMARK    2  A    between atoms: N_4  and  C_5
REMARK    3  A    between atoms: C_8  and  C_9
REMARK    4  A    between atoms: C_14  and  C_15
REMARK    5  A    between atoms: C_29  and  C_30
REMARK                            x       y       z     vdW  Elec       q    Type
REMARK                         _______ _______ _______ _____ _____    ______ ____
ROOT
ATOM      1  C   UNL     1       3.376   5.586  19.293  0.00  0.00    +0.000 A 
ATOM      2  C   UNL     1       2.375   6.445  19.892  0.00  0.00    +0.000 A 
ATOM      3  C   UNL     1       2.043   7.724  19.399  0.00  0.00    +0.000 A 
ATOM      4  C   UNL     1       2.696   8.096  18.214  0.00  0.00    +0.000 A 
ATOM      5  C   UNL     1       3.734   7.344  17.668  0.00  0.00    +0.000 A 
ATOM      6  C   UNL     1       4.120   6.090  18.173  0.00  0.00    +0.000 A 
ATOM      7  O   UNL     1       2.417   9.246  17.501  0.00  0.00    +0.000 OA
ATOM      8  C   UNL     1       1.124   9.757  17.800  0.00  0.00    +0.000 C 
ATOM      9  C   UNL     1       0.989   9.852  19.306  0.00  0.00    +0.000 C 
ATOM     10  N   UNL     1       0.781  11.023  19.826  0.00  0.00    +0.000 NA
ATOM     11  N   UNL     1       0.739  11.089  21.179  0.00  0.00    +0.000 N 
ATOM     12  C   UNL     1       0.638  10.007  22.022  0.00  0.00    +0.000 C 
ATOM     13  O   UNL     1       0.428  10.176  23.220  0.00  0.00    +0.000 OA
ATOM     14  C   UNL     1       0.694   8.603  21.386  0.00  0.00    +0.000 C 
ATOM     15  C   UNL     1      -0.732   8.039  21.459  0.00  0.00    +0.000 C 
ATOM     16  N   UNL     1       1.154   8.654  19.987  0.00  0.00    +0.000 N 
ATOM     17  H   UNL     1       0.681  12.018  21.586  0.00  0.00    +0.000 HD
ENDROOT
BRANCH   1  25
ATOM     18  C   UNL     1       2.566   4.176  22.139  0.00  0.00    +0.000 C 
ATOM     19  C   UNL     1       2.727   3.422  20.820  0.00  0.00    +0.000 C 
ATOM     20  C   UNL     1       1.415   2.952  20.177  0.00  0.00    +0.000 C 
ATOM     21  N   UNL     1       1.634   2.130  18.976  0.00  0.00    +0.000 NA
ATOM     22  C   UNL     1       0.357   1.867  18.304  0.00  0.00    +0.000 C 
ATOM     23  C   UNL     1       2.572   2.715  18.012  0.00  0.00    +0.000 C 
ATOM     24  C   UNL     1       3.882   3.142  18.657  0.00  0.00    +0.000 C 
ATOM     25  C   UNL     1       3.650   4.146  19.809  0.00  0.00    +0.000 C 
ENDBRANCH   1  25
BRANCH   6  26
ATOM     26  C   UNL     1       5.254   5.406  17.455  0.00  0.00    +0.000 A 
ATOM     27  C   UNL     1       6.583   5.420  17.918  0.00  0.00    +0.000 A 
ATOM     28  C   UNL     1       7.611   4.730  17.259  0.00  0.00    +0.000 A 
ATOM     29  C   UNL     1       7.365   4.090  16.051  0.00  0.00    +0.000 A 
ATOM     30  C   UNL     1       6.084   4.118  15.520  0.00  0.00    +0.000 A 
ATOM     31  C   UNL     1       5.050   4.737  16.227  0.00  0.00    +0.000 A 
ATOM     32  F   UNL     1       3.827   4.675  15.675  0.00  0.00    +0.000 F 
ENDBRANCH   6  26
TORSDOF 2
ENDMDL
MODEL 4
REMARK VINA RESULT:      -8.0      8.795      9.827
REMARK  Name = 
REMARK  5 active torsions:
REMARK  status: ('A' for Active; 'I' for Inactive)
REMARK    1  A    between atoms: C_1  and  C_2
REMARK    2  A    between atoms: N_4  and  C_5
REMARK    3  A    between atoms: C_8  and  C_9
REMARK    4  A    between atoms: C_14  and  C_15
REMARK    5  A    between atoms: C_29  and  C_30
REMARK                            x       y       z     vdW  Elec       q    Type
REMARK                         _______ _______ _______ _____ _____    ______ ____
ROOT
ATOM      1  C   UNL     1       8.202  14.413  20.298  0.00  0.00    +0.000 A 
ATOM      2  C   UNL     1       6.901  14.869  20.743  0.00  0.00    +0.000 A 
ATOM      3  C   UNL     1       5.852  15.220  19.868  0.00  0.00    +0.000 A 
ATOM      4  C   UNL     1       6.118  15.018  18.505  0.00  0.00    +0.000 A 
ATOM      5  C   UNL     1       7.385  14.678  18.035  0.00  0.00    +0.000 A 
ATOM      6  C   UNL     1       8.462  14.376  18.887  0.00  0.00    +0.000 A 
ATOM      7  O   UNL     1       5.183  15.174  17.500  0.00  0.00    +0.000 OA
ATOM      8  C   UNL     1       3.852  15.090  17.992  0.00  0.00    +0.000 C 
ATOM      9  C   UNL     1       3.725  16.026  19.177  0.00  0.00    +0.000 C 
ATOM     10  N   UNL     1       2.866  16.996  19.098  0.00  0.00    +0.000 NA
ATOM     11  N   UNL     1       2.829  17.861  20.140  0.00  0.00    +0.000 N 
ATOM     12  C   UNL     1       3.423  17.654  21.363  0.00  0.00    +0.000 C 
ATOM     13  O   UNL     1       3.183  18.411  22.300  0.00  0.00    +0.000 OA
ATOM     14  C   UNL     1       4.298  16.394  21.524  0.00  0.00    +0.000 C 
ATOM     15  C   UNL     1       3.504  15.428  22.414  0.00  0.00    +0.000 C 
ATOM     16  N   UNL     1       4.598  15.767  20.225  0.00  0.00    +0.000 N 
ATOM     17  H   UNL     1       2.232  18.676  20.031  0.00  0.00    +0.000 HD
ENDROOT
BRANCH   1  25
ATOM     18  C   UNL     1       9.636  16.028  22.764  0.00  0.00    +0.000 C 
ATOM     19  C   UNL     1       9.438  14.513  22.727  0.00  0.00    +0.000 C 
ATOM     20  C   UNL     1       8.350  13.979  23.669  0.00  0.00    +0.000 C 
ATOM     21  N   UNL     1       8.283  12.509  23.682  0.00  0.00    +0.000 NA
ATOM     22  C   UNL     1       7.114  12.063  24.448  0.00  0.00    +0.000 C 
ATOM     23  C   UNL     1       8.244  11.898  22.349  0.00  0.00    +0.000 C 
ATOM     24  C   UNL     1       9.351  12.410  21.439  0.00  0.00    +0.000 C 
ATOM     25  C   UNL     1       9.302  13.947  21.292  0.00  0.00    +0.000 C 
ENDBRANCH   1  25
BRANCH   6  26
ATOM     26  C   UNL     1       9.760  14.017  18.212  0.00  0.00    +0.000 A 
ATOM     27  C   UNL     1      10.729  14.968  17.842  0.00  0.00    +0.000 A 
ATOM     28  C   UNL     1      11.954  14.602  17.264  0.00  0.00    +0.000 A 
ATOM     29  C   UNL     1      12.207  13.277  16.935  0.00  0.00    +0.000 A 
ATOM     30  C   UNL     1      11.244  12.316  17.213  0.00  0.00    +0.000 A 
ATOM     31  C   UNL     1      10.064  12.680  17.865  0.00  0.00    +0.000 A 
ATOM     32  F   UNL     1       9.206  11.687  18.148  0.00  0.00    +0.000 F 
ENDBRANCH   6  26
TORSDOF 2
ENDMDL
MODEL 5
REMARK VINA RESULT:      -7.8      8.723     11.728
REMARK  Name = 
REMARK  5 active torsions:
REMARK  status: ('A' for Active; 'I' for Inactive)
REMARK    1  A    between atoms: C_1  and  C_2
REMARK    2  A    between atoms: N_4  and  C_5
REMARK    3  A    between atoms: C_8  and  C_9
REMARK    4  A    between atoms: C_14  and  C_15
REMARK    5  A    between atoms: C_29  and  C_30
REMARK                            x       y       z     vdW  Elec       q    Type
REMARK                         _______ _______ _______ _____ _____    ______ ____
ROOT
ATOM      1  C   UNL     1       7.618  13.869  22.544  0.00  0.00    +0.000 A 
ATOM      2  C   UNL     1       8.297  14.095  21.284  0.00  0.00    +0.000 A 
ATOM      3  C   UNL     1       9.023  13.101  20.596  0.00  0.00    +0.000 A 
ATOM      4  C   UNL     1       8.982  11.823  21.174  0.00  0.00    +0.000 A 
ATOM      5  C   UNL     1       8.427  11.591  22.430  0.00  0.00    +0.000 A 
ATOM      6  C   UNL     1       7.745  12.579  23.161  0.00  0.00    +0.000 A 
ATOM      7  O   UNL     1       9.515  10.689  20.591  0.00  0.00    +0.000 OA
ATOM      8  C   UNL     1       9.676  10.838  19.186  0.00  0.00    +0.000 C 
ATOM      9  C   UNL     1      10.415  12.135  18.928  0.00  0.00    +0.000 C 
ATOM     10  N   UNL     1      11.562  12.073  18.325  0.00  0.00    +0.000 NA
ATOM     11  N   UNL     1      12.234  13.241  18.176  0.00  0.00    +0.000 N 
ATOM     12  C   UNL     1      11.700  14.493  18.369  0.00  0.00    +0.000 C 
ATOM     13  O   UNL     1      12.333  15.491  18.036  0.00  0.00    +0.000 OA
ATOM     14  C   UNL     1      10.258  14.574  18.909  0.00  0.00    +0.000 C 
ATOM     15  C   UNL     1       9.382  15.033  17.736  0.00  0.00    +0.000 C 
ATOM     16  N   UNL     1       9.791  13.273  19.421  0.00  0.00    +0.000 N 
ATOM     17  H   UNL     1      13.175  13.176  17.798  0.00  0.00    +0.000 HD
ENDROOT
BRANCH   1  25
ATOM     18  C   UNL     1       8.498  16.734  23.871  0.00  0.00    +0.000 C 
ATOM     19  C   UNL     1       7.136  16.463  23.234  0.00  0.00    +0.000 C 
ATOM     20  C   UNL     1       6.915  17.128  21.869  0.00  0.00    +0.000 C 
ATOM     21  N   UNL     1       5.548  16.934  21.358  0.00  0.00    +0.000 NA
ATOM     22  C   UNL     1       5.450  17.426  19.980  0.00  0.00    +0.000 C 
ATOM     23  C   UNL     1       5.082  15.544  21.405  0.00  0.00    +0.000 C 
ATOM     24  C   UNL     1       5.273  14.910  22.775  0.00  0.00    +0.000 C 
ATOM     25  C   UNL     1       6.751  14.963  23.226  0.00  0.00    +0.000 C 
ENDBRANCH   1  25
BRANCH   6  26
ATOM     26  C   UNL     1       7.196  12.155  24.499  0.00  0.00    +0.000 A 
ATOM     27  C   UNL     1       6.021  11.394  24.646  0.00  0.00    +0.000 A 
ATOM     28  C   UNL     1       5.561  10.966  25.901  0.00  0.00    +0.000 A 
ATOM     29  C   UNL     1       6.203  11.377  27.061  0.00  0.00    +0.000 A 
ATOM     30  C   UNL     1       7.321  12.192  26.963  0.00  0.00    +0.000 A 
ATOM     31  C   UNL     1       7.819  12.544  25.706  0.00  0.00    +0.000 A 
ATOM     32  F   UNL     1       8.936  13.289  25.692  0.00  0.00    +0.000 F 
ENDBRANCH   6  26
TORSDOF 2
ENDMDL
MODEL 6
REMARK VINA RESULT:      -7.8      8.958      9.963
REMARK  Name = 
REMARK  5 active torsions:
REMARK  status: ('A' for Active; 'I' for Inactive)
REMARK    1  A    between atoms: C_1  and  C_2
REMARK    2  A    between atoms: N_4  and  C_5
REMARK    3  A    between atoms: C_8  and  C_9
REMARK    4  A    between atoms: C_14  and  C_15
REMARK    5  A    between atoms: C_29  and  C_30
REMARK                            x       y       z     vdW  Elec       q    Type
REMARK                         _______ _______ _______ _____ _____    ______ ____
ROOT
ATOM      1  C   UNL     1       8.197  14.406  20.318  0.00  0.00    +0.000 A 
ATOM      2  C   UNL     1       6.899  14.880  20.754  0.00  0.00    +0.000 A 
ATOM      3  C   UNL     1       5.851  15.217  19.873  0.00  0.00    +0.000 A 
ATOM      4  C   UNL     1       6.115  14.985  18.514  0.00  0.00    +0.000 A 
ATOM      5  C   UNL     1       7.379  14.628  18.051  0.00  0.00    +0.000 A 
ATOM      6  C   UNL     1       8.455  14.338  18.908  0.00  0.00    +0.000 A 
ATOM      7  O   UNL     1       5.180  15.125  17.507  0.00  0.00    +0.000 OA
ATOM      8  C   UNL     1       3.849  15.059  18.002  0.00  0.00    +0.000 C 
ATOM      9  C   UNL     1       3.729  16.021  19.167  0.00  0.00    +0.000 C 
ATOM     10  N   UNL     1       2.875  16.994  19.068  0.00  0.00    +0.000 NA
ATOM     11  N   UNL     1       2.844  17.882  20.091  0.00  0.00    +0.000 N 
ATOM     12  C   UNL     1       3.438  17.698  21.318  0.00  0.00    +0.000 C 
ATOM     13  O   UNL     1       3.204  18.476  22.239  0.00  0.00    +0.000 OA
ATOM     14  C   UNL     1       4.305  16.436  21.505  0.00  0.00    +0.000 C 
ATOM     15  C   UNL     1       3.507  15.494  22.416  0.00  0.00    +0.000 C 
ATOM     16  N   UNL     1       4.600  15.780  20.220  0.00  0.00    +0.000 N 
ATOM     17  H   UNL     1       2.251  18.697  19.965  0.00  0.00    +0.000 HD
ENDROOT
BRANCH   1  25
ATOM     18  C   UNL     1       9.620  16.055  22.768  0.00  0.00    +0.000 C 
ATOM     19  C   UNL     1       9.425  14.539  22.749  0.00  0.00    +0.000 C 
ATOM     20  C   UNL     1       8.336  14.014  23.694  0.00  0.00    +0.000 C 
ATOM     21  N   UNL     1       8.272  12.544  23.726  0.00  0.00    +0.000 NA
ATOM     22  C   UNL     1       7.103  12.105  24.493  0.00  0.00    +0.000 C 
ATOM     23  C   UNL     1       8.238  11.916  22.400  0.00  0.00    +0.000 C 
ATOM     24  C   UNL     1       9.347  12.420  21.487  0.00  0.00    +0.000 C 
ATOM     25  C   UNL     1       9.295  13.955  21.321  0.00  0.00    +0.000 C 
ENDBRANCH   1  25
BRANCH   6  26
ATOM     26  C   UNL     1       9.751  13.956  18.240  0.00  0.00    +0.000 A 
ATOM     27  C   UNL     1      10.082  12.632  17.894  0.00  0.00    +0.000 A 
ATOM     28  C   UNL     1      11.271  12.311  17.223  0.00  0.00    +0.000 A 
ATOM     29  C   UNL     1      12.222  13.290  16.971  0.00  0.00    +0.000 A 
ATOM     30  C   UNL     1      11.968  14.596  17.365  0.00  0.00    +0.000 A 
ATOM     31  C   UNL     1      10.745  14.920  17.957  0.00  0.00    +0.000 A 
ATOM     32  F   UNL     1      10.550  16.214  18.261  0.00  0.00    +0.000 F 
ENDBRANCH   6  26
TORSDOF 2
ENDMDL
MODEL 7
REMARK VINA RESULT:      -7.6      6.897     10.807
REMARK  Name = 
REMARK  5 active torsions:
REMARK  status: ('A' for Active; 'I' for Inactive)
REMARK    1  A    between atoms: C_1  and  C_2
REMARK    2  A    between atoms: N_4  and  C_5
REMARK    3  A    between atoms: C_8  and  C_9
REMARK    4  A    between atoms: C_14  and  C_15
REMARK    5  A    between atoms: C_29  and  C_30
REMARK                            x       y       z     vdW  Elec       q    Type
REMARK                         _______ _______ _______ _____ _____    ______ ____
ROOT
ATOM      1  C   UNL     1      -2.078  13.319  21.764  0.00  0.00    +0.000 A 
ATOM      2  C   UNL     1      -2.971  12.747  20.777  0.00  0.00    +0.000 A 
ATOM      3  C   UNL     1      -4.226  13.297  20.444  0.00  0.00    +0.000 A 
ATOM      4  C   UNL     1      -4.535  14.510  21.079  0.00  0.00    +0.000 A 
ATOM      5  C   UNL     1      -3.751  15.035  22.104  0.00  0.00    +0.000 A 
ATOM      6  C   UNL     1      -2.521  14.475  22.492  0.00  0.00    +0.000 A 
ATOM      7  O   UNL     1      -5.650  15.274  20.794  0.00  0.00    +0.000 OA
ATOM      8  C   UNL     1      -6.183  14.980  19.509  0.00  0.00    +0.000 C 
ATOM      9  C   UNL     1      -6.354  13.478  19.399  0.00  0.00    +0.000 C 
ATOM     10  N   UNL     1      -7.550  13.014  19.206  0.00  0.00    +0.000 NA
ATOM     11  N   UNL     1      -7.683  11.665  19.188  0.00  0.00    +0.000 N 
ATOM     12  C   UNL     1      -6.644  10.768  19.096  0.00  0.00    +0.000 C 
ATOM     13  O   UNL     1      -6.875   9.577  18.906  0.00  0.00    +0.000 OA
ATOM     14  C   UNL     1      -5.210  11.335  19.133  0.00  0.00    +0.000 C 
ATOM     15  C   UNL     1      -4.659  11.210  17.706  0.00  0.00    +0.000 C 
ATOM     16  N   UNL     1      -5.190  12.742  19.570  0.00  0.00    +0.000 N 
ATOM     17  H   UNL     1      -8.631  11.304  19.141  0.00  0.00    +0.000 HD
ENDROOT
BRANCH   1  25
ATOM     18  C   UNL     1      -1.196  10.533  23.249  0.00  0.00    +0.000 C 
ATOM     19  C   UNL     1      -0.383  11.219  22.152  0.00  0.00    +0.000 C 
ATOM     20  C   UNL     1      -0.415  10.517  20.787  0.00  0.00    +0.000 C 
ATOM     21  N   UNL     1       0.478  11.150  19.803  0.00  0.00    +0.000 NA
ATOM     22  C   UNL     1       0.268  10.559  18.477  0.00  0.00    +0.000 C 
ATOM     23  C   UNL     1       0.329  12.607  19.707  0.00  0.00    +0.000 C 
ATOM     24  C   UNL     1       0.401  13.291  21.065  0.00  0.00    +0.000 C 
ATOM     25  C   UNL     1      -0.663  12.737  22.039  0.00  0.00    +0.000 C 
ENDBRANCH   1  25
BRANCH   6  26
ATOM     26  C   UNL     1      -1.796  15.177  23.610  0.00  0.00    +0.000 A 
ATOM     27  C   UNL     1      -0.706  16.042  23.401  0.00  0.00    +0.000 A 
ATOM     28  C   UNL     1      -0.082  16.726  24.456  0.00  0.00    +0.000 A 
ATOM     29  C   UNL     1      -0.459  16.484  25.770  0.00  0.00    +0.000 A 
ATOM     30  C   UNL     1      -1.479  15.579  26.025  0.00  0.00    +0.000 A 
ATOM     31  C   UNL     1      -2.149  14.966  24.963  0.00  0.00    +0.000 A 
ATOM     32  F   UNL     1      -3.161  14.145  25.287  0.00  0.00    +0.000 F 
ENDBRANCH   6  26
TORSDOF 2
ENDMDL
MODEL 8
REMARK VINA RESULT:      -7.6      4.803      7.657
REMARK  Name = 
REMARK  5 active torsions:
REMARK  status: ('A' for Active; 'I' for Inactive)
REMARK    1  A    between atoms: C_1  and  C_2
REMARK    2  A    between atoms: N_4  and  C_5
REMARK    3  A    between atoms: C_8  and  C_9
REMARK    4  A    between atoms: C_14  and  C_15
REMARK    5  A    between atoms: C_29  and  C_30
REMARK                            x       y       z     vdW  Elec       q    Type
REMARK                         _______ _______ _______ _____ _____    ______ ____
ROOT
ATOM      1  C   UNL     1      -0.052  11.995  19.109  0.00  0.00    +0.000 A 
ATOM      2  C   UNL     1      -0.133  13.440  19.043  0.00  0.00    +0.000 A 
ATOM      3  C   UNL     1       0.966  14.273  18.750  0.00  0.00    +0.000 A 
ATOM      4  C   UNL     1       2.158  13.603  18.435  0.00  0.00    +0.000 A 
ATOM      5  C   UNL     1       2.300  12.225  18.586  0.00  0.00    +0.000 A 
ATOM      6  C   UNL     1       1.232  11.378  18.931  0.00  0.00    +0.000 A 
ATOM      7  O   UNL     1       3.308  14.228  17.994  0.00  0.00    +0.000 OA
ATOM      8  C   UNL     1       3.039  15.512  17.445  0.00  0.00    +0.000 C 
ATOM      9  C   UNL     1       2.194  16.284  18.437  0.00  0.00    +0.000 C 
ATOM     10  N   UNL     1       2.677  17.389  18.919  0.00  0.00    +0.000 NA
ATOM     11  N   UNL     1       1.932  18.018  19.860  0.00  0.00    +0.000 N 
ATOM     12  C   UNL     1       0.618  17.735  20.151  0.00  0.00    +0.000 C 
ATOM     13  O   UNL     1      -0.023  18.476  20.891  0.00  0.00    +0.000 OA
ATOM     14  C   UNL     1      -0.024  16.530  19.434  0.00  0.00    +0.000 C 
ATOM     15  C   UNL     1      -1.000  17.112  18.401  0.00  0.00    +0.000 C 
ATOM     16  N   UNL     1       0.985  15.688  18.768  0.00  0.00    +0.000 N 
ATOM     17  H   UNL     1       2.358  18.824  20.309  0.00  0.00    +0.000 HD
ENDROOT
BRANCH   1  25
ATOM     18  C   UNL     1      -3.018  12.786  20.262  0.00  0.00    +0.000 C 
ATOM     19  C   UNL     1      -2.752  11.648  19.277  0.00  0.00    +0.000 C 
ATOM     20  C   UNL     1      -3.205  11.919  17.835  0.00  0.00    +0.000 C 
ATOM     21  N   UNL     1      -3.036  10.749  16.958  0.00  0.00    +0.000 NA
ATOM     22  C   UNL     1      -3.308  11.119  15.566  0.00  0.00    +0.000 C 
ATOM     23  C   UNL     1      -1.711  10.125  17.039  0.00  0.00    +0.000 C 
ATOM     24  C   UNL     1      -1.292   9.829  18.472  0.00  0.00    +0.000 C 
ATOM     25  C   UNL     1      -1.304  11.104  19.344  0.00  0.00    +0.000 C 
ENDBRANCH   1  25
BRANCH   6  26
ATOM     26  C   UNL     1       1.558   9.911  19.040  0.00  0.00    +0.000 A 
ATOM     27  C   UNL     1       1.968   9.127  17.945  0.00  0.00    +0.000 A 
ATOM     28  C   UNL     1       2.318   7.775  18.085  0.00  0.00    +0.000 A 
ATOM     29  C   UNL     1       2.165   7.132  19.306  0.00  0.00    +0.000 A 
ATOM     30  C   UNL     1       1.689   7.851  20.393  0.00  0.00    +0.000 A 
ATOM     31  C   UNL     1       1.423   9.216  20.263  0.00  0.00    +0.000 A 
ATOM     32  F   UNL     1       1.018   9.855  21.373  0.00  0.00    +0.000 F 
ENDBRANCH   6  26
TORSDOF 2
ENDMDL
MODEL 9
REMARK VINA RESULT:      -7.6      5.656      9.084
REMARK  Name = 
REMARK  5 active torsions:
REMARK  status: ('A' for Active; 'I' for Inactive)
REMARK    1  A    between atoms: C_1  and  C_2
REMARK    2  A    between atoms: N_4  and  C_5
REMARK    3  A    between atoms: C_8  and  C_9
REMARK    4  A    between atoms: C_14  and  C_15
REMARK    5  A    between atoms: C_29  and  C_30
REMARK                            x       y       z     vdW  Elec       q    Type
REMARK                         _______ _______ _______ _____ _____    ______ ____
ROOT
ATOM      1  C   UNL     1      -1.761  11.920  20.477  0.00  0.00    +0.000 A 
ATOM      2  C   UNL     1      -3.020  12.638  20.453  0.00  0.00    +0.000 A 
ATOM      3  C   UNL     1      -4.019  12.436  19.479  0.00  0.00    +0.000 A 
ATOM      4  C   UNL     1      -3.755  11.413  18.555  0.00  0.00    +0.000 A 
ATOM      5  C   UNL     1      -2.520  10.773  18.485  0.00  0.00    +0.000 A 
ATOM      6  C   UNL     1      -1.487  10.997  19.413  0.00  0.00    +0.000 A 
ATOM      7  O   UNL     1      -4.658  10.971  17.607  0.00  0.00    +0.000 OA
ATOM      8  C   UNL     1      -5.997  11.299  17.953  0.00  0.00    +0.000 C 
ATOM      9  C   UNL     1      -6.051  12.775  18.293  0.00  0.00    +0.000 C 
ATOM     10  N   UNL     1      -6.813  13.538  17.572  0.00  0.00    +0.000 NA
ATOM     11  N   UNL     1      -6.783  14.864  17.850  0.00  0.00    +0.000 N 
ATOM     12  C   UNL     1      -6.228  15.425  18.977  0.00  0.00    +0.000 C 
ATOM     13  O   UNL     1      -6.408  16.614  19.226  0.00  0.00    +0.000 OA
ATOM     14  C   UNL     1      -5.478  14.485  19.942  0.00  0.00    +0.000 C 
ATOM     15  C   UNL     1      -6.371  14.336  21.181  0.00  0.00    +0.000 C 
ATOM     16  N   UNL     1      -5.221  13.168  19.334  0.00  0.00    +0.000 N 
ATOM     17  H   UNL     1      -7.300  15.471  17.220  0.00  0.00    +0.000 HD
ENDROOT
BRANCH   1  25
ATOM     18  C   UNL     1       0.955  13.752  20.584  0.00  0.00    +0.000 C 
ATOM     19  C   UNL     1       0.108  13.396  21.805  0.00  0.00    +0.000 C 
ATOM     20  C   UNL     1      -0.730  14.551  22.371  0.00  0.00    +0.000 C 
ATOM     21  N   UNL     1      -1.431  14.188  23.613  0.00  0.00    +0.000 NA
ATOM     22  C   UNL     1      -2.355  15.258  24.003  0.00  0.00    +0.000 C 
ATOM     23  C   UNL     1      -2.169  12.922  23.537  0.00  0.00    +0.000 C 
ATOM     24  C   UNL     1      -1.314  11.778  23.009  0.00  0.00    +0.000 C 
ATOM     25  C   UNL     1      -0.724  12.103  21.619  0.00  0.00    +0.000 C 
ENDBRANCH   1  25
BRANCH   6  26
ATOM     26  C   UNL     1      -0.220  10.211  19.196  0.00  0.00    +0.000 A 
ATOM     27  C   UNL     1       0.601  10.366  18.063  0.00  0.00    +0.000 A 
ATOM     28  C   UNL     1       1.805   9.660  17.912  0.00  0.00    +0.000 A 
ATOM     29  C   UNL     1       2.175   8.695  18.839  0.00  0.00    +0.000 A 
ATOM     30  C   UNL     1       1.354   8.458  19.931  0.00  0.00    +0.000 A 
ATOM     31  C   UNL     1       0.200   9.224  20.116  0.00  0.00    +0.000 A 
ATOM     32  F   UNL     1      -0.514   8.973  21.225  0.00  0.00    +0.000 F 
ENDBRANCH   6  26
TORSDOF 2
ENDMDL
