MODEL 1
REMARK VINA RESULT:      -8.3      0.000      0.000
REMARK  Name = 
REMARK  1 active torsions:
REMARK  status: ('A' for Active; 'I' for Inactive)
REMARK    1  A    between atoms: C_1  and  C_2
REMARK                            x       y       z     vdW  Elec       q    Type
REMARK                         _______ _______ _______ _____ _____    ______ ____
ROOT
ATOM      1  C   UNL     1       2.849   3.250  16.846  0.00  0.00    +0.000 C 
ATOM      2  C   UNL     1       4.055   3.173  17.868  0.00  0.00    +0.000 C 
ATOM      3  N   UNL     1       5.052   3.266  18.964  0.00  0.00    +0.000 NA
ATOM      4  C   UNL     1       5.367   4.743  19.106  0.00  0.00    +0.000 C 
ATOM      5  C   UNL     1       4.134   5.585  19.537  0.00  0.00    +0.000 C 
ATOM      6  C   UNL     1       3.038   4.608  19.875  0.00  0.00    +0.000 A 
ATOM      7  C   UNL     1       2.346   4.635  21.090  0.00  0.00    +0.000 A 
ATOM      8  C   UNL     1       1.615   3.520  21.515  0.00  0.00    +0.000 A 
ATOM      9  C   UNL     1       1.548   2.376  20.718  0.00  0.00    +0.000 A 
ATOM     10  C   UNL     1       2.219   2.348  19.501  0.00  0.00    +0.000 A 
ATOM     11  C   UNL     1       2.964   3.465  19.046  0.00  0.00    +0.000 A 
ATOM     12  C   UNL     1       5.735   4.999  17.694  0.00  0.00    +0.000 A 
ATOM     13  C   UNL     1       6.877   5.618  17.198  0.00  0.00    +0.000 A 
ATOM     14  C   UNL     1       7.297   5.284  15.913  0.00  0.00    +0.000 A 
ATOM     15  C   UNL     1       6.570   4.369  15.142  0.00  0.00    +0.000 A 
ATOM     16  C   UNL     1       5.411   3.776  15.654  0.00  0.00    +0.000 A 
ATOM     17  C   UNL     1       4.974   4.099  16.944  0.00  0.00    +0.000 A 
ATOM     18  H   UNL     1       5.904   2.784  18.683  0.00  0.00    +0.000 HD
ENDROOT
TORSDOF 0
ENDMDL
MODEL 2
REMARK VINA RESULT:      -7.9      1.234      1.337
REMARK  Name = 
REMARK  1 active torsions:
REMARK  status: ('A' for Active; 'I' for Inactive)
REMARK    1  A    between atoms: C_1  and  C_2
REMARK                            x       y       z     vdW  Elec       q    Type
REMARK                         _______ _______ _______ _____ _____    ______ ____
ROOT
ATOM      1  C   UNL     1       3.774   2.214  17.570  0.00  0.00    +0.000 C 
ATOM      2  C   UNL     1       4.384   3.470  18.314  0.00  0.00    +0.000 C 
ATOM      3  N   UNL     1       4.714   4.709  19.062  0.00  0.00    +0.000 NA
ATOM      4  C   UNL     1       3.929   5.818  18.385  0.00  0.00    +0.000 C 
ATOM      5  C   UNL     1       2.392   5.619  18.486  0.00  0.00    +0.000 C 
ATOM      6  C   UNL     1       2.165   4.458  19.420  0.00  0.00    +0.000 A 
ATOM      7  C   UNL     1       1.318   4.533  20.530  0.00  0.00    +0.000 A 
ATOM      8  C   UNL     1       1.413   3.590  21.560  0.00  0.00    +0.000 A 
ATOM      9  C   UNL     1       2.338   2.548  21.477  0.00  0.00    +0.000 A 
ATOM     10  C   UNL     1       3.172   2.457  20.369  0.00  0.00    +0.000 A 
ATOM     11  C   UNL     1       3.093   3.397  19.311  0.00  0.00    +0.000 A 
ATOM     12  C   UNL     1       4.419   5.586  17.005  0.00  0.00    +0.000 A 
ATOM     13  C   UNL     1       4.957   6.508  16.115  0.00  0.00    +0.000 A 
ATOM     14  C   UNL     1       5.833   6.040  15.138  0.00  0.00    +0.000 A 
ATOM     15  C   UNL     1       6.137   4.676  15.050  0.00  0.00    +0.000 A 
ATOM     16  C   UNL     1       5.566   3.764  15.943  0.00  0.00    +0.000 A 
ATOM     17  C   UNL     1       4.685   4.216  16.931  0.00  0.00    +0.000 A 
ATOM     18  H   UNL     1       5.706   4.910  18.955  0.00  0.00    +0.000 HD
ENDROOT
TORSDOF 0
ENDMDL
MODEL 3
REMARK VINA RESULT:      -7.9      0.605      5.453
REMARK  Name = 
REMARK  1 active torsions:
REMARK  status: ('A' for Active; 'I' for Inactive)
REMARK    1  A    between atoms: C_1  and  C_2
REMARK                            x       y       z     vdW  Elec       q    Type
REMARK                         _______ _______ _______ _____ _____    ______ ____
ROOT
ATOM      1  C   UNL     1       3.921   6.326  19.123  0.00  0.00    +0.000 C 
ATOM      2  C   UNL     1       4.498   4.854  19.182  0.00  0.00    +0.000 C 
ATOM      3  N   UNL     1       5.020   3.479  18.984  0.00  0.00    +0.000 NA
ATOM      4  C   UNL     1       3.960   2.751  18.177  0.00  0.00    +0.000 C 
ATOM      5  C   UNL     1       3.748   3.367  16.766  0.00  0.00    +0.000 C 
ATOM      6  C   UNL     1       4.830   4.396  16.574  0.00  0.00    +0.000 A 
ATOM      7  C   UNL     1       5.675   4.409  15.460  0.00  0.00    +0.000 A 
ATOM      8  C   UNL     1       6.877   5.127  15.488  0.00  0.00    +0.000 A 
ATOM      9  C   UNL     1       7.233   5.860  16.622  0.00  0.00    +0.000 A 
ATOM     10  C   UNL     1       6.390   5.866  17.727  0.00  0.00    +0.000 A 
ATOM     11  C   UNL     1       5.166   5.150  17.722  0.00  0.00    +0.000 A 
ATOM     12  C   UNL     1       2.812   3.029  19.071  0.00  0.00    +0.000 A 
ATOM     13  C   UNL     1       1.892   2.129  19.598  0.00  0.00    +0.000 A 
ATOM     14  C   UNL     1       1.265   2.462  20.797  0.00  0.00    +0.000 A 
ATOM     15  C   UNL     1       1.542   3.678  21.431  0.00  0.00    +0.000 A 
ATOM     16  C   UNL     1       2.454   4.577  20.870  0.00  0.00    +0.000 A 
ATOM     17  C   UNL     1       3.095   4.260  19.667  0.00  0.00    +0.000 A 
ATOM     18  H   UNL     1       5.103   3.019  19.889  0.00  0.00    +0.000 HD
ENDROOT
TORSDOF 0
ENDMDL
MODEL 4
REMARK VINA RESULT:      -7.8      0.983      5.092
REMARK  Name = 
REMARK  1 active torsions:
REMARK  status: ('A' for Active; 'I' for Inactive)
REMARK    1  A    between atoms: C_1  and  C_2
REMARK                            x       y       z     vdW  Elec       q    Type
REMARK                         _______ _______ _______ _____ _____    ______ ____
ROOT
ATOM      1  C   UNL     1       3.757   2.281  17.109  0.00  0.00    +0.000 C 
ATOM      2  C   UNL     1       3.497   3.831  17.300  0.00  0.00    +0.000 C 
ATOM      3  N   UNL     1       3.498   5.295  17.543  0.00  0.00    +0.000 NA
ATOM      4  C   UNL     1       4.029   5.475  18.953  0.00  0.00    +0.000 C 
ATOM      5  C   UNL     1       5.495   4.984  19.113  0.00  0.00    +0.000 C 
ATOM      6  C   UNL     1       5.997   4.658  17.731  0.00  0.00    +0.000 A 
ATOM      7  C   UNL     1       7.185   5.183  17.212  0.00  0.00    +0.000 A 
ATOM      8  C   UNL     1       7.429   5.161  15.834  0.00  0.00    +0.000 A 
ATOM      9  C   UNL     1       6.498   4.591  14.963  0.00  0.00    +0.000 A 
ATOM     10  C   UNL     1       5.322   4.052  15.473  0.00  0.00    +0.000 A 
ATOM     11  C   UNL     1       5.054   4.059  16.865  0.00  0.00    +0.000 A 
ATOM     12  C   UNL     1       3.074   4.572  19.637  0.00  0.00    +0.000 A 
ATOM     13  C   UNL     1       2.288   4.833  20.753  0.00  0.00    +0.000 A 
ATOM     14  C   UNL     1       1.107   4.112  20.905  0.00  0.00    +0.000 A 
ATOM     15  C   UNL     1       0.743   3.137  19.968  0.00  0.00    +0.000 A 
ATOM     16  C   UNL     1       1.561   2.876  18.864  0.00  0.00    +0.000 A 
ATOM     17  C   UNL     1       2.751   3.592  18.695  0.00  0.00    +0.000 A 
ATOM     18  H   UNL     1       2.540   5.639  17.517  0.00  0.00    +0.000 HD
ENDROOT
TORSDOF 0
ENDMDL
MODEL 5
REMARK VINA RESULT:      -7.6      1.411      2.207
REMARK  Name = 
REMARK  1 active torsions:
REMARK  status: ('A' for Active; 'I' for Inactive)
REMARK    1  A    between atoms: C_1  and  C_2
REMARK                            x       y       z     vdW  Elec       q    Type
REMARK                         _______ _______ _______ _____ _____    ______ ____
ROOT
ATOM      1  C   UNL     1       3.501   6.443  18.752  0.00  0.00    +0.000 C 
ATOM      2  C   UNL     1       3.130   5.144  17.927  0.00  0.00    +0.000 C 
ATOM      3  N   UNL     1       2.855   3.800  17.362  0.00  0.00    +0.000 NA
ATOM      4  C   UNL     1       4.151   3.023  17.504  0.00  0.00    +0.000 C 
ATOM      5  C   UNL     1       4.573   2.818  18.985  0.00  0.00    +0.000 C 
ATOM      6  C   UNL     1       3.426   3.301  19.834  0.00  0.00    +0.000 A 
ATOM      7  C   UNL     1       2.844   2.519  20.837  0.00  0.00    +0.000 A 
ATOM      8  C   UNL     1       1.578   2.839  21.342  0.00  0.00    +0.000 A 
ATOM      9  C   UNL     1       0.892   3.958  20.865  0.00  0.00    +0.000 A 
ATOM     10  C   UNL     1       1.472   4.750  19.881  0.00  0.00    +0.000 A 
ATOM     11  C   UNL     1       2.754   4.449  19.356  0.00  0.00    +0.000 A 
ATOM     12  C   UNL     1       5.034   3.993  16.815  0.00  0.00    +0.000 A 
ATOM     13  C   UNL     1       5.935   3.757  15.782  0.00  0.00    +0.000 A 
ATOM     14  C   UNL     1       6.241   4.813  14.928  0.00  0.00    +0.000 A 
ATOM     15  C   UNL     1       5.673   6.077  15.126  0.00  0.00    +0.000 A 
ATOM     16  C   UNL     1       4.786   6.296  16.185  0.00  0.00    +0.000 A 
ATOM     17  C   UNL     1       4.466   5.246  17.054  0.00  0.00    +0.000 A 
ATOM     18  H   UNL     1       2.645   3.891  16.370  0.00  0.00    +0.000 HD
ENDROOT
TORSDOF 0
ENDMDL
MODEL 6
REMARK VINA RESULT:      -7.6      0.978      2.460
REMARK  Name = 
REMARK  1 active torsions:
REMARK  status: ('A' for Active; 'I' for Inactive)
REMARK    1  A    between atoms: C_1  and  C_2
REMARK                            x       y       z     vdW  Elec       q    Type
REMARK                         _______ _______ _______ _____ _____    ______ ____
ROOT
ATOM      1  C   UNL     1       5.431   5.135  19.591  0.00  0.00    +0.000 C 
ATOM      2  C   UNL     1       4.383   5.129  18.405  0.00  0.00    +0.000 C 
ATOM      3  N   UNL     1       3.331   4.898  17.384  0.00  0.00    +0.000 NA
ATOM      4  C   UNL     1       3.668   3.563  16.745  0.00  0.00    +0.000 C 
ATOM      5  C   UNL     1       3.599   2.379  17.749  0.00  0.00    +0.000 C 
ATOM      6  C   UNL     1       3.013   2.925  19.025  0.00  0.00    +0.000 A 
ATOM      7  C   UNL     1       1.910   2.345  19.661  0.00  0.00    +0.000 A 
ATOM      8  C   UNL     1       1.178   3.068  20.610  0.00  0.00    +0.000 A 
ATOM      9  C   UNL     1       1.556   4.368  20.950  0.00  0.00    +0.000 A 
ATOM     10  C   UNL     1       2.661   4.944  20.335  0.00  0.00    +0.000 A 
ATOM     11  C   UNL     1       3.422   4.232  19.373  0.00  0.00    +0.000 A 
ATOM     12  C   UNL     1       5.066   3.877  16.368  0.00  0.00    +0.000 A 
ATOM     13  C   UNL     1       5.681   3.723  15.131  0.00  0.00    +0.000 A 
ATOM     14  C   UNL     1       6.762   4.547  14.830  0.00  0.00    +0.000 A 
ATOM     15  C   UNL     1       7.224   5.484  15.762  0.00  0.00    +0.000 A 
ATOM     16  C   UNL     1       6.603   5.606  17.010  0.00  0.00    +0.000 A 
ATOM     17  C   UNL     1       5.514   4.786  17.329  0.00  0.00    +0.000 A 
ATOM     18  H   UNL     1       3.395   5.619  16.668  0.00  0.00    +0.000 HD
ENDROOT
TORSDOF 0
ENDMDL
MODEL 7
REMARK VINA RESULT:      -7.3      1.603      5.272
REMARK  Name = 
REMARK  1 active torsions:
REMARK  status: ('A' for Active; 'I' for Inactive)
REMARK    1  A    between atoms: C_1  and  C_2
REMARK                            x       y       z     vdW  Elec       q    Type
REMARK                         _______ _______ _______ _____ _____    ______ ____
ROOT
ATOM      1  C   UNL     1       5.532   3.764  19.214  0.00  0.00    +0.000 C 
ATOM      2  C   UNL     1       4.195   3.668  18.374  0.00  0.00    +0.000 C 
ATOM      3  N   UNL     1       2.974   3.825  17.544  0.00  0.00    +0.000 NA
ATOM      4  C   UNL     1       2.177   4.940  18.196  0.00  0.00    +0.000 C 
ATOM      5  C   UNL     1       2.920   6.304  18.179  0.00  0.00    +0.000 C 
ATOM      6  C   UNL     1       4.146   6.120  17.322  0.00  0.00    +0.000 A 
ATOM      7  C   UNL     1       4.455   6.964  16.251  0.00  0.00    +0.000 A 
ATOM      8  C   UNL     1       5.370   6.561  15.271  0.00  0.00    +0.000 A 
ATOM      9  C   UNL     1       6.003   5.320  15.366  0.00  0.00    +0.000 A 
ATOM     10  C   UNL     1       5.713   4.483  16.437  0.00  0.00    +0.000 A 
ATOM     11  C   UNL     1       4.793   4.869  17.445  0.00  0.00    +0.000 A 
ATOM     12  C   UNL     1       2.123   4.365  19.561  0.00  0.00    +0.000 A 
ATOM     13  C   UNL     1       1.011   4.174  20.373  0.00  0.00    +0.000 A 
ATOM     14  C   UNL     1       1.066   3.164  21.331  0.00  0.00    +0.000 A 
ATOM     15  C   UNL     1       2.221   2.386  21.479  0.00  0.00    +0.000 A 
ATOM     16  C   UNL     1       3.336   2.612  20.665  0.00  0.00    +0.000 A 
ATOM     17  C   UNL     1       3.298   3.622  19.697  0.00  0.00    +0.000 A 
ATOM     18  H   UNL     1       2.424   2.970  17.592  0.00  0.00    +0.000 HD
ENDROOT
TORSDOF 0
ENDMDL
MODEL 8
REMARK VINA RESULT:      -7.3      1.821      2.261
REMARK  Name = 
REMARK  1 active torsions:
REMARK  status: ('A' for Active; 'I' for Inactive)
REMARK    1  A    between atoms: C_1  and  C_2
REMARK                            x       y       z     vdW  Elec       q    Type
REMARK                         _______ _______ _______ _____ _____    ______ ____
ROOT
ATOM      1  C   UNL     1       2.794   6.498  17.875  0.00  0.00    +0.000 C 
ATOM      2  C   UNL     1       3.695   5.213  17.673  0.00  0.00    +0.000 C 
ATOM      3  N   UNL     1       4.456   3.939  17.713  0.00  0.00    +0.000 NA
ATOM      4  C   UNL     1       5.271   3.989  18.993  0.00  0.00    +0.000 C 
ATOM      5  C   UNL     1       4.387   4.034  20.270  0.00  0.00    +0.000 C 
ATOM      6  C   UNL     1       2.966   3.810  19.823  0.00  0.00    +0.000 A 
ATOM      7  C   UNL     1       2.141   2.829  20.383  0.00  0.00    +0.000 A 
ATOM      8  C   UNL     1       0.986   2.406  19.714  0.00  0.00    +0.000 A 
ATOM      9  C   UNL     1       0.632   2.978  18.490  0.00  0.00    +0.000 A 
ATOM     10  C   UNL     1       1.438   3.965  17.936  0.00  0.00    +0.000 A 
ATOM     11  C   UNL     1       2.610   4.413  18.595  0.00  0.00    +0.000 A 
ATOM     12  C   UNL     1       5.938   5.289  18.746  0.00  0.00    +0.000 A 
ATOM     13  C   UNL     1       7.294   5.589  18.811  0.00  0.00    +0.000 A 
ATOM     14  C   UNL     1       7.767   6.649  18.043  0.00  0.00    +0.000 A 
ATOM     15  C   UNL     1       6.892   7.400  17.250  0.00  0.00    +0.000 A 
ATOM     16  C   UNL     1       5.527   7.094  17.217  0.00  0.00    +0.000 A 
ATOM     17  C   UNL     1       5.034   6.031  17.982  0.00  0.00    +0.000 A 
ATOM     18  H   UNL     1       5.100   3.910  16.926  0.00  0.00    +0.000 HD
ENDROOT
TORSDOF 0
ENDMDL
MODEL 9
REMARK VINA RESULT:      -7.3      1.311      5.359
REMARK  Name = 
REMARK  1 active torsions:
REMARK  status: ('A' for Active; 'I' for Inactive)
REMARK    1  A    between atoms: C_1  and  C_2
REMARK                            x       y       z     vdW  Elec       q    Type
REMARK                         _______ _______ _______ _____ _____    ______ ____
ROOT
ATOM      1  C   UNL     1       2.375   6.120  18.173  0.00  0.00    +0.000 C 
ATOM      2  C   UNL     1       3.703   5.467  18.732  0.00  0.00    +0.000 C 
ATOM      3  N   UNL     1       4.959   4.736  19.032  0.00  0.00    +0.000 NA
ATOM      4  C   UNL     1       4.645   3.269  18.802  0.00  0.00    +0.000 C 
ATOM      5  C   UNL     1       4.274   2.955  17.326  0.00  0.00    +0.000 C 
ATOM      6  C   UNL     1       4.545   4.209  16.535  0.00  0.00    +0.000 A 
ATOM      7  C   UNL     1       5.340   4.221  15.384  0.00  0.00    +0.000 A 
ATOM      8  C   UNL     1       5.864   5.425  14.897  0.00  0.00    +0.000 A 
ATOM      9  C   UNL     1       5.578   6.629  15.542  0.00  0.00    +0.000 A 
ATOM     10  C   UNL     1       4.775   6.627  16.676  0.00  0.00    +0.000 A 
ATOM     11  C   UNL     1       4.229   5.422  17.187  0.00  0.00    +0.000 A 
ATOM     12  C   UNL     1       3.461   3.184  19.690  0.00  0.00    +0.000 A 
ATOM     13  C   UNL     1       3.204   2.261  20.698  0.00  0.00    +0.000 A 
ATOM     14  C   UNL     1       2.367   2.649  21.742  0.00  0.00    +0.000 A 
ATOM     15  C   UNL     1       1.789   3.923  21.755  0.00  0.00    +0.000 A 
ATOM     16  C   UNL     1       2.045   4.827  20.719  0.00  0.00    +0.000 A 
ATOM     17  C   UNL     1       2.884   4.456  19.662  0.00  0.00    +0.000 A 
ATOM     18  H   UNL     1       5.193   4.862  20.015  0.00  0.00    +0.000 HD
ENDROOT
TORSDOF 0
ENDMDL
