MODEL 1
REMARK VINA RESULT:      -6.3      0.000      0.000
REMARK  Name = 
REMARK  26 active torsions:
REMARK  status: ('A' for Active; 'I' for Inactive)
REMARK    1  A    between atoms: C_1  and  C_2
REMARK    2  A    between atoms: C_2  and  C_3
REMARK    3  A    between atoms: C_3  and  C_4
REMARK    4  A    between atoms: C_4  and  C_5
REMARK    5  A    between atoms: C_5  and  C_6
REMARK    6  A    between atoms: C_8  and  O_9
REMARK    7  A    between atoms: C_11  and  O_12
REMARK    8  A    between atoms: O_12  and  C_13
REMARK    9  A    between atoms: C_13  and  C_14
REMARK   10  A    between atoms: C_14  and  C_15
REMARK   11  A    between atoms: C_15  and  C_16
REMARK   12  A    between atoms: C_16  and  C_17
REMARK   13  A    between atoms: C_17  and  C_18
REMARK   14  A    between atoms: C_18  and  C_19
REMARK   15  A    between atoms: C_19  and  C_20
REMARK   16  A    between atoms: C_20  and  C_21
REMARK   17  A    between atoms: C_21  and  C_22
REMARK   18  A    between atoms: C_22  and  C_23
REMARK   19  A    between atoms: C_23  and  C_24
REMARK   20  A    between atoms: C_24  and  C_25
REMARK   21  A    between atoms: C_25  and  C_26
REMARK   22  A    between atoms: C_26  and  C_27
REMARK   23  A    between atoms: C_27  and  C_28
REMARK   24  A    between atoms: N_30  and  C_31
REMARK   25  A    between atoms: C_31  and  C_32
REMARK   26  A    between atoms: C_32  and  O_33
REMARK                            x       y       z     vdW  Elec       q    Type
REMARK                         _______ _______ _______ _____ _____    ______ ____
ROOT
ATOM      1  C   UNL     1       0.849   3.217  20.454  0.00  0.00    +0.000 C 
ENDROOT
BRANCH   1   2
ATOM      2  C   UNL     1       1.989   4.050  21.023  0.00  0.00    +0.000 C 
BRANCH   2   3
ATOM      3  C   UNL     1       1.616   5.524  21.040  0.00  0.00    +0.000 C 
BRANCH   3   4
ATOM      4  C   UNL     1       2.342   6.267  19.928  0.00  0.00    +0.000 C 
BRANCH   4   5
ATOM      5  C   UNL     1       1.866   7.711  19.855  0.00  0.00    +0.000 C 
BRANCH   5   6
ATOM      6  C   UNL     1       1.392   8.189  21.220  0.00  0.00    +0.000 C 
BRANCH   6   7
ATOM      7  C   UNL     1       0.186   9.109  21.072  0.00  0.00    +0.000 C 
BRANCH   7   8
ATOM      8  C   UNL     1       0.508  10.270  20.142  0.00  0.00    +0.000 C 
BRANCH   8   9
ATOM      9  C   UNL     1       0.089  11.601  20.761  0.00  0.00    +0.000 C 
BRANCH   9  10
ATOM     10  C   UNL     1      -1.312  11.974  20.293  0.00  0.00    +0.000 C 
BRANCH  10  11
ATOM     11  C   UNL     1      -1.607  13.462  20.469  0.00  0.00    +0.000 C 
BRANCH  11  12
ATOM     12  C   UNL     1      -2.820  13.648  21.358  0.00  0.00    +0.000 C 
ATOM     13  O   UNL     1      -3.941  13.887  20.926  0.00  0.00    +0.000 OA
ATOM     14  N   UNL     1      -2.536  13.521  22.711  0.00  0.00    +0.000 N 
ATOM     15  H   UNL     1      -1.622  13.235  23.011  0.00  0.00    +0.000 HD
BRANCH  14  16
ATOM     16  C   UNL     1      -3.594  13.708  23.706  0.00  0.00    +0.000 C 
BRANCH  16  17
ATOM     17  C   UNL     1      -4.087  12.383  24.280  0.00  0.00    +0.000 C 
BRANCH  17  18
ATOM     18  O   UNL     1      -4.451  12.556  25.645  0.00  0.00    +0.000 OA
ATOM     19  H   UNL     1      -5.418  12.614  25.676  0.00  0.00    +0.000 HD
ENDBRANCH  17  18
ENDBRANCH  16  17
ENDBRANCH  14  16
ENDBRANCH  11  12
ENDBRANCH  10  11
ENDBRANCH   9  10
ENDBRANCH   8   9
ENDBRANCH   7   8
ENDBRANCH   6   7
ENDBRANCH   5   6
ENDBRANCH   4   5
ENDBRANCH   3   4
ENDBRANCH   2   3
ENDBRANCH   1   2
BRANCH   1  20
ATOM     20  C   UNL     1       1.296   2.510  19.190  0.00  0.00    +0.000 C 
BRANCH  20  21
ATOM     21  C   UNL     1       1.229   3.442  17.984  0.00  0.00    +0.000 C 
BRANCH  21  22
ATOM     22  C   UNL     1       2.604   3.628  17.350  0.00  0.00    +0.000 C 
BRANCH  22  23
ATOM     23  C   UNL     1       3.640   2.779  18.067  0.00  0.00    +0.000 C 
BRANCH  23  24
ATOM     24  O   UNL     1       4.543   3.620  18.771  0.00  0.00    +0.000 OA
BRANCH  24  29
ATOM     25  C   UNL     1       6.336   5.130  15.881  0.00  0.00    +0.000 A 
ATOM     26  C   UNL     1       7.232   5.942  16.587  0.00  0.00    +0.000 A 
ATOM     27  C   UNL     1       7.206   5.945  17.978  0.00  0.00    +0.000 A 
ATOM     28  C   UNL     1       6.298   5.156  18.681  0.00  0.00    +0.000 A 
ATOM     29  C   UNL     1       5.403   4.347  17.987  0.00  0.00    +0.000 A 
ATOM     30  C   UNL     1       5.428   4.336  16.592  0.00  0.00    +0.000 A 
BRANCH  27  31
ATOM     31  O   UNL     1       8.066   6.729  18.700  0.00  0.00    +0.000 OA
ATOM     32  H   UNL     1       8.966   6.572  18.369  0.00  0.00    +0.000 HD
ENDBRANCH  27  31
BRANCH  25  33
ATOM     33  C   UNL     1       6.316   5.117  14.375  0.00  0.00    +0.000 C 
BRANCH  33  34
ATOM     34  C   UNL     1       6.403   3.692  13.828  0.00  0.00    +0.000 C 
BRANCH  34  35
ATOM     35  C   UNL     1       6.212   3.680  12.317  0.00  0.00    +0.000 C 
BRANCH  35  37
ATOM     36  C   UNL     1       4.053   3.468  11.059  0.00  0.00    +0.000 C 
ATOM     37  C   UNL     1       5.078   2.743  11.913  0.00  0.00    +0.000 C 
ENDBRANCH  35  37
ENDBRANCH  34  35
ENDBRANCH  33  34
ENDBRANCH  25  33
ENDBRANCH  24  29
ENDBRANCH  23  24
ENDBRANCH  22  23
ENDBRANCH  21  22
ENDBRANCH  20  21
ENDBRANCH   1  20
TORSDOF 25
ENDMDL
MODEL 2
REMARK VINA RESULT:      -6.3      2.414      3.033
REMARK  Name = 
REMARK  26 active torsions:
REMARK  status: ('A' for Active; 'I' for Inactive)
REMARK    1  A    between atoms: C_1  and  C_2
REMARK    2  A    between atoms: C_2  and  C_3
REMARK    3  A    between atoms: C_3  and  C_4
REMARK    4  A    between atoms: C_4  and  C_5
REMARK    5  A    between atoms: C_5  and  C_6
REMARK    6  A    between atoms: C_8  and  O_9
REMARK    7  A    between atoms: C_11  and  O_12
REMARK    8  A    between atoms: O_12  and  C_13
REMARK    9  A    between atoms: C_13  and  C_14
REMARK   10  A    between atoms: C_14  and  C_15
REMARK   11  A    between atoms: C_15  and  C_16
REMARK   12  A    between atoms: C_16  and  C_17
REMARK   13  A    between atoms: C_17  and  C_18
REMARK   14  A    between atoms: C_18  and  C_19
REMARK   15  A    between atoms: C_19  and  C_20
REMARK   16  A    between atoms: C_20  and  C_21
REMARK   17  A    between atoms: C_21  and  C_22
REMARK   18  A    between atoms: C_22  and  C_23
REMARK   19  A    between atoms: C_23  and  C_24
REMARK   20  A    between atoms: C_24  and  C_25
REMARK   21  A    between atoms: C_25  and  C_26
REMARK   22  A    between atoms: C_26  and  C_27
REMARK   23  A    between atoms: C_27  and  C_28
REMARK   24  A    between atoms: N_30  and  C_31
REMARK   25  A    between atoms: C_31  and  C_32
REMARK   26  A    between atoms: C_32  and  O_33
REMARK                            x       y       z     vdW  Elec       q    Type
REMARK                         _______ _______ _______ _____ _____    ______ ____
ROOT
ATOM      1  C   UNL     1       1.863   5.342  18.095  0.00  0.00    +0.000 C 
ENDROOT
BRANCH   1   2
ATOM      2  C   UNL     1       2.317   5.967  19.408  0.00  0.00    +0.000 C 
BRANCH   2   3
ATOM      3  C   UNL     1       2.523   7.464  19.242  0.00  0.00    +0.000 C 
BRANCH   3   4
ATOM      4  C   UNL     1       1.706   7.984  18.067  0.00  0.00    +0.000 C 
BRANCH   4   5
ATOM      5  C   UNL     1       2.219   9.346  17.625  0.00  0.00    +0.000 C 
BRANCH   5   6
ATOM      6  C   UNL     1       1.615  10.451  18.480  0.00  0.00    +0.000 C 
BRANCH   6   7
ATOM      7  C   UNL     1       2.302  11.781  18.194  0.00  0.00    +0.000 C 
BRANCH   7   8
ATOM      8  C   UNL     1       1.610  12.913  18.940  0.00  0.00    +0.000 C 
BRANCH   8   9
ATOM      9  C   UNL     1       0.204  13.150  18.395  0.00  0.00    +0.000 C 
BRANCH   9  10
ATOM     10  C   UNL     1      -0.739  13.518  19.532  0.00  0.00    +0.000 C 
BRANCH  10  11
ATOM     11  C   UNL     1      -1.396  12.292  20.163  0.00  0.00    +0.000 C 
BRANCH  11  12
ATOM     12  C   UNL     1      -2.303  11.614  19.156  0.00  0.00    +0.000 C 
ATOM     13  O   UNL     1      -2.004  10.580  18.571  0.00  0.00    +0.000 OA
ATOM     14  N   UNL     1      -3.506  12.279  18.962  0.00  0.00    +0.000 N 
ATOM     15  H   UNL     1      -3.743  13.070  19.531  0.00  0.00    +0.000 HD
BRANCH  14  16
ATOM     16  C   UNL     1      -4.480  11.772  17.994  0.00  0.00    +0.000 C 
BRANCH  16  17
ATOM     17  C   UNL     1      -5.749  11.257  18.666  0.00  0.00    +0.000 C 
BRANCH  17  18
ATOM     18  O   UNL     1      -6.793  11.150  17.705  0.00  0.00    +0.000 OA
ATOM     19  H   UNL     1      -7.499  11.753  17.984  0.00  0.00    +0.000 HD
ENDBRANCH  17  18
ENDBRANCH  16  17
ENDBRANCH  14  16
ENDBRANCH  11  12
ENDBRANCH  10  11
ENDBRANCH   9  10
ENDBRANCH   8   9
ENDBRANCH   7   8
ENDBRANCH   6   7
ENDBRANCH   5   6
ENDBRANCH   4   5
ENDBRANCH   3   4
ENDBRANCH   2   3
ENDBRANCH   1   2
BRANCH   1  20
ATOM     20  C   UNL     1       1.470   3.894  18.312  0.00  0.00    +0.000 C 
BRANCH  20  21
ATOM     21  C   UNL     1       2.286   3.265  19.436  0.00  0.00    +0.000 C 
BRANCH  21  22
ATOM     22  C   UNL     1       3.162   2.129  18.916  0.00  0.00    +0.000 C 
BRANCH  22  23
ATOM     23  C   UNL     1       4.628   2.415  19.196  0.00  0.00    +0.000 C 
BRANCH  23  24
ATOM     24  O   UNL     1       4.786   3.777  19.568  0.00  0.00    +0.000 OA
BRANCH  24  29
ATOM     25  C   UNL     1       6.092   5.473  16.523  0.00  0.00    +0.000 A 
ATOM     26  C   UNL     1       7.135   6.196  17.114  0.00  0.00    +0.000 A 
ATOM     27  C   UNL     1       7.362   6.082  18.481  0.00  0.00    +0.000 A 
ATOM     28  C   UNL     1       6.562   5.263  19.276  0.00  0.00    +0.000 A 
ATOM     29  C   UNL     1       5.521   4.542  18.697  0.00  0.00    +0.000 A 
ATOM     30  C   UNL     1       5.292   4.649  17.326  0.00  0.00    +0.000 A 
BRANCH  27  31
ATOM     31  O   UNL     1       8.372   6.776  19.092  0.00  0.00    +0.000 OA
ATOM     32  H   UNL     1       8.045   7.671  19.288  0.00  0.00    +0.000 HD
ENDBRANCH  27  31
BRANCH  25  33
ATOM     33  C   UNL     1       5.799   5.588  15.051  0.00  0.00    +0.000 C 
BRANCH  33  34
ATOM     34  C   UNL     1       6.753   4.727  14.223  0.00  0.00    +0.000 C 
BRANCH  34  35
ATOM     35  C   UNL     1       6.039   3.496  13.681  0.00  0.00    +0.000 C 
BRANCH  35  37
ATOM     36  C   UNL     1       5.855   2.053  11.638  0.00  0.00    +0.000 C 
ATOM     37  C   UNL     1       6.078   3.463  12.157  0.00  0.00    +0.000 C 
ENDBRANCH  35  37
ENDBRANCH  34  35
ENDBRANCH  33  34
ENDBRANCH  25  33
ENDBRANCH  24  29
ENDBRANCH  23  24
ENDBRANCH  22  23
ENDBRANCH  21  22
ENDBRANCH  20  21
ENDBRANCH   1  20
TORSDOF 25
ENDMDL
MODEL 3
REMARK VINA RESULT:      -6.2      1.461      1.930
REMARK  Name = 
REMARK  26 active torsions:
REMARK  status: ('A' for Active; 'I' for Inactive)
REMARK    1  A    between atoms: C_1  and  C_2
REMARK    2  A    between atoms: C_2  and  C_3
REMARK    3  A    between atoms: C_3  and  C_4
REMARK    4  A    between atoms: C_4  and  C_5
REMARK    5  A    between atoms: C_5  and  C_6
REMARK    6  A    between atoms: C_8  and  O_9
REMARK    7  A    between atoms: C_11  and  O_12
REMARK    8  A    between atoms: O_12  and  C_13
REMARK    9  A    between atoms: C_13  and  C_14
REMARK   10  A    between atoms: C_14  and  C_15
REMARK   11  A    between atoms: C_15  and  C_16
REMARK   12  A    between atoms: C_16  and  C_17
REMARK   13  A    between atoms: C_17  and  C_18
REMARK   14  A    between atoms: C_18  and  C_19
REMARK   15  A    between atoms: C_19  and  C_20
REMARK   16  A    between atoms: C_20  and  C_21
REMARK   17  A    between atoms: C_21  and  C_22
REMARK   18  A    between atoms: C_22  and  C_23
REMARK   19  A    between atoms: C_23  and  C_24
REMARK   20  A    between atoms: C_24  and  C_25
REMARK   21  A    between atoms: C_25  and  C_26
REMARK   22  A    between atoms: C_26  and  C_27
REMARK   23  A    between atoms: C_27  and  C_28
REMARK   24  A    between atoms: N_30  and  C_31
REMARK   25  A    between atoms: C_31  and  C_32
REMARK   26  A    between atoms: C_32  and  O_33
REMARK                            x       y       z     vdW  Elec       q    Type
REMARK                         _______ _______ _______ _____ _____    ______ ____
ROOT
ATOM      1  C   UNL     1       1.174   2.473  18.579  0.00  0.00    +0.000 C 
ENDROOT
BRANCH   1   2
ATOM      2  C   UNL     1       1.097   2.827  20.059  0.00  0.00    +0.000 C 
BRANCH   2   3
ATOM      3  C   UNL     1       0.739   4.293  20.238  0.00  0.00    +0.000 C 
BRANCH   3   4
ATOM      4  C   UNL     1       1.953   5.171  19.969  0.00  0.00    +0.000 C 
BRANCH   4   5
ATOM      5  C   UNL     1       2.056   6.271  21.015  0.00  0.00    +0.000 C 
BRANCH   5   6
ATOM      6  C   UNL     1       1.384   7.544  20.523  0.00  0.00    +0.000 C 
BRANCH   6   7
ATOM      7  C   UNL     1       1.225   8.538  21.668  0.00  0.00    +0.000 C 
BRANCH   7   8
ATOM      8  C   UNL     1      -0.135   9.218  21.604  0.00  0.00    +0.000 C 
BRANCH   8   9
ATOM      9  C   UNL     1      -0.156  10.302  20.530  0.00  0.00    +0.000 C 
BRANCH   9  10
ATOM     10  C   UNL     1       0.010  11.673  21.171  0.00  0.00    +0.000 C 
BRANCH  10  11
ATOM     11  C   UNL     1      -0.887  11.857  22.393  0.00  0.00    +0.000 C 
BRANCH  11  12
ATOM     12  C   UNL     1      -2.226  12.429  21.972  0.00  0.00    +0.000 C 
ATOM     13  O   UNL     1      -2.435  12.904  20.863  0.00  0.00    +0.000 OA
ATOM     14  N   UNL     1      -3.192  12.361  22.966  0.00  0.00    +0.000 N 
ATOM     15  H   UNL     1      -2.999  11.880  23.826  0.00  0.00    +0.000 HD
BRANCH  14  16
ATOM     16  C   UNL     1      -4.531  12.903  22.730  0.00  0.00    +0.000 C 
BRANCH  16  17
ATOM     17  C   UNL     1      -5.359  12.974  24.010  0.00  0.00    +0.000 C 
BRANCH  17  18
ATOM     18  O   UNL     1      -5.203  11.769  24.751  0.00  0.00    +0.000 OA
ATOM     19  H   UNL     1      -6.067  11.558  25.137  0.00  0.00    +0.000 HD
ENDBRANCH  17  18
ENDBRANCH  16  17
ENDBRANCH  14  16
ENDBRANCH  11  12
ENDBRANCH  10  11
ENDBRANCH   9  10
ENDBRANCH   8   9
ENDBRANCH   7   8
ENDBRANCH   6   7
ENDBRANCH   5   6
ENDBRANCH   4   5
ENDBRANCH   3   4
ENDBRANCH   2   3
ENDBRANCH   1   2
BRANCH   1  20
ATOM     20  C   UNL     1       2.597   2.620  18.078  0.00  0.00    +0.000 C 
BRANCH  20  21
ATOM     21  C   UNL     1       3.488   1.506  18.616  0.00  0.00    +0.000 C 
BRANCH  21  22
ATOM     22  C   UNL     1       4.369   2.004  19.758  0.00  0.00    +0.000 C 
BRANCH  22  23
ATOM     23  C   UNL     1       4.694   3.477  19.578  0.00  0.00    +0.000 C 
BRANCH  23  24
ATOM     24  O   UNL     1       5.825   3.617  18.729  0.00  0.00    +0.000 OA
BRANCH  24  29
ATOM     25  C   UNL     1       5.981   5.239  15.383  0.00  0.00    +0.000 A 
ATOM     26  C   UNL     1       5.169   6.348  15.647  0.00  0.00    +0.000 A 
ATOM     27  C   UNL     1       4.619   6.511  16.914  0.00  0.00    +0.000 A 
ATOM     28  C   UNL     1       4.858   5.583  17.925  0.00  0.00    +0.000 A 
ATOM     29  C   UNL     1       5.663   4.476  17.671  0.00  0.00    +0.000 A 
ATOM     30  C   UNL     1       6.221   4.310  16.404  0.00  0.00    +0.000 A 
BRANCH  27  31
ATOM     31  O   UNL     1       3.818   7.582  17.206  0.00  0.00    +0.000 OA
ATOM     32  H   UNL     1       4.382   8.292  17.556  0.00  0.00    +0.000 HD
ENDBRANCH  27  31
BRANCH  25  33
ATOM     33  C   UNL     1       6.575   5.013  14.018  0.00  0.00    +0.000 C 
BRANCH  33  34
ATOM     34  C   UNL     1       6.332   3.584  13.532  0.00  0.00    +0.000 C 
BRANCH  34  35
ATOM     35  C   UNL     1       5.842   3.580  12.090  0.00  0.00    +0.000 C 
BRANCH  35  37
ATOM     36  C   UNL     1       6.745   1.466  11.085  0.00  0.00    +0.000 C 
ATOM     37  C   UNL     1       5.510   2.164  11.626  0.00  0.00    +0.000 C 
ENDBRANCH  35  37
ENDBRANCH  34  35
ENDBRANCH  33  34
ENDBRANCH  25  33
ENDBRANCH  24  29
ENDBRANCH  23  24
ENDBRANCH  22  23
ENDBRANCH  21  22
ENDBRANCH  20  21
ENDBRANCH   1  20
TORSDOF 25
ENDMDL
MODEL 4
REMARK VINA RESULT:      -6.1      3.298     10.736
REMARK  Name = 
REMARK  26 active torsions:
REMARK  status: ('A' for Active; 'I' for Inactive)
REMARK    1  A    between atoms: C_1  and  C_2
REMARK    2  A    between atoms: C_2  and  C_3
REMARK    3  A    between atoms: C_3  and  C_4
REMARK    4  A    between atoms: C_4  and  C_5
REMARK    5  A    between atoms: C_5  and  C_6
REMARK    6  A    between atoms: C_8  and  O_9
REMARK    7  A    between atoms: C_11  and  O_12
REMARK    8  A    between atoms: O_12  and  C_13
REMARK    9  A    between atoms: C_13  and  C_14
REMARK   10  A    between atoms: C_14  and  C_15
REMARK   11  A    between atoms: C_15  and  C_16
REMARK   12  A    between atoms: C_16  and  C_17
REMARK   13  A    between atoms: C_17  and  C_18
REMARK   14  A    between atoms: C_18  and  C_19
REMARK   15  A    between atoms: C_19  and  C_20
REMARK   16  A    between atoms: C_20  and  C_21
REMARK   17  A    between atoms: C_21  and  C_22
REMARK   18  A    between atoms: C_22  and  C_23
REMARK   19  A    between atoms: C_23  and  C_24
REMARK   20  A    between atoms: C_24  and  C_25
REMARK   21  A    between atoms: C_25  and  C_26
REMARK   22  A    between atoms: C_26  and  C_27
REMARK   23  A    between atoms: C_27  and  C_28
REMARK   24  A    between atoms: N_30  and  C_31
REMARK   25  A    between atoms: C_31  and  C_32
REMARK   26  A    between atoms: C_32  and  O_33
REMARK                            x       y       z     vdW  Elec       q    Type
REMARK                         _______ _______ _______ _____ _____    ______ ____
ROOT
ATOM      1  C   UNL     1       0.826   4.105  19.356  0.00  0.00    +0.000 C 
ENDROOT
BRANCH   1   2
ATOM      2  C   UNL     1       0.896   2.631  18.979  0.00  0.00    +0.000 C 
BRANCH   2   3
ATOM      3  C   UNL     1       2.081   1.963  19.658  0.00  0.00    +0.000 C 
BRANCH   3   4
ATOM      4  C   UNL     1       3.055   1.431  18.617  0.00  0.00    +0.000 C 
BRANCH   4   5
ATOM      5  C   UNL     1       3.003   2.280  17.355  0.00  0.00    +0.000 C 
BRANCH   5   6
ATOM      6  C   UNL     1       4.325   3.001  17.138  0.00  0.00    +0.000 C 
BRANCH   6   7
ATOM      7  C   UNL     1       4.396   4.254  18.003  0.00  0.00    +0.000 C 
BRANCH   7   8
ATOM      8  C   UNL     1       5.538   4.152  19.004  0.00  0.00    +0.000 C 
BRANCH   8   9
ATOM      9  C   UNL     1       6.125   5.528  19.307  0.00  0.00    +0.000 C 
BRANCH   9  10
ATOM     10  C   UNL     1       7.525   5.638  18.717  0.00  0.00    +0.000 C 
BRANCH  10  11
ATOM     11  C   UNL     1       7.652   6.797  17.731  0.00  0.00    +0.000 C 
BRANCH  11  12
ATOM     12  C   UNL     1       6.861   6.497  16.473  0.00  0.00    +0.000 C 
ATOM     13  O   UNL     1       5.755   6.970  16.246  0.00  0.00    +0.000 OA
ATOM     14  N   UNL     1       7.514   5.634  15.603  0.00  0.00    +0.000 N 
ATOM     15  H   UNL     1       8.457   5.346  15.791  0.00  0.00    +0.000 HD
BRANCH  14  16
ATOM     16  C   UNL     1       6.869   5.217  14.358  0.00  0.00    +0.000 C 
BRANCH  16  17
ATOM     17  C   UNL     1       6.294   3.806  14.450  0.00  0.00    +0.000 C 
BRANCH  17  18
ATOM     18  O   UNL     1       6.385   3.166  13.182  0.00  0.00    +0.000 OA
ATOM     19  H   UNL     1       7.276   3.336  12.841  0.00  0.00    +0.000 HD
ENDBRANCH  17  18
ENDBRANCH  16  17
ENDBRANCH  14  16
ENDBRANCH  11  12
ENDBRANCH  10  11
ENDBRANCH   9  10
ENDBRANCH   8   9
ENDBRANCH   7   8
ENDBRANCH   6   7
ENDBRANCH   5   6
ENDBRANCH   4   5
ENDBRANCH   3   4
ENDBRANCH   2   3
ENDBRANCH   1   2
BRANCH   1  20
ATOM     20  C   UNL     1       1.319   4.307  20.776  0.00  0.00    +0.000 C 
BRANCH  20  21
ATOM     21  C   UNL     1       2.518   5.248  20.814  0.00  0.00    +0.000 C 
BRANCH  21  22
ATOM     22  C   UNL     1       2.289   6.472  19.932  0.00  0.00    +0.000 C 
BRANCH  22  23
ATOM     23  C   UNL     1       1.515   7.537  20.689  0.00  0.00    +0.000 C 
BRANCH  23  24
ATOM     24  O   UNL     1       1.323   8.672  19.856  0.00  0.00    +0.000 OA
BRANCH  24  29
ATOM     25  C   UNL     1      -0.718  11.746  20.342  0.00  0.00    +0.000 A 
ATOM     26  C   UNL     1      -1.024  11.586  21.698  0.00  0.00    +0.000 A 
ATOM     27  C   UNL     1      -0.536  10.480  22.387  0.00  0.00    +0.000 A 
ATOM     28  C   UNL     1       0.249   9.524  21.745  0.00  0.00    +0.000 A 
ATOM     29  C   UNL     1       0.556   9.674  20.396  0.00  0.00    +0.000 A 
ATOM     30  C   UNL     1       0.073  10.784  19.702  0.00  0.00    +0.000 A 
BRANCH  27  31
ATOM     31  O   UNL     1      -0.817  10.291  23.713  0.00  0.00    +0.000 OA
ATOM     32  H   UNL     1      -0.062   9.830  24.118  0.00  0.00    +0.000 HD
ENDBRANCH  27  31
BRANCH  25  33
ATOM     33  C   UNL     1      -1.247  12.916  19.555  0.00  0.00    +0.000 C 
BRANCH  33  34
ATOM     34  C   UNL     1      -2.683  13.256  19.957  0.00  0.00    +0.000 C 
BRANCH  34  35
ATOM     35  C   UNL     1      -3.659  12.230  19.395  0.00  0.00    +0.000 C 
BRANCH  35  37
ATOM     36  C   UNL     1      -5.125  12.620  21.393  0.00  0.00    +0.000 C 
ATOM     37  C   UNL     1      -5.080  12.500  19.880  0.00  0.00    +0.000 C 
ENDBRANCH  35  37
ENDBRANCH  34  35
ENDBRANCH  33  34
ENDBRANCH  25  33
ENDBRANCH  24  29
ENDBRANCH  23  24
ENDBRANCH  22  23
ENDBRANCH  21  22
ENDBRANCH  20  21
ENDBRANCH   1  20
TORSDOF 25
ENDMDL
MODEL 5
REMARK VINA RESULT:      -6.0      3.262     11.630
REMARK  Name = 
REMARK  26 active torsions:
REMARK  status: ('A' for Active; 'I' for Inactive)
REMARK    1  A    between atoms: C_1  and  C_2
REMARK    2  A    between atoms: C_2  and  C_3
REMARK    3  A    between atoms: C_3  and  C_4
REMARK    4  A    between atoms: C_4  and  C_5
REMARK    5  A    between atoms: C_5  and  C_6
REMARK    6  A    between atoms: C_8  and  O_9
REMARK    7  A    between atoms: C_11  and  O_12
REMARK    8  A    between atoms: O_12  and  C_13
REMARK    9  A    between atoms: C_13  and  C_14
REMARK   10  A    between atoms: C_14  and  C_15
REMARK   11  A    between atoms: C_15  and  C_16
REMARK   12  A    between atoms: C_16  and  C_17
REMARK   13  A    between atoms: C_17  and  C_18
REMARK   14  A    between atoms: C_18  and  C_19
REMARK   15  A    between atoms: C_19  and  C_20
REMARK   16  A    between atoms: C_20  and  C_21
REMARK   17  A    between atoms: C_21  and  C_22
REMARK   18  A    between atoms: C_22  and  C_23
REMARK   19  A    between atoms: C_23  and  C_24
REMARK   20  A    between atoms: C_24  and  C_25
REMARK   21  A    between atoms: C_25  and  C_26
REMARK   22  A    between atoms: C_26  and  C_27
REMARK   23  A    between atoms: C_27  and  C_28
REMARK   24  A    between atoms: N_30  and  C_31
REMARK   25  A    between atoms: C_31  and  C_32
REMARK   26  A    between atoms: C_32  and  O_33
REMARK                            x       y       z     vdW  Elec       q    Type
REMARK                         _______ _______ _______ _____ _____    ______ ____
ROOT
ATOM      1  C   UNL     1       2.420   9.011  17.649  0.00  0.00    +0.000 C 
ENDROOT
BRANCH   1   2
ATOM      2  C   UNL     1       3.145   7.685  17.839  0.00  0.00    +0.000 C 
BRANCH   2   3
ATOM      3  C   UNL     1       2.190   6.628  18.369  0.00  0.00    +0.000 C 
BRANCH   3   4
ATOM      4  C   UNL     1       2.680   6.095  19.707  0.00  0.00    +0.000 C 
BRANCH   4   5
ATOM      5  C   UNL     1       1.580   5.301  20.399  0.00  0.00    +0.000 C 
BRANCH   5   6
ATOM      6  C   UNL     1       2.175   4.175  21.233  0.00  0.00    +0.000 C 
BRANCH   6   7
ATOM      7  C   UNL     1       1.585   2.834  20.813  0.00  0.00    +0.000 C 
BRANCH   7   8
ATOM      8  C   UNL     1       1.542   2.717  19.296  0.00  0.00    +0.000 C 
BRANCH   8   9
ATOM      9  C   UNL     1       2.714   1.888  18.778  0.00  0.00    +0.000 C 
BRANCH   9  10
ATOM     10  C   UNL     1       3.861   2.804  18.373  0.00  0.00    +0.000 C 
BRANCH  10  11
ATOM     11  C   UNL     1       3.635   3.452  17.009  0.00  0.00    +0.000 C 
BRANCH  11  12
ATOM     12  C   UNL     1       4.802   4.355  16.664  0.00  0.00    +0.000 C 
ATOM     13  O   UNL     1       5.141   4.607  15.514  0.00  0.00    +0.000 OA
ATOM     14  N   UNL     1       5.450   4.870  17.779  0.00  0.00    +0.000 N 
ATOM     15  H   UNL     1       5.079   4.709  18.697  0.00  0.00    +0.000 HD
BRANCH  14  16
ATOM     16  C   UNL     1       6.621   5.733  17.617  0.00  0.00    +0.000 C 
BRANCH  16  17
ATOM     17  C   UNL     1       7.680   5.475  18.684  0.00  0.00    +0.000 C 
BRANCH  17  18
ATOM     18  O   UNL     1       7.068   5.418  19.967  0.00  0.00    +0.000 OA
ATOM     19  H   UNL     1       6.647   4.548  20.043  0.00  0.00    +0.000 HD
ENDBRANCH  17  18
ENDBRANCH  16  17
ENDBRANCH  14  16
ENDBRANCH  11  12
ENDBRANCH  10  11
ENDBRANCH   9  10
ENDBRANCH   8   9
ENDBRANCH   7   8
ENDBRANCH   6   7
ENDBRANCH   5   6
ENDBRANCH   4   5
ENDBRANCH   3   4
ENDBRANCH   2   3
ENDBRANCH   1   2
BRANCH   1  20
ATOM     20  C   UNL     1       0.949   8.856  17.980  0.00  0.00    +0.000 C 
BRANCH  20  21
ATOM     21  C   UNL     1       0.357  10.168  18.486  0.00  0.00    +0.000 C 
BRANCH  21  22
ATOM     22  C   UNL     1      -1.031  10.412  17.901  0.00  0.00    +0.000 C 
BRANCH  22  23
ATOM     23  C   UNL     1      -1.834  11.333  18.803  0.00  0.00    +0.000 C 
BRANCH  23  24
ATOM     24  O   UNL     1      -1.076  11.648  19.963  0.00  0.00    +0.000 OA
BRANCH  24  29
ATOM     25  C   UNL     1      -3.760  12.968  22.177  0.00  0.00    +0.000 A 
ATOM     26  C   UNL     1      -2.959  13.661  23.092  0.00  0.00    +0.000 A 
ATOM     27  C   UNL     1      -1.578  13.667  22.929  0.00  0.00    +0.000 A 
ATOM     28  C   UNL     1      -0.977  12.987  21.872  0.00  0.00    +0.000 A 
ATOM     29  C   UNL     1      -1.766  12.294  20.958  0.00  0.00    +0.000 A 
ATOM     30  C   UNL     1      -3.152  12.289  21.114  0.00  0.00    +0.000 A 
BRANCH  27  31
ATOM     31  O   UNL     1      -0.764  14.332  23.806  0.00  0.00    +0.000 OA
ATOM     32  H   UNL     1      -0.562  15.205  23.427  0.00  0.00    +0.000 HD
ENDBRANCH  27  31
BRANCH  25  33
ATOM     33  C   UNL     1      -5.257  12.917  22.332  0.00  0.00    +0.000 C 
BRANCH  33  34
ATOM     34  C   UNL     1      -5.965  13.161  20.999  0.00  0.00    +0.000 C 
BRANCH  34  35
ATOM     35  C   UNL     1      -7.199  12.277  20.872  0.00  0.00    +0.000 C 
BRANCH  35  37
ATOM     36  C   UNL     1      -6.503  11.128  18.754  0.00  0.00    +0.000 C 
ATOM     37  C   UNL     1      -6.854  10.942  20.220  0.00  0.00    +0.000 C 
ENDBRANCH  35  37
ENDBRANCH  34  35
ENDBRANCH  33  34
ENDBRANCH  25  33
ENDBRANCH  24  29
ENDBRANCH  23  24
ENDBRANCH  22  23
ENDBRANCH  21  22
ENDBRANCH  20  21
ENDBRANCH   1  20
TORSDOF 25
ENDMDL
MODEL 6
REMARK VINA RESULT:      -6.0      3.555      5.653
REMARK  Name = 
REMARK  26 active torsions:
REMARK  status: ('A' for Active; 'I' for Inactive)
REMARK    1  A    between atoms: C_1  and  C_2
REMARK    2  A    between atoms: C_2  and  C_3
REMARK    3  A    between atoms: C_3  and  C_4
REMARK    4  A    between atoms: C_4  and  C_5
REMARK    5  A    between atoms: C_5  and  C_6
REMARK    6  A    between atoms: C_8  and  O_9
REMARK    7  A    between atoms: C_11  and  O_12
REMARK    8  A    between atoms: O_12  and  C_13
REMARK    9  A    between atoms: C_13  and  C_14
REMARK   10  A    between atoms: C_14  and  C_15
REMARK   11  A    between atoms: C_15  and  C_16
REMARK   12  A    between atoms: C_16  and  C_17
REMARK   13  A    between atoms: C_17  and  C_18
REMARK   14  A    between atoms: C_18  and  C_19
REMARK   15  A    between atoms: C_19  and  C_20
REMARK   16  A    between atoms: C_20  and  C_21
REMARK   17  A    between atoms: C_21  and  C_22
REMARK   18  A    between atoms: C_22  and  C_23
REMARK   19  A    between atoms: C_23  and  C_24
REMARK   20  A    between atoms: C_24  and  C_25
REMARK   21  A    between atoms: C_25  and  C_26
REMARK   22  A    between atoms: C_26  and  C_27
REMARK   23  A    between atoms: C_27  and  C_28
REMARK   24  A    between atoms: N_30  and  C_31
REMARK   25  A    between atoms: C_31  and  C_32
REMARK   26  A    between atoms: C_32  and  O_33
REMARK                            x       y       z     vdW  Elec       q    Type
REMARK                         _______ _______ _______ _____ _____    ______ ____
ROOT
ATOM      1  C   UNL     1       2.432   5.307  20.897  0.00  0.00    +0.000 C 
ENDROOT
BRANCH   1   2
ATOM      2  C   UNL     1       1.169   6.152  20.803  0.00  0.00    +0.000 C 
BRANCH   2   3
ATOM      3  C   UNL     1       1.472   7.602  21.143  0.00  0.00    +0.000 C 
BRANCH   3   4
ATOM      4  C   UNL     1       0.199   8.326  21.558  0.00  0.00    +0.000 C 
BRANCH   4   5
ATOM      5  C   UNL     1       0.519   9.440  22.545  0.00  0.00    +0.000 C 
BRANCH   5   6
ATOM      6  C   UNL     1      -0.747  10.189  22.937  0.00  0.00    +0.000 C 
BRANCH   6   7
ATOM      7  C   UNL     1      -0.876  11.475  22.130  0.00  0.00    +0.000 C 
BRANCH   7   8
ATOM      8  C   UNL     1      -1.167  12.656  23.044  0.00  0.00    +0.000 C 
BRANCH   8   9
ATOM      9  C   UNL     1      -0.659  13.960  22.433  0.00  0.00    +0.000 C 
BRANCH   9  10
ATOM     10  C   UNL     1       0.547  13.682  21.545  0.00  0.00    +0.000 C 
BRANCH  10  11
ATOM     11  C   UNL     1       1.097  14.951  20.897  0.00  0.00    +0.000 C 
BRANCH  11  12
ATOM     12  C   UNL     1       2.474  15.260  21.448  0.00  0.00    +0.000 C 
ATOM     13  O   UNL     1       2.862  14.875  22.544  0.00  0.00    +0.000 OA
ATOM     14  N   UNL     1       3.254  16.021  20.588  0.00  0.00    +0.000 N 
ATOM     15  H   UNL     1       2.926  16.234  19.664  0.00  0.00    +0.000 HD
BRANCH  14  16
ATOM     16  C   UNL     1       4.600  16.435  20.987  0.00  0.00    +0.000 C 
BRANCH  16  17
ATOM     17  C   UNL     1       5.373  17.073  19.836  0.00  0.00    +0.000 C 
BRANCH  17  18
ATOM     18  O   UNL     1       5.545  18.463  20.084  0.00  0.00    +0.000 OA
ATOM     19  H   UNL     1       5.724  18.564  21.031  0.00  0.00    +0.000 HD
ENDBRANCH  17  18
ENDBRANCH  16  17
ENDBRANCH  14  16
ENDBRANCH  11  12
ENDBRANCH  10  11
ENDBRANCH   9  10
ENDBRANCH   8   9
ENDBRANCH   7   8
ENDBRANCH   6   7
ENDBRANCH   5   6
ENDBRANCH   4   5
ENDBRANCH   3   4
ENDBRANCH   2   3
ENDBRANCH   1   2
BRANCH   1  20
ATOM     20  C   UNL     1       2.077   3.833  20.917  0.00  0.00    +0.000 C 
BRANCH  20  21
ATOM     21  C   UNL     1       0.864   3.548  20.037  0.00  0.00    +0.000 C 
BRANCH  21  22
ATOM     22  C   UNL     1       1.112   2.352  19.122  0.00  0.00    +0.000 C 
BRANCH  22  23
ATOM     23  C   UNL     1       2.556   2.332  18.652  0.00  0.00    +0.000 C 
BRANCH  23  24
ATOM     24  O   UNL     1       2.666   3.023  17.415  0.00  0.00    +0.000 OA
BRANCH  24  29
ATOM     25  C   UNL     1       3.774   6.569  17.635  0.00  0.00    +0.000 A 
ATOM     26  C   UNL     1       5.154   6.368  17.517  0.00  0.00    +0.000 A 
ATOM     27  C   UNL     1       5.650   5.077  17.362  0.00  0.00    +0.000 A 
ATOM     28  C   UNL     1       4.793   3.979  17.328  0.00  0.00    +0.000 A 
ATOM     29  C   UNL     1       3.420   4.169  17.447  0.00  0.00    +0.000 A 
ATOM     30  C   UNL     1       2.917   5.462  17.598  0.00  0.00    +0.000 A 
BRANCH  27  31
ATOM     31  O   UNL     1       6.994   4.844  17.246  0.00  0.00    +0.000 OA
ATOM     32  H   UNL     1       7.202   4.035  17.744  0.00  0.00    +0.000 HD
ENDBRANCH  27  31
BRANCH  25  33
ATOM     33  C   UNL     1       3.200   7.947  17.829  0.00  0.00    +0.000 C 
BRANCH  33  34
ATOM     34  C   UNL     1       1.687   7.957  17.612  0.00  0.00    +0.000 C 
BRANCH  34  35
ATOM     35  C   UNL     1       1.096   9.313  17.978  0.00  0.00    +0.000 C 
BRANCH  35  37
ATOM     36  C   UNL     1       1.620  11.674  18.642  0.00  0.00    +0.000 C 
ATOM     37  C   UNL     1       2.187  10.372  18.105  0.00  0.00    +0.000 C 
ENDBRANCH  35  37
ENDBRANCH  34  35
ENDBRANCH  33  34
ENDBRANCH  25  33
ENDBRANCH  24  29
ENDBRANCH  23  24
ENDBRANCH  22  23
ENDBRANCH  21  22
ENDBRANCH  20  21
ENDBRANCH   1  20
TORSDOF 25
ENDMDL
MODEL 7
REMARK VINA RESULT:      -6.0      3.480     11.636
REMARK  Name = 
REMARK  26 active torsions:
REMARK  status: ('A' for Active; 'I' for Inactive)
REMARK    1  A    between atoms: C_1  and  C_2
REMARK    2  A    between atoms: C_2  and  C_3
REMARK    3  A    between atoms: C_3  and  C_4
REMARK    4  A    between atoms: C_4  and  C_5
REMARK    5  A    between atoms: C_5  and  C_6
REMARK    6  A    between atoms: C_8  and  O_9
REMARK    7  A    between atoms: C_11  and  O_12
REMARK    8  A    between atoms: O_12  and  C_13
REMARK    9  A    between atoms: C_13  and  C_14
REMARK   10  A    between atoms: C_14  and  C_15
REMARK   11  A    between atoms: C_15  and  C_16
REMARK   12  A    between atoms: C_16  and  C_17
REMARK   13  A    between atoms: C_17  and  C_18
REMARK   14  A    between atoms: C_18  and  C_19
REMARK   15  A    between atoms: C_19  and  C_20
REMARK   16  A    between atoms: C_20  and  C_21
REMARK   17  A    between atoms: C_21  and  C_22
REMARK   18  A    between atoms: C_22  and  C_23
REMARK   19  A    between atoms: C_23  and  C_24
REMARK   20  A    between atoms: C_24  and  C_25
REMARK   21  A    between atoms: C_25  and  C_26
REMARK   22  A    between atoms: C_26  and  C_27
REMARK   23  A    between atoms: C_27  and  C_28
REMARK   24  A    between atoms: N_30  and  C_31
REMARK   25  A    between atoms: C_31  and  C_32
REMARK   26  A    between atoms: C_32  and  O_33
REMARK                            x       y       z     vdW  Elec       q    Type
REMARK                         _______ _______ _______ _____ _____    ______ ____
ROOT
ATOM      1  C   UNL     1       1.935   5.931  19.308  0.00  0.00    +0.000 C 
ENDROOT
BRANCH   1   2
ATOM      2  C   UNL     1       1.616   5.314  20.663  0.00  0.00    +0.000 C 
BRANCH   2   3
ATOM      3  C   UNL     1       1.673   3.798  20.585  0.00  0.00    +0.000 C 
BRANCH   3   4
ATOM      4  C   UNL     1       0.434   3.256  19.885  0.00  0.00    +0.000 C 
BRANCH   4   5
ATOM      5  C   UNL     1       0.798   2.073  19.000  0.00  0.00    +0.000 C 
BRANCH   5   6
ATOM      6  C   UNL     1       2.306   1.981  18.821  0.00  0.00    +0.000 C 
BRANCH   6   7
ATOM      7  C   UNL     1       2.735   2.699  17.546  0.00  0.00    +0.000 C 
BRANCH   7   8
ATOM      8  C   UNL     1       4.252   2.797  17.469  0.00  0.00    +0.000 C 
BRANCH   8   9
ATOM      9  C   UNL     1       4.723   4.222  17.745  0.00  0.00    +0.000 C 
BRANCH   9  10
ATOM     10  C   UNL     1       4.502   5.091  16.513  0.00  0.00    +0.000 C 
BRANCH  10  11
ATOM     11  C   UNL     1       5.759   5.856  16.108  0.00  0.00    +0.000 C 
BRANCH  11  12
ATOM     12  C   UNL     1       6.576   5.032  15.133  0.00  0.00    +0.000 C 
ATOM     13  O   UNL     1       7.776   4.825  15.268  0.00  0.00    +0.000 OA
ATOM     14  N   UNL     1       5.832   4.533  14.073  0.00  0.00    +0.000 N 
ATOM     15  H   UNL     1       4.835   4.653  14.055  0.00  0.00    +0.000 HD
BRANCH  14  16
ATOM     16  C   UNL     1       6.480   3.745  13.024  0.00  0.00    +0.000 C 
BRANCH  16  17
ATOM     17  C   UNL     1       5.474   2.970  12.178  0.00  0.00    +0.000 C 
BRANCH  17  18
ATOM     18  O   UNL     1       6.127   1.886  11.527  0.00  0.00    +0.000 OA
ATOM     19  H   UNL     1       5.447   1.396  11.040  0.00  0.00    +0.000 HD
ENDBRANCH  17  18
ENDBRANCH  16  17
ENDBRANCH  14  16
ENDBRANCH  11  12
ENDBRANCH  10  11
ENDBRANCH   9  10
ENDBRANCH   8   9
ENDBRANCH   7   8
ENDBRANCH   6   7
ENDBRANCH   5   6
ENDBRANCH   4   5
ENDBRANCH   3   4
ENDBRANCH   2   3
ENDBRANCH   1   2
BRANCH   1  20
ATOM     20  C   UNL     1       2.942   7.053  19.466  0.00  0.00    +0.000 C 
BRANCH  20  21
ATOM     21  C   UNL     1       3.190   7.761  18.138  0.00  0.00    +0.000 C 
BRANCH  21  22
ATOM     22  C   UNL     1       1.879   8.176  17.477  0.00  0.00    +0.000 C 
BRANCH  22  23
ATOM     23  C   UNL     1       1.268   9.362  18.204  0.00  0.00    +0.000 C 
BRANCH  23  24
ATOM     24  O   UNL     1      -0.069   9.555  17.764  0.00  0.00    +0.000 OA
BRANCH  24  29
ATOM     25  C   UNL     1      -1.183  12.047  20.295  0.00  0.00    +0.000 A 
ATOM     26  C   UNL     1      -2.431  12.364  19.746  0.00  0.00    +0.000 A 
ATOM     27  C   UNL     1      -2.846  11.736  18.576  0.00  0.00    +0.000 A 
ATOM     28  C   UNL     1      -2.036  10.799  17.937  0.00  0.00    +0.000 A 
ATOM     29  C   UNL     1      -0.793  10.479  18.476  0.00  0.00    +0.000 A 
ATOM     30  C   UNL     1      -0.374  11.102  19.651  0.00  0.00    +0.000 A 
BRANCH  27  31
ATOM     31  O   UNL     1      -4.059  12.024  18.010  0.00  0.00    +0.000 OA
ATOM     32  H   UNL     1      -4.078  11.628  17.121  0.00  0.00    +0.000 HD
ENDBRANCH  27  31
BRANCH  25  33
ATOM     33  C   UNL     1      -0.686  12.722  21.546  0.00  0.00    +0.000 C 
BRANCH  33  34
ATOM     34  C   UNL     1      -1.799  13.516  22.231  0.00  0.00    +0.000 C 
BRANCH  34  35
ATOM     35  C   UNL     1      -2.071  12.971  23.627  0.00  0.00    +0.000 C 
BRANCH  35  37
ATOM     36  C   UNL     1      -4.411  13.125  22.736  0.00  0.00    +0.000 C 
ATOM     37  C   UNL     1      -3.500  12.449  23.745  0.00  0.00    +0.000 C 
ENDBRANCH  35  37
ENDBRANCH  34  35
ENDBRANCH  33  34
ENDBRANCH  25  33
ENDBRANCH  24  29
ENDBRANCH  23  24
ENDBRANCH  22  23
ENDBRANCH  21  22
ENDBRANCH  20  21
ENDBRANCH   1  20
TORSDOF 25
ENDMDL
MODEL 8
REMARK VINA RESULT:      -6.0      1.799      2.637
REMARK  Name = 
REMARK  26 active torsions:
REMARK  status: ('A' for Active; 'I' for Inactive)
REMARK    1  A    between atoms: C_1  and  C_2
REMARK    2  A    between atoms: C_2  and  C_3
REMARK    3  A    between atoms: C_3  and  C_4
REMARK    4  A    between atoms: C_4  and  C_5
REMARK    5  A    between atoms: C_5  and  C_6
REMARK    6  A    between atoms: C_8  and  O_9
REMARK    7  A    between atoms: C_11  and  O_12
REMARK    8  A    between atoms: O_12  and  C_13
REMARK    9  A    between atoms: C_13  and  C_14
REMARK   10  A    between atoms: C_14  and  C_15
REMARK   11  A    between atoms: C_15  and  C_16
REMARK   12  A    between atoms: C_16  and  C_17
REMARK   13  A    between atoms: C_17  and  C_18
REMARK   14  A    between atoms: C_18  and  C_19
REMARK   15  A    between atoms: C_19  and  C_20
REMARK   16  A    between atoms: C_20  and  C_21
REMARK   17  A    between atoms: C_21  and  C_22
REMARK   18  A    between atoms: C_22  and  C_23
REMARK   19  A    between atoms: C_23  and  C_24
REMARK   20  A    between atoms: C_24  and  C_25
REMARK   21  A    between atoms: C_25  and  C_26
REMARK   22  A    between atoms: C_26  and  C_27
REMARK   23  A    between atoms: C_27  and  C_28
REMARK   24  A    between atoms: N_30  and  C_31
REMARK   25  A    between atoms: C_31  and  C_32
REMARK   26  A    between atoms: C_32  and  O_33
REMARK                            x       y       z     vdW  Elec       q    Type
REMARK                         _______ _______ _______ _____ _____    ______ ____
ROOT
ATOM      1  C   UNL     1       1.581   3.889  20.960  0.00  0.00    +0.000 C 
ENDROOT
BRANCH   1   2
ATOM      2  C   UNL     1       0.594   4.324  19.884  0.00  0.00    +0.000 C 
BRANCH   2   3
ATOM      3  C   UNL     1       0.915   3.645  18.562  0.00  0.00    +0.000 C 
BRANCH   3   4
ATOM      4  C   UNL     1       1.824   4.529  17.720  0.00  0.00    +0.000 C 
BRANCH   4   5
ATOM      5  C   UNL     1       2.054   5.865  18.410  0.00  0.00    +0.000 C 
BRANCH   5   6
ATOM      6  C   UNL     1       2.999   6.735  17.593  0.00  0.00    +0.000 C 
BRANCH   6   7
ATOM      7  C   UNL     1       2.871   8.196  18.010  0.00  0.00    +0.000 C 
BRANCH   7   8
ATOM      8  C   UNL     1       1.415   8.637  17.982  0.00  0.00    +0.000 C 
BRANCH   8   9
ATOM      9  C   UNL     1       1.304  10.148  17.798  0.00  0.00    +0.000 C 
BRANCH   9  10
ATOM     10  C   UNL     1       1.235  10.833  19.157  0.00  0.00    +0.000 C 
BRANCH  10  11
ATOM     11  C   UNL     1      -0.188  11.242  19.530  0.00  0.00    +0.000 C 
BRANCH  11  12
ATOM     12  C   UNL     1      -0.304  11.403  21.033  0.00  0.00    +0.000 C 
ATOM     13  O   UNL     1       0.582  11.081  21.814  0.00  0.00    +0.000 OA
ATOM     14  N   UNL     1      -1.514  11.951  21.437  0.00  0.00    +0.000 N 
ATOM     15  H   UNL     1      -2.171  12.283  20.755  0.00  0.00    +0.000 HD
BRANCH  14  16
ATOM     16  C   UNL     1      -1.797  12.139  22.861  0.00  0.00    +0.000 C 
BRANCH  16  17
ATOM     17  C   UNL     1      -2.089  13.597  23.204  0.00  0.00    +0.000 C 
BRANCH  17  18
ATOM     18  O   UNL     1      -2.099  14.379  22.015  0.00  0.00    +0.000 OA
ATOM     19  H   UNL     1      -2.228  13.767  21.274  0.00  0.00    +0.000 HD
ENDBRANCH  17  18
ENDBRANCH  16  17
ENDBRANCH  14  16
ENDBRANCH  11  12
ENDBRANCH  10  11
ENDBRANCH   9  10
ENDBRANCH   8   9
ENDBRANCH   7   8
ENDBRANCH   6   7
ENDBRANCH   5   6
ENDBRANCH   4   5
ENDBRANCH   3   4
ENDBRANCH   2   3
ENDBRANCH   1   2
BRANCH   1  20
ATOM     20  C   UNL     1       1.989   2.445  20.745  0.00  0.00    +0.000 C 
BRANCH  20  21
ATOM     21  C   UNL     1       3.343   2.154  21.384  0.00  0.00    +0.000 C 
BRANCH  21  22
ATOM     22  C   UNL     1       4.455   2.131  20.340  0.00  0.00    +0.000 C 
BRANCH  22  23
ATOM     23  C   UNL     1       4.449   3.414  19.527  0.00  0.00    +0.000 C 
BRANCH  23  24
ATOM     24  O   UNL     1       5.771   3.722  19.108  0.00  0.00    +0.000 OA
BRANCH  24  29
ATOM     25  C   UNL     1       5.582   4.811  15.554  0.00  0.00    +0.000 A 
ATOM     26  C   UNL     1       6.127   6.092  15.695  0.00  0.00    +0.000 A 
ATOM     27  C   UNL     1       6.537   6.530  16.950  0.00  0.00    +0.000 A 
ATOM     28  C   UNL     1       6.409   5.714  18.073  0.00  0.00    +0.000 A 
ATOM     29  C   UNL     1       5.866   4.439  17.941  0.00  0.00    +0.000 A 
ATOM     30  C   UNL     1       5.457   3.993  16.684  0.00  0.00    +0.000 A 
BRANCH  27  31
ATOM     31  O   UNL     1       7.072   7.778  17.125  0.00  0.00    +0.000 OA
ATOM     32  H   UNL     1       6.483   8.420  16.694  0.00  0.00    +0.000 HD
ENDBRANCH  27  31
BRANCH  25  33
ATOM     33  C   UNL     1       5.103   4.309  14.217  0.00  0.00    +0.000 C 
BRANCH  33  34
ATOM     34  C   UNL     1       6.275   3.951  13.303  0.00  0.00    +0.000 C 
BRANCH  34  35
ATOM     35  C   UNL     1       5.810   3.083  12.141  0.00  0.00    +0.000 C 
BRANCH  35  37
ATOM     36  C   UNL     1       4.049   3.758  10.487  0.00  0.00    +0.000 C 
ATOM     37  C   UNL     1       4.314   3.251  11.894  0.00  0.00    +0.000 C 
ENDBRANCH  35  37
ENDBRANCH  34  35
ENDBRANCH  33  34
ENDBRANCH  25  33
ENDBRANCH  24  29
ENDBRANCH  23  24
ENDBRANCH  22  23
ENDBRANCH  21  22
ENDBRANCH  20  21
ENDBRANCH   1  20
TORSDOF 25
ENDMDL
MODEL 9
REMARK VINA RESULT:      -6.0      2.160      3.333
REMARK  Name = 
REMARK  26 active torsions:
REMARK  status: ('A' for Active; 'I' for Inactive)
REMARK    1  A    between atoms: C_1  and  C_2
REMARK    2  A    between atoms: C_2  and  C_3
REMARK    3  A    between atoms: C_3  and  C_4
REMARK    4  A    between atoms: C_4  and  C_5
REMARK    5  A    between atoms: C_5  and  C_6
REMARK    6  A    between atoms: C_8  and  O_9
REMARK    7  A    between atoms: C_11  and  O_12
REMARK    8  A    between atoms: O_12  and  C_13
REMARK    9  A    between atoms: C_13  and  C_14
REMARK   10  A    between atoms: C_14  and  C_15
REMARK   11  A    between atoms: C_15  and  C_16
REMARK   12  A    between atoms: C_16  and  C_17
REMARK   13  A    between atoms: C_17  and  C_18
REMARK   14  A    between atoms: C_18  and  C_19
REMARK   15  A    between atoms: C_19  and  C_20
REMARK   16  A    between atoms: C_20  and  C_21
REMARK   17  A    between atoms: C_21  and  C_22
REMARK   18  A    between atoms: C_22  and  C_23
REMARK   19  A    between atoms: C_23  and  C_24
REMARK   20  A    between atoms: C_24  and  C_25
REMARK   21  A    between atoms: C_25  and  C_26
REMARK   22  A    between atoms: C_26  and  C_27
REMARK   23  A    between atoms: C_27  and  C_28
REMARK   24  A    between atoms: N_30  and  C_31
REMARK   25  A    between atoms: C_31  and  C_32
REMARK   26  A    between atoms: C_32  and  O_33
REMARK                            x       y       z     vdW  Elec       q    Type
REMARK                         _______ _______ _______ _____ _____    ______ ____
ROOT
ATOM      1  C   UNL     1       1.943   5.710  18.981  0.00  0.00    +0.000 C 
ENDROOT
BRANCH   1   2
ATOM      2  C   UNL     1       2.732   6.934  19.427  0.00  0.00    +0.000 C 
BRANCH   2   3
ATOM      3  C   UNL     1       1.818   8.144  19.540  0.00  0.00    +0.000 C 
BRANCH   3   4
ATOM      4  C   UNL     1       1.358   8.591  18.160  0.00  0.00    +0.000 C 
BRANCH   4   5
ATOM      5  C   UNL     1       2.116   9.837  17.724  0.00  0.00    +0.000 C 
BRANCH   5   6
ATOM      6  C   UNL     1       2.120  10.878  18.834  0.00  0.00    +0.000 C 
BRANCH   6   7
ATOM      7  C   UNL     1       1.008  11.896  18.612  0.00  0.00    +0.000 C 
BRANCH   7   8
ATOM      8  C   UNL     1       0.472  12.405  19.943  0.00  0.00    +0.000 C 
BRANCH   8   9
ATOM      9  C   UNL     1      -0.245  11.294  20.706  0.00  0.00    +0.000 C 
BRANCH   9  10
ATOM     10  C   UNL     1      -1.636  11.760  21.115  0.00  0.00    +0.000 C 
BRANCH  10  11
ATOM     11  C   UNL     1      -2.183  12.844  20.190  0.00  0.00    +0.000 C 
BRANCH  11  12
ATOM     12  C   UNL     1      -3.224  12.255  19.259  0.00  0.00    +0.000 C 
ATOM     13  O   UNL     1      -4.366  11.988  19.611  0.00  0.00    +0.000 OA
ATOM     14  N   UNL     1      -2.757  12.050  17.968  0.00  0.00    +0.000 N 
ATOM     15  H   UNL     1      -1.843  12.369  17.705  0.00  0.00    +0.000 HD
BRANCH  14  16
ATOM     16  C   UNL     1      -3.630  11.454  16.956  0.00  0.00    +0.000 C 
BRANCH  16  17
ATOM     17  C   UNL     1      -2.957  10.299  16.221  0.00  0.00    +0.000 C 
BRANCH  17  18
ATOM     18  O   UNL     1      -1.675  10.050  16.787  0.00  0.00    +0.000 OA
ATOM     19  H   UNL     1      -1.167   9.548  16.132  0.00  0.00    +0.000 HD
ENDBRANCH  17  18
ENDBRANCH  16  17
ENDBRANCH  14  16
ENDBRANCH  11  12
ENDBRANCH  10  11
ENDBRANCH   9  10
ENDBRANCH   8   9
ENDBRANCH   7   8
ENDBRANCH   6   7
ENDBRANCH   5   6
ENDBRANCH   4   5
ENDBRANCH   3   4
ENDBRANCH   2   3
ENDBRANCH   1   2
BRANCH   1  20
ATOM     20  C   UNL     1       1.772   4.747  20.140  0.00  0.00    +0.000 C 
BRANCH  20  21
ATOM     21  C   UNL     1       0.817   3.614  19.777  0.00  0.00    +0.000 C 
BRANCH  21  22
ATOM     22  C   UNL     1       1.546   2.275  19.711  0.00  0.00    +0.000 C 
BRANCH  22  23
ATOM     23  C   UNL     1       2.421   2.205  18.472  0.00  0.00    +0.000 C 
BRANCH  23  24
ATOM     24  O   UNL     1       3.790   2.253  18.850  0.00  0.00    +0.000 OA
BRANCH  24  29
ATOM     25  C   UNL     1       5.313   4.588  16.384  0.00  0.00    +0.000 A 
ATOM     26  C   UNL     1       6.099   5.342  17.263  0.00  0.00    +0.000 A 
ATOM     27  C   UNL     1       6.094   5.039  18.621  0.00  0.00    +0.000 A 
ATOM     28  C   UNL     1       5.314   3.999  19.122  0.00  0.00    +0.000 A 
ATOM     29  C   UNL     1       4.529   3.244  18.255  0.00  0.00    +0.000 A 
ATOM     30  C   UNL     1       4.533   3.541  16.892  0.00  0.00    +0.000 A 
BRANCH  27  31
ATOM     31  O   UNL     1       6.848   5.758  19.510  0.00  0.00    +0.000 OA
ATOM     32  H   UNL     1       7.752   5.400  19.496  0.00  0.00    +0.000 HD
ENDBRANCH  27  31
BRANCH  25  33
ATOM     33  C   UNL     1       5.271   4.899  14.912  0.00  0.00    +0.000 C 
BRANCH  33  34
ATOM     34  C   UNL     1       6.636   4.684  14.257  0.00  0.00    +0.000 C 
BRANCH  34  35
ATOM     35  C   UNL     1       6.531   3.697  13.101  0.00  0.00    +0.000 C 
BRANCH  35  37
ATOM     36  C   UNL     1       4.990   2.640  11.428  0.00  0.00    +0.000 C 
ATOM     37  C   UNL     1       5.143   3.734  12.470  0.00  0.00    +0.000 C 
ENDBRANCH  35  37
ENDBRANCH  34  35
ENDBRANCH  33  34
ENDBRANCH  25  33
ENDBRANCH  24  29
ENDBRANCH  23  24
ENDBRANCH  22  23
ENDBRANCH  21  22
ENDBRANCH  20  21
ENDBRANCH   1  20
TORSDOF 25
ENDMDL
