MODEL 1
REMARK VINA RESULT:      -7.5      0.000      0.000
REMARK  Name = 
REMARK  12 active torsions:
REMARK  status: ('A' for Active; 'I' for Inactive)
REMARK    1  A    between atoms: C_1  and  C_2
REMARK    2  A    between atoms: C_4  and  S_5
REMARK    3  A    between atoms: S_5  and  C_6
REMARK    4  A    between atoms: C_11  and  O_12
REMARK    5  A    between atoms: O_12  and  C_13
REMARK    6  A    between atoms: C_17  and  O_18
REMARK    7  A    between atoms: O_18  and  C_19
REMARK    8  A    between atoms: N_22  and  C_23
REMARK    9  A    between atoms: C_23  and  O_25
REMARK   10  A    between atoms: O_25  and  C_26
REMARK   11  A    between atoms: C_26  and  C_27
REMARK   12  A    between atoms: C_26  and  C_28
REMARK                            x       y       z     vdW  Elec       q    Type
REMARK                         _______ _______ _______ _____ _____    ______ ____
ROOT
ATOM      1  C   UNL     1       0.252  10.313  20.150  0.00  0.00    +0.000 A 
ATOM      2  N   UNL     1      -0.089  10.170  21.451  0.00  0.00    +0.000 NA
ATOM      3  C   UNL     1       0.414   9.096  22.074  0.00  0.00    +0.000 A 
ATOM      4  N   UNL     1       1.180   8.149  21.519  0.00  0.00    +0.000 NA
ATOM      5  C   UNL     1       1.497   8.320  20.224  0.00  0.00    +0.000 A 
ATOM      6  C   UNL     1       1.044   9.401  19.479  0.00  0.00    +0.000 A 
ATOM      7  F   UNL     1       1.384   9.568  18.194  0.00  0.00    +0.000 F 
ENDROOT
BRANCH   1   8
ATOM      8  O   UNL     1      -0.223  11.428  19.448  0.00  0.00    +0.000 OA
BRANCH   8  15
ATOM      9  C   UNL     1      -1.942  13.241  20.941  0.00  0.00    +0.000 C 
ATOM     10  C   UNL     1      -2.427  12.344  19.837  0.00  0.00    +0.000 A 
ATOM     11  N   UNL     1      -3.757  12.450  19.556  0.00  0.00    +0.000 NA
ATOM     12  C   UNL     1      -4.237  11.642  18.578  0.00  0.00    +0.000 A 
ATOM     13  C   UNL     1      -3.494  10.702  17.890  0.00  0.00    +0.000 A 
ATOM     14  C   UNL     1      -2.143  10.605  18.202  0.00  0.00    +0.000 A 
ATOM     15  C   UNL     1      -1.572  11.469  19.147  0.00  0.00    +0.000 A 
BRANCH  12  16
ATOM     16  S   UNL     1      -5.948  11.886  18.158  0.00  0.00    +0.000 S 
ATOM     17  C   UNL     1      -6.587  13.018  19.363  0.00  0.00    +0.000 C 
ATOM     18  O   UNL     1      -5.975  12.555  16.867  0.00  0.00    +0.000 OA
ATOM     19  O   UNL     1      -6.621  10.613  18.343  0.00  0.00    +0.000 OA
ENDBRANCH  12  16
ENDBRANCH   8  15
ENDBRANCH   1   8
BRANCH   5  20
ATOM     20  O   UNL     1       2.410   7.469  19.646  0.00  0.00    +0.000 OA
BRANCH  20  21
ATOM     21  C   UNL     1       2.188   6.040  19.635  0.00  0.00    +0.000 C 
ATOM     22  C   UNL     1       3.326   5.137  20.138  0.00  0.00    +0.000 C 
ATOM     23  C   UNL     1       4.615   5.479  19.416  0.00  0.00    +0.000 C 
ATOM     24  N   UNL     1       4.486   5.300  17.969  0.00  0.00    +0.000 N 
ATOM     25  C   UNL     1       3.295   5.914  17.367  0.00  0.00    +0.000 C 
ATOM     26  C   UNL     1       2.003   5.651  18.153  0.00  0.00    +0.000 C 
BRANCH  24  27
ATOM     27  C   UNL     1       5.665   5.489  17.244  0.00  0.00    +0.000 C 
ATOM     28  S   UNL     1       6.424   4.383  16.250  0.00  0.00    +0.000 S 
BRANCH  27  29
ATOM     29  O   UNL     1       6.287   6.684  17.368  0.00  0.00    +0.000 OA
BRANCH  29  30
ATOM     30  C   UNL     1       7.685   6.781  17.713  0.00  0.00    +0.000 C 
ATOM     31  C   UNL     1       8.052   8.253  17.832  0.00  0.00    +0.000 C 
ATOM     32  C   UNL     1       7.865   6.062  19.045  0.00  0.00    +0.000 C 
ENDBRANCH  29  30
ENDBRANCH  27  29
ENDBRANCH  24  27
ENDBRANCH  20  21
ENDBRANCH   5  20
TORSDOF 8
ENDMDL
MODEL 2
REMARK VINA RESULT:      -7.4      1.458      2.248
REMARK  Name = 
REMARK  12 active torsions:
REMARK  status: ('A' for Active; 'I' for Inactive)
REMARK    1  A    between atoms: C_1  and  C_2
REMARK    2  A    between atoms: C_4  and  S_5
REMARK    3  A    between atoms: S_5  and  C_6
REMARK    4  A    between atoms: C_11  and  O_12
REMARK    5  A    between atoms: O_12  and  C_13
REMARK    6  A    between atoms: C_17  and  O_18
REMARK    7  A    between atoms: O_18  and  C_19
REMARK    8  A    between atoms: N_22  and  C_23
REMARK    9  A    between atoms: C_23  and  O_25
REMARK   10  A    between atoms: O_25  and  C_26
REMARK   11  A    between atoms: C_26  and  C_27
REMARK   12  A    between atoms: C_26  and  C_28
REMARK                            x       y       z     vdW  Elec       q    Type
REMARK                         _______ _______ _______ _____ _____    ______ ____
ROOT
ATOM      1  C   UNL     1       0.491  10.027  19.508  0.00  0.00    +0.000 A 
ATOM      2  N   UNL     1       0.234  10.011  20.836  0.00  0.00    +0.000 NA
ATOM      3  C   UNL     1       0.780   9.001  21.526  0.00  0.00    +0.000 A 
ATOM      4  N   UNL     1       1.513   8.003  21.017  0.00  0.00    +0.000 NA
ATOM      5  C   UNL     1       1.746   8.048  19.694  0.00  0.00    +0.000 A 
ATOM      6  C   UNL     1       1.242   9.052  18.879  0.00  0.00    +0.000 A 
ATOM      7  F   UNL     1       1.498   9.093  17.565  0.00  0.00    +0.000 F 
ENDROOT
BRANCH   1   8
ATOM      8  O   UNL     1      -0.033  11.070  18.733  0.00  0.00    +0.000 OA
BRANCH   8  15
ATOM      9  C   UNL     1      -2.006   9.913  16.934  0.00  0.00    +0.000 C 
ATOM     10  C   UNL     1      -2.346  10.838  18.069  0.00  0.00    +0.000 A 
ATOM     11  N   UNL     1      -3.677  11.092  18.221  0.00  0.00    +0.000 NA
ATOM     12  C   UNL     1      -4.023  11.938  19.224  0.00  0.00    +0.000 A 
ATOM     13  C   UNL     1      -3.131  12.585  20.058  0.00  0.00    +0.000 A 
ATOM     14  C   UNL     1      -1.779  12.318  19.876  0.00  0.00    +0.000 A 
ATOM     15  C   UNL     1      -1.366  11.391  18.909  0.00  0.00    +0.000 A 
BRANCH  12  16
ATOM     16  S   UNL     1      -5.771  12.158  19.468  0.00  0.00    +0.000 S 
ATOM     17  C   UNL     1      -6.057  13.905  19.378  0.00  0.00    +0.000 C 
ATOM     18  O   UNL     1      -6.436  11.543  18.331  0.00  0.00    +0.000 OA
ATOM     19  O   UNL     1      -6.073  11.726  20.821  0.00  0.00    +0.000 OA
ENDBRANCH  12  16
ENDBRANCH   8  15
ENDBRANCH   1   8
BRANCH   5  20
ATOM     20  O   UNL     1       2.624   7.142  19.144  0.00  0.00    +0.000 OA
BRANCH  20  21
ATOM     21  C   UNL     1       2.432   5.720  19.323  0.00  0.00    +0.000 C 
ATOM     22  C   UNL     1       3.560   4.929  20.004  0.00  0.00    +0.000 C 
ATOM     23  C   UNL     1       4.878   5.202  19.305  0.00  0.00    +0.000 C 
ATOM     24  N   UNL     1       4.829   4.819  17.893  0.00  0.00    +0.000 N 
ATOM     25  C   UNL     1       3.660   5.311  17.153  0.00  0.00    +0.000 C 
ATOM     26  C   UNL     1       2.334   5.124  17.903  0.00  0.00    +0.000 C 
BRANCH  24  27
ATOM     27  C   UNL     1       6.041   4.937  17.208  0.00  0.00    +0.000 C 
ATOM     28  S   UNL     1       7.575   4.729  17.834  0.00  0.00    +0.000 S 
BRANCH  27  29
ATOM     29  O   UNL     1       5.986   5.281  15.901  0.00  0.00    +0.000 OA
BRANCH  29  30
ATOM     30  C   UNL     1       6.489   4.413  14.865  0.00  0.00    +0.000 C 
ATOM     31  C   UNL     1       5.316   3.941  14.018  0.00  0.00    +0.000 C 
ATOM     32  C   UNL     1       7.470   5.233  14.035  0.00  0.00    +0.000 C 
ENDBRANCH  29  30
ENDBRANCH  27  29
ENDBRANCH  24  27
ENDBRANCH  20  21
ENDBRANCH   5  20
TORSDOF 8
ENDMDL
MODEL 3
REMARK VINA RESULT:      -7.4      1.956      2.608
REMARK  Name = 
REMARK  12 active torsions:
REMARK  status: ('A' for Active; 'I' for Inactive)
REMARK    1  A    between atoms: C_1  and  C_2
REMARK    2  A    between atoms: C_4  and  S_5
REMARK    3  A    between atoms: S_5  and  C_6
REMARK    4  A    between atoms: C_11  and  O_12
REMARK    5  A    between atoms: O_12  and  C_13
REMARK    6  A    between atoms: C_17  and  O_18
REMARK    7  A    between atoms: O_18  and  C_19
REMARK    8  A    between atoms: N_22  and  C_23
REMARK    9  A    between atoms: C_23  and  O_25
REMARK   10  A    between atoms: O_25  and  C_26
REMARK   11  A    between atoms: C_26  and  C_27
REMARK   12  A    between atoms: C_26  and  C_28
REMARK                            x       y       z     vdW  Elec       q    Type
REMARK                         _______ _______ _______ _____ _____    ______ ____
ROOT
ATOM      1  C   UNL     1       0.989   9.869  19.577  0.00  0.00    +0.000 A 
ATOM      2  N   UNL     1       0.887   9.852  20.925  0.00  0.00    +0.000 NA
ATOM      3  C   UNL     1       1.334   8.745  21.534  0.00  0.00    +0.000 A 
ATOM      4  N   UNL     1       1.829   7.658  20.930  0.00  0.00    +0.000 NA
ATOM      5  C   UNL     1       1.913   7.706  19.588  0.00  0.00    +0.000 A 
ATOM      6  C   UNL     1       1.493   8.805  18.851  0.00  0.00    +0.000 A 
ATOM      7  F   UNL     1       1.601   8.846  17.517  0.00  0.00    +0.000 F 
ENDROOT
BRANCH   1   8
ATOM      8  O   UNL     1       0.561  11.007  18.882  0.00  0.00    +0.000 OA
BRANCH   8  15
ATOM      9  C   UNL     1      -1.794  10.119  17.421  0.00  0.00    +0.000 C 
ATOM     10  C   UNL     1      -1.831  11.117  18.544  0.00  0.00    +0.000 A 
ATOM     11  N   UNL     1      -3.075  11.578  18.860  0.00  0.00    +0.000 NA
ATOM     12  C   UNL     1      -3.148  12.495  19.857  0.00  0.00    +0.000 A 
ATOM     13  C   UNL     1      -2.062  13.019  20.533  0.00  0.00    +0.000 A 
ATOM     14  C   UNL     1      -0.803  12.541  20.186  0.00  0.00    +0.000 A 
ATOM     15  C   UNL     1      -0.672  11.535  19.218  0.00  0.00    +0.000 A 
BRANCH  12  16
ATOM     16  S   UNL     1      -4.792  12.989  20.321  0.00  0.00    +0.000 S 
ATOM     17  C   UNL     1      -5.833  12.557  18.953  0.00  0.00    +0.000 C 
ATOM     18  O   UNL     1      -5.180  12.160  21.450  0.00  0.00    +0.000 OA
ATOM     19  O   UNL     1      -4.788  14.436  20.437  0.00  0.00    +0.000 OA
ENDBRANCH  12  16
ENDBRANCH   8  15
ENDBRANCH   1   8
BRANCH   5  20
ATOM     20  O   UNL     1       2.561   6.688  18.927  0.00  0.00    +0.000 OA
BRANCH  20  21
ATOM     21  C   UNL     1       2.377   5.310  19.326  0.00  0.00    +0.000 C 
ATOM     22  C   UNL     1       3.524   4.631  20.091  0.00  0.00    +0.000 C 
ATOM     23  C   UNL     1       4.823   4.793  19.325  0.00  0.00    +0.000 C 
ATOM     24  N   UNL     1       4.740   4.199  17.990  0.00  0.00    +0.000 N 
ATOM     25  C   UNL     1       3.551   4.573  17.213  0.00  0.00    +0.000 C 
ATOM     26  C   UNL     1       2.245   4.504  18.017  0.00  0.00    +0.000 C 
BRANCH  24  27
ATOM     27  C   UNL     1       5.934   4.210  17.264  0.00  0.00    +0.000 C 
ATOM     28  S   UNL     1       7.434   4.708  17.801  0.00  0.00    +0.000 S 
BRANCH  27  29
ATOM     29  O   UNL     1       5.882   3.799  15.976  0.00  0.00    +0.000 OA
BRANCH  29  30
ATOM     30  C   UNL     1       6.367   4.623  14.895  0.00  0.00    +0.000 C 
ATOM     31  C   UNL     1       6.237   3.843  13.596  0.00  0.00    +0.000 C 
ATOM     32  C   UNL     1       5.500   5.877  14.871  0.00  0.00    +0.000 C 
ENDBRANCH  29  30
ENDBRANCH  27  29
ENDBRANCH  24  27
ENDBRANCH  20  21
ENDBRANCH   5  20
TORSDOF 8
ENDMDL
MODEL 4
REMARK VINA RESULT:      -7.3      1.076      1.313
REMARK  Name = 
REMARK  12 active torsions:
REMARK  status: ('A' for Active; 'I' for Inactive)
REMARK    1  A    between atoms: C_1  and  C_2
REMARK    2  A    between atoms: C_4  and  S_5
REMARK    3  A    between atoms: S_5  and  C_6
REMARK    4  A    between atoms: C_11  and  O_12
REMARK    5  A    between atoms: O_12  and  C_13
REMARK    6  A    between atoms: C_17  and  O_18
REMARK    7  A    between atoms: O_18  and  C_19
REMARK    8  A    between atoms: N_22  and  C_23
REMARK    9  A    between atoms: C_23  and  O_25
REMARK   10  A    between atoms: O_25  and  C_26
REMARK   11  A    between atoms: C_26  and  C_27
REMARK   12  A    between atoms: C_26  and  C_28
REMARK                            x       y       z     vdW  Elec       q    Type
REMARK                         _______ _______ _______ _____ _____    ______ ____
ROOT
ATOM      1  C   UNL     1       0.722   9.871  19.691  0.00  0.00    +0.000 A 
ATOM      2  N   UNL     1       0.521   9.927  21.027  0.00  0.00    +0.000 NA
ATOM      3  C   UNL     1       1.023   8.909  21.739  0.00  0.00    +0.000 A 
ATOM      4  N   UNL     1       1.662   7.841  21.246  0.00  0.00    +0.000 NA
ATOM      5  C   UNL     1       1.842   7.815  19.914  0.00  0.00    +0.000 A 
ATOM      6  C   UNL     1       1.377   8.820  19.076  0.00  0.00    +0.000 A 
ATOM      7  F   UNL     1       1.580   8.789  17.752  0.00  0.00    +0.000 F 
ENDROOT
BRANCH   1   8
ATOM      8  O   UNL     1       0.242  10.916  18.892  0.00  0.00    +0.000 OA
BRANCH   8  15
ATOM      9  C   UNL     1      -1.057  12.992  20.465  0.00  0.00    +0.000 C 
ATOM     10  C   UNL     1      -1.786  12.071  19.527  0.00  0.00    +0.000 A 
ATOM     11  N   UNL     1      -3.129  12.288  19.440  0.00  0.00    +0.000 NA
ATOM     12  C   UNL     1      -3.825  11.465  18.616  0.00  0.00    +0.000 A 
ATOM     13  C   UNL     1      -3.283  10.409  17.907  0.00  0.00    +0.000 A 
ATOM     14  C   UNL     1      -1.913  10.201  18.021  0.00  0.00    +0.000 A 
ATOM     15  C   UNL     1      -1.129  11.069  18.794  0.00  0.00    +0.000 A 
BRANCH  12  16
ATOM     16  S   UNL     1      -5.553  11.847  18.437  0.00  0.00    +0.000 S 
ATOM     17  C   UNL     1      -5.740  12.492  16.797  0.00  0.00    +0.000 C 
ATOM     18  O   UNL     1      -6.273  10.586  18.500  0.00  0.00    +0.000 OA
ATOM     19  O   UNL     1      -5.855  12.916  19.372  0.00  0.00    +0.000 OA
ENDBRANCH  12  16
ENDBRANCH   8  15
ENDBRANCH   1   8
BRANCH   5  20
ATOM     20  O   UNL     1       2.631   6.827  19.369  0.00  0.00    +0.000 OA
BRANCH  20  21
ATOM     21  C   UNL     1       2.234   5.438  19.441  0.00  0.00    +0.000 C 
ATOM     22  C   UNL     1       3.235   4.441  20.045  0.00  0.00    +0.000 C 
ATOM     23  C   UNL     1       4.578   4.574  19.353  0.00  0.00    +0.000 C 
ATOM     24  N   UNL     1       4.474   4.314  17.917  0.00  0.00    +0.000 N 
ATOM     25  C   UNL     1       3.388   5.026  17.230  0.00  0.00    +0.000 C 
ATOM     26  C   UNL     1       2.049   4.976  17.980  0.00  0.00    +0.000 C 
BRANCH  24  27
ATOM     27  C   UNL     1       5.690   4.309  17.228  0.00  0.00    +0.000 C 
ATOM     28  S   UNL     1       5.934   3.936  15.619  0.00  0.00    +0.000 S 
BRANCH  27  29
ATOM     29  O   UNL     1       6.804   4.613  17.933  0.00  0.00    +0.000 OA
BRANCH  29  30
ATOM     30  C   UNL     1       7.023   5.931  18.477  0.00  0.00    +0.000 C 
ATOM     31  C   UNL     1       8.138   5.849  19.508  0.00  0.00    +0.000 C 
ATOM     32  C   UNL     1       7.418   6.832  17.313  0.00  0.00    +0.000 C 
ENDBRANCH  29  30
ENDBRANCH  27  29
ENDBRANCH  24  27
ENDBRANCH  20  21
ENDBRANCH   5  20
TORSDOF 8
ENDMDL
MODEL 5
REMARK VINA RESULT:      -7.2      1.281      1.749
REMARK  Name = 
REMARK  12 active torsions:
REMARK  status: ('A' for Active; 'I' for Inactive)
REMARK    1  A    between atoms: C_1  and  C_2
REMARK    2  A    between atoms: C_4  and  S_5
REMARK    3  A    between atoms: S_5  and  C_6
REMARK    4  A    between atoms: C_11  and  O_12
REMARK    5  A    between atoms: O_12  and  C_13
REMARK    6  A    between atoms: C_17  and  O_18
REMARK    7  A    between atoms: O_18  and  C_19
REMARK    8  A    between atoms: N_22  and  C_23
REMARK    9  A    between atoms: C_23  and  O_25
REMARK   10  A    between atoms: O_25  and  C_26
REMARK   11  A    between atoms: C_26  and  C_27
REMARK   12  A    between atoms: C_26  and  C_28
REMARK                            x       y       z     vdW  Elec       q    Type
REMARK                         _______ _______ _______ _____ _____    ______ ____
ROOT
ATOM      1  C   UNL     1       0.792  10.080  19.913  0.00  0.00    +0.000 A 
ATOM      2  N   UNL     1       0.697  10.027  21.261  0.00  0.00    +0.000 NA
ATOM      3  C   UNL     1       1.143   8.902  21.836  0.00  0.00    +0.000 A 
ATOM      4  N   UNL     1       1.630   7.830  21.200  0.00  0.00    +0.000 NA
ATOM      5  C   UNL     1       1.707   7.915  19.860  0.00  0.00    +0.000 A 
ATOM      6  C   UNL     1       1.287   9.035  19.156  0.00  0.00    +0.000 A 
ATOM      7  F   UNL     1       1.387   9.112  17.822  0.00  0.00    +0.000 F 
ENDROOT
BRANCH   1   8
ATOM      8  O   UNL     1       0.364  11.239  19.252  0.00  0.00    +0.000 OA
BRANCH   8  15
ATOM      9  C   UNL     1      -1.719  10.368  17.416  0.00  0.00    +0.000 C 
ATOM     10  C   UNL     1      -1.968  11.242  18.613  0.00  0.00    +0.000 A 
ATOM     11  N   UNL     1      -3.271  11.596  18.803  0.00  0.00    +0.000 NA
ATOM     12  C   UNL     1      -3.534  12.399  19.864  0.00  0.00    +0.000 A 
ATOM     13  C   UNL     1      -2.582  12.915  20.723  0.00  0.00    +0.000 A 
ATOM     14  C   UNL     1      -1.259  12.550  20.502  0.00  0.00    +0.000 A 
ATOM     15  C   UNL     1      -0.936  11.657  19.470  0.00  0.00    +0.000 A 
BRANCH  12  16
ATOM     16  S   UNL     1      -5.255  12.747  20.150  0.00  0.00    +0.000 S 
ATOM     17  C   UNL     1      -5.452  12.806  21.910  0.00  0.00    +0.000 C 
ATOM     18  O   UNL     1      -5.507  14.081  19.632  0.00  0.00    +0.000 OA
ATOM     19  O   UNL     1      -6.010  11.609  19.656  0.00  0.00    +0.000 OA
ENDBRANCH  12  16
ENDBRANCH   8  15
ENDBRANCH   1   8
BRANCH   5  20
ATOM     20  O   UNL     1       2.346   6.913  19.167  0.00  0.00    +0.000 OA
BRANCH  20  21
ATOM     21  C   UNL     1       2.113   5.522  19.491  0.00  0.00    +0.000 C 
ATOM     22  C   UNL     1       3.237   4.760  20.211  0.00  0.00    +0.000 C 
ATOM     23  C   UNL     1       4.539   4.916  19.449  0.00  0.00    +0.000 C 
ATOM     24  N   UNL     1       4.430   4.401  18.084  0.00  0.00    +0.000 N 
ATOM     25  C   UNL     1       3.253   4.860  17.334  0.00  0.00    +0.000 C 
ATOM     26  C   UNL     1       1.947   4.795  18.140  0.00  0.00    +0.000 C 
BRANCH  24  27
ATOM     27  C   UNL     1       5.621   4.408  17.354  0.00  0.00    +0.000 C 
ATOM     28  S   UNL     1       5.856   3.836  15.803  0.00  0.00    +0.000 S 
BRANCH  27  29
ATOM     29  O   UNL     1       6.721   4.908  17.964  0.00  0.00    +0.000 OA
BRANCH  29  30
ATOM     30  C   UNL     1       7.340   6.136  17.527  0.00  0.00    +0.000 C 
ATOM     31  C   UNL     1       6.249   7.096  17.080  0.00  0.00    +0.000 C 
ATOM     32  C   UNL     1       8.108   6.694  18.720  0.00  0.00    +0.000 C 
ENDBRANCH  29  30
ENDBRANCH  27  29
ENDBRANCH  24  27
ENDBRANCH  20  21
ENDBRANCH   5  20
TORSDOF 8
ENDMDL
MODEL 6
REMARK VINA RESULT:      -7.1      3.405      4.717
REMARK  Name = 
REMARK  12 active torsions:
REMARK  status: ('A' for Active; 'I' for Inactive)
REMARK    1  A    between atoms: C_1  and  C_2
REMARK    2  A    between atoms: C_4  and  S_5
REMARK    3  A    between atoms: S_5  and  C_6
REMARK    4  A    between atoms: C_11  and  O_12
REMARK    5  A    between atoms: O_12  and  C_13
REMARK    6  A    between atoms: C_17  and  O_18
REMARK    7  A    between atoms: O_18  and  C_19
REMARK    8  A    between atoms: N_22  and  C_23
REMARK    9  A    between atoms: C_23  and  O_25
REMARK   10  A    between atoms: O_25  and  C_26
REMARK   11  A    between atoms: C_26  and  C_27
REMARK   12  A    between atoms: C_26  and  C_28
REMARK                            x       y       z     vdW  Elec       q    Type
REMARK                         _______ _______ _______ _____ _____    ______ ____
ROOT
ATOM      1  C   UNL     1       0.660  10.082  19.734  0.00  0.00    +0.000 A 
ATOM      2  N   UNL     1       0.426  10.260  21.055  0.00  0.00    +0.000 NA
ATOM      3  C   UNL     1       0.913   9.314  21.869  0.00  0.00    +0.000 A 
ATOM      4  N   UNL     1       1.566   8.208  21.491  0.00  0.00    +0.000 NA
ATOM      5  C   UNL     1       1.778   8.060  20.172  0.00  0.00    +0.000 A 
ATOM      6  C   UNL     1       1.331   8.982  19.235  0.00  0.00    +0.000 A 
ATOM      7  F   UNL     1       1.566   8.831  17.925  0.00  0.00    +0.000 F 
ENDROOT
BRANCH   1   8
ATOM      8  O   UNL     1       0.196  11.048  18.832  0.00  0.00    +0.000 OA
BRANCH   8  15
ATOM      9  C   UNL     1      -1.177  13.467  19.687  0.00  0.00    +0.000 C 
ATOM     10  C   UNL     1       0.245  13.437  19.201  0.00  0.00    +0.000 A 
ATOM     11  N   UNL     1       0.877  14.645  19.205  0.00  0.00    +0.000 NA
ATOM     12  C   UNL     1       2.157  14.662  18.756  0.00  0.00    +0.000 A 
ATOM     13  C   UNL     1       2.838  13.567  18.258  0.00  0.00    +0.000 A 
ATOM     14  C   UNL     1       2.168  12.348  18.254  0.00  0.00    +0.000 A 
ATOM     15  C   UNL     1       0.872  12.253  18.780  0.00  0.00    +0.000 A 
BRANCH  12  16
ATOM     16  S   UNL     1       2.990  16.229  18.882  0.00  0.00    +0.000 S 
ATOM     17  C   UNL     1       2.898  16.958  17.269  0.00  0.00    +0.000 C 
ATOM     18  O   UNL     1       2.203  17.053  19.785  0.00  0.00    +0.000 OA
ATOM     19  O   UNL     1       4.386  15.951  19.166  0.00  0.00    +0.000 OA
ENDBRANCH  12  16
ENDBRANCH   8  15
ENDBRANCH   1   8
BRANCH   5  20
ATOM     20  O   UNL     1       2.582   7.030  19.739  0.00  0.00    +0.000 OA
BRANCH  20  21
ATOM     21  C   UNL     1       2.085   5.673  19.690  0.00  0.00    +0.000 C 
ATOM     22  C   UNL     1       2.977   4.566  20.273  0.00  0.00    +0.000 C 
ATOM     23  C   UNL     1       4.364   4.645  19.664  0.00  0.00    +0.000 C 
ATOM     24  N   UNL     1       4.324   4.492  18.209  0.00  0.00    +0.000 N 
ATOM     25  C   UNL     1       3.332   5.327  17.520  0.00  0.00    +0.000 C 
ATOM     26  C   UNL     1       1.952   5.325  18.192  0.00  0.00    +0.000 C 
BRANCH  24  27
ATOM     27  C   UNL     1       5.574   4.443  17.587  0.00  0.00    +0.000 C 
ATOM     28  S   UNL     1       7.030   4.970  18.211  0.00  0.00    +0.000 S 
BRANCH  27  29
ATOM     29  O   UNL     1       5.625   3.938  16.333  0.00  0.00    +0.000 OA
BRANCH  29  30
ATOM     30  C   UNL     1       6.268   4.648  15.254  0.00  0.00    +0.000 C 
ATOM     31  C   UNL     1       6.160   3.807  13.991  0.00  0.00    +0.000 C 
ATOM     32  C   UNL     1       5.533   5.973  15.095  0.00  0.00    +0.000 C 
ENDBRANCH  29  30
ENDBRANCH  27  29
ENDBRANCH  24  27
ENDBRANCH  20  21
ENDBRANCH   5  20
TORSDOF 8
ENDMDL
MODEL 7
REMARK VINA RESULT:      -7.1      1.179      1.957
REMARK  Name = 
REMARK  12 active torsions:
REMARK  status: ('A' for Active; 'I' for Inactive)
REMARK    1  A    between atoms: C_1  and  C_2
REMARK    2  A    between atoms: C_4  and  S_5
REMARK    3  A    between atoms: S_5  and  C_6
REMARK    4  A    between atoms: C_11  and  O_12
REMARK    5  A    between atoms: O_12  and  C_13
REMARK    6  A    between atoms: C_17  and  O_18
REMARK    7  A    between atoms: O_18  and  C_19
REMARK    8  A    between atoms: N_22  and  C_23
REMARK    9  A    between atoms: C_23  and  O_25
REMARK   10  A    between atoms: O_25  and  C_26
REMARK   11  A    between atoms: C_26  and  C_27
REMARK   12  A    between atoms: C_26  and  C_28
REMARK                            x       y       z     vdW  Elec       q    Type
REMARK                         _______ _______ _______ _____ _____    ______ ____
ROOT
ATOM      1  C   UNL     1       0.186  10.229  19.987  0.00  0.00    +0.000 A 
ATOM      2  N   UNL     1      -0.328  10.069  21.228  0.00  0.00    +0.000 NA
ATOM      3  C   UNL     1       0.140   9.026  21.926  0.00  0.00    +0.000 A 
ATOM      4  N   UNL     1       1.029   8.123  21.494  0.00  0.00    +0.000 NA
ATOM      5  C   UNL     1       1.517   8.310  20.255  0.00  0.00    +0.000 A 
ATOM      6  C   UNL     1       1.115   9.362  19.444  0.00  0.00    +0.000 A 
ATOM      7  F   UNL     1       1.624   9.546  18.219  0.00  0.00    +0.000 F 
ENDROOT
BRANCH   1   8
ATOM      8  O   UNL     1      -0.246  11.314  19.214  0.00  0.00    +0.000 OA
BRANCH   8  15
ATOM      9  C   UNL     1      -1.670   9.887  17.115  0.00  0.00    +0.000 C 
ATOM     10  C   UNL     1      -2.330  10.819  18.092  0.00  0.00    +0.000 A 
ATOM     11  N   UNL     1      -3.680  10.943  17.942  0.00  0.00    +0.000 NA
ATOM     12  C   UNL     1      -4.310  11.790  18.795  0.00  0.00    +0.000 A 
ATOM     13  C   UNL     1      -3.682  12.559  19.756  0.00  0.00    +0.000 A 
ATOM     14  C   UNL     1      -2.305  12.425  19.881  0.00  0.00    +0.000 A 
ATOM     15  C   UNL     1      -1.609  11.505  19.083  0.00  0.00    +0.000 A 
BRANCH  12  16
ATOM     16  S   UNL     1      -6.082  11.841  18.649  0.00  0.00    +0.000 S 
ATOM     17  C   UNL     1      -6.622  13.130  19.739  0.00  0.00    +0.000 C 
ATOM     18  O   UNL     1      -6.382  12.258  17.289  0.00  0.00    +0.000 OA
ATOM     19  O   UNL     1      -6.591  10.582  19.163  0.00  0.00    +0.000 OA
ENDBRANCH  12  16
ENDBRANCH   8  15
ENDBRANCH   1   8
BRANCH   5  20
ATOM     20  O   UNL     1       2.549   7.511  19.821  0.00  0.00    +0.000 OA
BRANCH  20  21
ATOM     21  C   UNL     1       2.313   6.135  19.441  0.00  0.00    +0.000 C 
ATOM     22  C   UNL     1       3.378   5.096  19.826  0.00  0.00    +0.000 C 
ATOM     23  C   UNL     1       4.742   5.552  19.345  0.00  0.00    +0.000 C 
ATOM     24  N   UNL     1       4.771   5.730  17.893  0.00  0.00    +0.000 N 
ATOM     25  C   UNL     1       3.661   6.516  17.338  0.00  0.00    +0.000 C 
ATOM     26  C   UNL     1       2.288   6.121  17.898  0.00  0.00    +0.000 C 
BRANCH  24  27
ATOM     27  C   UNL     1       6.025   6.042  17.362  0.00  0.00    +0.000 C 
ATOM     28  S   UNL     1       7.417   6.401  18.211  0.00  0.00    +0.000 S 
BRANCH  27  29
ATOM     29  O   UNL     1       6.136   6.087  16.014  0.00  0.00    +0.000 OA
BRANCH  29  30
ATOM     30  C   UNL     1       5.836   4.942  15.189  0.00  0.00    +0.000 C 
ATOM     31  C   UNL     1       6.867   4.868  14.072  0.00  0.00    +0.000 C 
ATOM     32  C   UNL     1       5.913   3.714  16.088  0.00  0.00    +0.000 C 
ENDBRANCH  29  30
ENDBRANCH  27  29
ENDBRANCH  24  27
ENDBRANCH  20  21
ENDBRANCH   5  20
TORSDOF 8
ENDMDL
MODEL 8
REMARK VINA RESULT:      -7.1      2.979      3.993
REMARK  Name = 
REMARK  12 active torsions:
REMARK  status: ('A' for Active; 'I' for Inactive)
REMARK    1  A    between atoms: C_1  and  C_2
REMARK    2  A    between atoms: C_4  and  S_5
REMARK    3  A    between atoms: S_5  and  C_6
REMARK    4  A    between atoms: C_11  and  O_12
REMARK    5  A    between atoms: O_12  and  C_13
REMARK    6  A    between atoms: C_17  and  O_18
REMARK    7  A    between atoms: O_18  and  C_19
REMARK    8  A    between atoms: N_22  and  C_23
REMARK    9  A    between atoms: C_23  and  O_25
REMARK   10  A    between atoms: O_25  and  C_26
REMARK   11  A    between atoms: C_26  and  C_27
REMARK   12  A    between atoms: C_26  and  C_28
REMARK                            x       y       z     vdW  Elec       q    Type
REMARK                         _______ _______ _______ _____ _____    ______ ____
ROOT
ATOM      1  C   UNL     1       1.018   9.625  19.211  0.00  0.00    +0.000 A 
ATOM      2  N   UNL     1       0.471   9.815  20.433  0.00  0.00    +0.000 NA
ATOM      3  C   UNL     1       0.732   8.869  21.346  0.00  0.00    +0.000 A 
ATOM      4  N   UNL     1       1.442   7.753  21.144  0.00  0.00    +0.000 NA
ATOM      5  C   UNL     1       1.968   7.593  19.917  0.00  0.00    +0.000 A 
ATOM      6  C   UNL     1       1.777   8.513  18.895  0.00  0.00    +0.000 A 
ATOM      7  F   UNL     1       2.323   8.349  17.683  0.00  0.00    +0.000 F 
ENDROOT
BRANCH   1   8
ATOM      8  O   UNL     1       0.802  10.589  18.219  0.00  0.00    +0.000 OA
BRANCH   8  15
ATOM      9  C   UNL     1      -1.565  12.268  18.430  0.00  0.00    +0.000 C 
ATOM     10  C   UNL     1      -0.168  12.751  18.699  0.00  0.00    +0.000 A 
ATOM     11  N   UNL     1      -0.077  14.057  19.080  0.00  0.00    +0.000 NA
ATOM     12  C   UNL     1       1.171  14.536  19.315  0.00  0.00    +0.000 A 
ATOM     13  C   UNL     1       2.340  13.816  19.152  0.00  0.00    +0.000 A 
ATOM     14  C   UNL     1       2.222  12.490  18.752  0.00  0.00    +0.000 A 
ATOM     15  C   UNL     1       0.955  11.917  18.572  0.00  0.00    +0.000 A 
BRANCH  12  16
ATOM     16  S   UNL     1       1.246  16.207  19.920  0.00  0.00    +0.000 S 
ATOM     17  C   UNL     1       1.874  16.096  21.574  0.00  0.00    +0.000 C 
ATOM     18  O   UNL     1       2.237  16.902  19.117  0.00  0.00    +0.000 OA
ATOM     19  O   UNL     1      -0.119  16.698  19.994  0.00  0.00    +0.000 OA
ENDBRANCH  12  16
ENDBRANCH   8  15
ENDBRANCH   1   8
BRANCH   5  20
ATOM     20  O   UNL     1       2.839   6.550  19.699  0.00  0.00    +0.000 OA
BRANCH  20  21
ATOM     21  C   UNL     1       2.351   5.198  19.541  0.00  0.00    +0.000 C 
ATOM     22  C   UNL     1       3.287   4.050  19.951  0.00  0.00    +0.000 C 
ATOM     23  C   UNL     1       4.633   4.211  19.270  0.00  0.00    +0.000 C 
ATOM     24  N   UNL     1       4.503   4.206  17.812  0.00  0.00    +0.000 N 
ATOM     25  C   UNL     1       3.463   5.093  17.274  0.00  0.00    +0.000 C 
ATOM     26  C   UNL     1       2.128   5.002  18.026  0.00  0.00    +0.000 C 
BRANCH  24  27
ATOM     27  C   UNL     1       5.713   4.239  17.113  0.00  0.00    +0.000 C 
ATOM     28  S   UNL     1       5.937   3.992  15.477  0.00  0.00    +0.000 S 
BRANCH  27  29
ATOM     29  O   UNL     1       6.838   4.471  17.828  0.00  0.00    +0.000 OA
BRANCH  29  30
ATOM     30  C   UNL     1       7.511   5.747  17.792  0.00  0.00    +0.000 C 
ATOM     31  C   UNL     1       6.518   6.805  17.335  0.00  0.00    +0.000 C 
ATOM     32  C   UNL     1       8.001   6.030  19.207  0.00  0.00    +0.000 C 
ENDBRANCH  29  30
ENDBRANCH  27  29
ENDBRANCH  24  27
ENDBRANCH  20  21
ENDBRANCH   5  20
TORSDOF 8
ENDMDL
MODEL 9
REMARK VINA RESULT:      -7.0      2.674      3.497
REMARK  Name = 
REMARK  12 active torsions:
REMARK  status: ('A' for Active; 'I' for Inactive)
REMARK    1  A    between atoms: C_1  and  C_2
REMARK    2  A    between atoms: C_4  and  S_5
REMARK    3  A    between atoms: S_5  and  C_6
REMARK    4  A    between atoms: C_11  and  O_12
REMARK    5  A    between atoms: O_12  and  C_13
REMARK    6  A    between atoms: C_17  and  O_18
REMARK    7  A    between atoms: O_18  and  C_19
REMARK    8  A    between atoms: N_22  and  C_23
REMARK    9  A    between atoms: C_23  and  O_25
REMARK   10  A    between atoms: O_25  and  C_26
REMARK   11  A    between atoms: C_26  and  C_27
REMARK   12  A    between atoms: C_26  and  C_28
REMARK                            x       y       z     vdW  Elec       q    Type
REMARK                         _______ _______ _______ _____ _____    ______ ____
ROOT
ATOM      1  C   UNL     1       1.686   8.763  19.217  0.00  0.00    +0.000 A 
ATOM      2  N   UNL     1       1.290   8.272  20.413  0.00  0.00    +0.000 NA
ATOM      3  C   UNL     1       1.668   7.017  20.686  0.00  0.00    +0.000 A 
ATOM      4  N   UNL     1       2.360   6.207  19.876  0.00  0.00    +0.000 NA
ATOM      5  C   UNL     1       2.735   6.724  18.692  0.00  0.00    +0.000 A 
ATOM      6  C   UNL     1       2.411   8.018  18.306  0.00  0.00    +0.000 A 
ATOM      7  F   UNL     1       2.808   8.526  17.131  0.00  0.00    +0.000 F 
ENDROOT
BRANCH   1   8
ATOM      8  O   UNL     1       1.342  10.078  18.880  0.00  0.00    +0.000 OA
BRANCH   8  15
ATOM      9  C   UNL     1      -0.061  11.683  20.861  0.00  0.00    +0.000 C 
ATOM     10  C   UNL     1      -0.701  11.145  19.612  0.00  0.00    +0.000 A 
ATOM     11  N   UNL     1      -2.012  11.481  19.449  0.00  0.00    +0.000 NA
ATOM     12  C   UNL     1      -2.630  10.999  18.342  0.00  0.00    +0.000 A 
ATOM     13  C   UNL     1      -2.046  10.165  17.408  0.00  0.00    +0.000 A 
ATOM     14  C   UNL     1      -0.712   9.826  17.602  0.00  0.00    +0.000 A 
ATOM     15  C   UNL     1       0.003  10.359  18.684  0.00  0.00    +0.000 A 
BRANCH  12  16
ATOM     16  S   UNL     1      -4.304  11.551  18.101  0.00  0.00    +0.000 S 
ATOM     17  C   UNL     1      -5.332  10.151  18.453  0.00  0.00    +0.000 C 
ATOM     18  O   UNL     1      -4.567  12.558  19.116  0.00  0.00    +0.000 OA
ATOM     19  O   UNL     1      -4.452  11.869  16.692  0.00  0.00    +0.000 OA
ENDBRANCH  12  16
ENDBRANCH   8  15
ENDBRANCH   1   8
BRANCH   5  20
ATOM     20  O   UNL     1       3.583   5.998  17.889  0.00  0.00    +0.000 OA
BRANCH  20  21
ATOM     21  C   UNL     1       4.432   4.968  18.447  0.00  0.00    +0.000 C 
ATOM     22  C   UNL     1       5.949   5.107  18.244  0.00  0.00    +0.000 C 
ATOM     23  C   UNL     1       6.257   5.310  16.773  0.00  0.00    +0.000 C 
ATOM     24  N   UNL     1       5.782   4.188  15.963  0.00  0.00    +0.000 N 
ATOM     25  C   UNL     1       4.396   3.774  16.219  0.00  0.00    +0.000 C 
ATOM     26  C   UNL     1       4.054   3.664  17.712  0.00  0.00    +0.000 C 
BRANCH  24  27
ATOM     27  C   UNL     1       6.128   4.250  14.610  0.00  0.00    +0.000 C 
ATOM     28  S   UNL     1       7.332   5.178  13.920  0.00  0.00    +0.000 S 
BRANCH  27  29
ATOM     29  O   UNL     1       5.403   3.500  13.748  0.00  0.00    +0.000 OA
BRANCH  29  30
ATOM     30  C   UNL     1       5.651   3.524  12.327  0.00  0.00    +0.000 C 
ATOM     31  C   UNL     1       6.473   2.298  11.959  0.00  0.00    +0.000 C 
ATOM     32  C   UNL     1       4.291   3.498  11.639  0.00  0.00    +0.000 C 
ENDBRANCH  29  30
ENDBRANCH  27  29
ENDBRANCH  24  27
ENDBRANCH  20  21
ENDBRANCH   5  20
TORSDOF 8
ENDMDL
