MODEL 1
REMARK VINA RESULT:      -8.2      0.000      0.000
REMARK  Name = 
REMARK  2 active torsions:
REMARK  status: ('A' for Active; 'I' for Inactive)
REMARK    1  A    between atoms: C_1  and  C_2
REMARK    2  A    between atoms: N_14  and  C_15
REMARK                            x       y       z     vdW  Elec       q    Type
REMARK                         _______ _______ _______ _____ _____    ______ ____
ROOT
ATOM      1  C   UNL     1      -2.017  13.427  23.445  0.00  0.00    +0.000 C 
ATOM      2  C   UNL     1      -1.358  12.715  22.300  0.00  0.00    +0.000 A 
ATOM      3  C   UNL     1      -1.341  13.281  21.020  0.00  0.00    +0.000 A 
ATOM      4  C   UNL     1      -0.718  12.614  19.964  0.00  0.00    +0.000 A 
ATOM      5  C   UNL     1      -0.104  11.375  20.164  0.00  0.00    +0.000 A 
ATOM      6  N   UNL     1       0.525  10.763  19.075  0.00  0.00    +0.000 NA
ATOM      7  C   UNL     1       1.078   9.605  19.264  0.00  0.00    +0.000 A 
ATOM      8  C   UNL     1       1.748   8.967  18.122  0.00  0.00    +0.000 A 
ATOM      9  C   UNL     1       2.339   7.786  18.273  0.00  0.00    +0.000 A 
ATOM     10  C   UNL     1       2.248   7.104  19.589  0.00  0.00    +0.000 A 
ATOM     11  N   UNL     1       2.761   5.822  19.665  0.00  0.00    +0.000 N 
ATOM     12  C   UNL     1       4.179   5.533  19.390  0.00  0.00    +0.000 C 
ATOM     13  C   UNL     1       4.320   4.123  18.773  0.00  0.00    +0.000 C 
ATOM     14  N   UNL     1       3.715   3.079  19.626  0.00  0.00    +0.000 NA
ATOM     15  C   UNL     1       3.839   1.758  19.013  0.00  0.00    +0.000 C 
ATOM     16  C   UNL     1       2.295   3.418  19.877  0.00  0.00    +0.000 C 
ATOM     17  C   UNL     1       2.134   4.813  20.532  0.00  0.00    +0.000 C 
ATOM     18  N   UNL     1       1.648   7.657  20.605  0.00  0.00    +0.000 NA
ATOM     19  N   UNL     1       1.091   8.925  20.467  0.00  0.00    +0.000 N 
ATOM     20  C   UNL     1       0.503   9.475  21.614  0.00  0.00    +0.000 A 
ATOM     21  O   UNL     1       0.474   8.955  22.727  0.00  0.00    +0.000 OA
ATOM     22  C   UNL     1      -0.132  10.801  21.433  0.00  0.00    +0.000 A 
ATOM     23  C   UNL     1      -0.749  11.467  22.501  0.00  0.00    +0.000 A 
ENDROOT
TORSDOF 0
ENDMDL
MODEL 2
REMARK VINA RESULT:      -8.0      2.559      8.226
REMARK  Name = 
REMARK  2 active torsions:
REMARK  status: ('A' for Active; 'I' for Inactive)
REMARK    1  A    between atoms: C_1  and  C_2
REMARK    2  A    between atoms: N_14  and  C_15
REMARK                            x       y       z     vdW  Elec       q    Type
REMARK                         _______ _______ _______ _____ _____    ______ ____
ROOT
ATOM      1  C   UNL     1       6.643   4.736  14.195  0.00  0.00    +0.000 C 
ATOM      2  C   UNL     1       5.715   4.643  15.372  0.00  0.00    +0.000 A 
ATOM      3  C   UNL     1       5.331   3.397  15.882  0.00  0.00    +0.000 A 
ATOM      4  C   UNL     1       4.474   3.322  16.982  0.00  0.00    +0.000 A 
ATOM      5  C   UNL     1       3.986   4.481  17.588  0.00  0.00    +0.000 A 
ATOM      6  N   UNL     1       3.150   4.346  18.701  0.00  0.00    +0.000 NA
ATOM      7  C   UNL     1       2.687   5.427  19.249  0.00  0.00    +0.000 A 
ATOM      8  C   UNL     1       1.815   5.285  20.424  0.00  0.00    +0.000 A 
ATOM      9  C   UNL     1       1.328   6.366  21.025  0.00  0.00    +0.000 A 
ATOM     10  C   UNL     1       1.625   7.700  20.446  0.00  0.00    +0.000 A 
ATOM     11  N   UNL     1       0.993   8.786  21.023  0.00  0.00    +0.000 N 
ATOM     12  C   UNL     1       1.185   9.137  22.440  0.00  0.00    +0.000 C 
ATOM     13  C   UNL     1      -0.105   9.773  23.007  0.00  0.00    +0.000 C 
ATOM     14  N   UNL     1      -0.542  10.944  22.218  0.00  0.00    +0.000 NA
ATOM     15  C   UNL     1      -1.775  11.513  22.757  0.00  0.00    +0.000 C 
ATOM     16  C   UNL     1      -0.715  10.540  20.803  0.00  0.00    +0.000 C 
ATOM     17  C   UNL     1       0.580   9.936  20.205  0.00  0.00    +0.000 C 
ATOM     18  N   UNL     1       2.389   7.837  19.399  0.00  0.00    +0.000 NA
ATOM     19  N   UNL     1       2.957   6.709  18.812  0.00  0.00    +0.000 N 
ATOM     20  C   UNL     1       3.803   6.937  17.718  0.00  0.00    +0.000 A 
ATOM     21  O   UNL     1       4.112   8.036  17.264  0.00  0.00    +0.000 OA
ATOM     22  C   UNL     1       4.354   5.722  17.074  0.00  0.00    +0.000 A 
ATOM     23  C   UNL     1       5.220   5.808  15.974  0.00  0.00    +0.000 A 
ENDROOT
TORSDOF 0
ENDMDL
MODEL 3
REMARK VINA RESULT:      -7.8      2.178      8.142
REMARK  Name = 
REMARK  2 active torsions:
REMARK  status: ('A' for Active; 'I' for Inactive)
REMARK    1  A    between atoms: C_1  and  C_2
REMARK    2  A    between atoms: N_14  and  C_15
REMARK                            x       y       z     vdW  Elec       q    Type
REMARK                         _______ _______ _______ _____ _____    ______ ____
ROOT
ATOM      1  C   UNL     1       5.445   5.430  15.936  0.00  0.00    +0.000 C 
ATOM      2  C   UNL     1       4.566   5.775  17.103  0.00  0.00    +0.000 A 
ATOM      3  C   UNL     1       4.462   4.911  18.199  0.00  0.00    +0.000 A 
ATOM      4  C   UNL     1       3.647   5.245  19.283  0.00  0.00    +0.000 A 
ATOM      5  C   UNL     1       2.924   6.440  19.292  0.00  0.00    +0.000 A 
ATOM      6  N   UNL     1       2.142   6.734  20.413  0.00  0.00    +0.000 NA
ATOM      7  C   UNL     1       1.461   7.837  20.408  0.00  0.00    +0.000 A 
ATOM      8  C   UNL     1       0.646   8.151  21.591  0.00  0.00    +0.000 A 
ATOM      9  C   UNL     1      -0.058   9.277  21.634  0.00  0.00    +0.000 A 
ATOM     10  C   UNL     1      -0.058  10.165  20.445  0.00  0.00    +0.000 A 
ATOM     11  N   UNL     1      -0.906  11.257  20.481  0.00  0.00    +0.000 N 
ATOM     12  C   UNL     1      -0.786  12.303  21.510  0.00  0.00    +0.000 C 
ATOM     13  C   UNL     1      -2.181  12.889  21.833  0.00  0.00    +0.000 C 
ATOM     14  N   UNL     1      -2.863  13.400  20.625  0.00  0.00    +0.000 NA
ATOM     15  C   UNL     1      -4.187  13.926  20.950  0.00  0.00    +0.000 C 
ATOM     16  C   UNL     1      -2.953  12.314  19.622  0.00  0.00    +0.000 C 
ATOM     17  C   UNL     1      -1.562  11.739  19.255  0.00  0.00    +0.000 C 
ATOM     18  N   UNL     1       0.652   9.893  19.387  0.00  0.00    +0.000 NA
ATOM     19  N   UNL     1       1.446   8.749  19.369  0.00  0.00    +0.000 N 
ATOM     20  C   UNL     1       2.218   8.544  18.217  0.00  0.00    +0.000 A 
ATOM     21  O   UNL     1       2.280   9.299  17.251  0.00  0.00    +0.000 OA
ATOM     22  C   UNL     1       3.014   7.295  18.196  0.00  0.00    +0.000 A 
ATOM     23  C   UNL     1       3.835   6.971  17.107  0.00  0.00    +0.000 A 
ENDROOT
TORSDOF 0
ENDMDL
MODEL 4
REMARK VINA RESULT:      -7.6      2.154      8.194
REMARK  Name = 
REMARK  2 active torsions:
REMARK  status: ('A' for Active; 'I' for Inactive)
REMARK    1  A    between atoms: C_1  and  C_2
REMARK    2  A    between atoms: N_14  and  C_15
REMARK                            x       y       z     vdW  Elec       q    Type
REMARK                         _______ _______ _______ _____ _____    ______ ____
ROOT
ATOM      1  C   UNL     1       5.988   4.517  15.521  0.00  0.00    +0.000 C 
ATOM      2  C   UNL     1       5.107   4.873  16.683  0.00  0.00    +0.000 A 
ATOM      3  C   UNL     1       4.913   3.971  17.736  0.00  0.00    +0.000 A 
ATOM      4  C   UNL     1       4.097   4.315  18.815  0.00  0.00    +0.000 A 
ATOM      5  C   UNL     1       3.463   5.558  18.864  0.00  0.00    +0.000 A 
ATOM      6  N   UNL     1       2.677   5.858  19.981  0.00  0.00    +0.000 NA
ATOM      7  C   UNL     1       2.078   7.008  20.012  0.00  0.00    +0.000 A 
ATOM      8  C   UNL     1       1.259   7.327  21.191  0.00  0.00    +0.000 A 
ATOM      9  C   UNL     1       0.637   8.500  21.270  0.00  0.00    +0.000 A 
ATOM     10  C   UNL     1       0.731   9.438  20.124  0.00  0.00    +0.000 A 
ATOM     11  N   UNL     1      -0.037  10.586  20.192  0.00  0.00    +0.000 N 
ATOM     12  C   UNL     1       0.133  11.574  21.271  0.00  0.00    +0.000 C 
ATOM     13  C   UNL     1      -1.223  12.246  21.591  0.00  0.00    +0.000 C 
ATOM     14  N   UNL     1      -1.836  12.858  20.394  0.00  0.00    +0.000 NA
ATOM     15  C   UNL     1      -3.126  13.465  20.713  0.00  0.00    +0.000 C 
ATOM     16  C   UNL     1      -1.979  11.828  19.339  0.00  0.00    +0.000 C 
ATOM     17  C   UNL     1      -0.625  11.169  18.977  0.00  0.00    +0.000 C 
ATOM     18  N   UNL     1       1.446   9.161  19.070  0.00  0.00    +0.000 NA
ATOM     19  N   UNL     1       2.155   7.964  19.017  0.00  0.00    +0.000 N 
ATOM     20  C   UNL     1       2.938   7.755  17.873  0.00  0.00    +0.000 A 
ATOM     21  O   UNL     1       3.080   8.546  16.945  0.00  0.00    +0.000 OA
ATOM     22  C   UNL     1       3.642   6.453  17.811  0.00  0.00    +0.000 A 
ATOM     23  C   UNL     1       4.465   6.118  16.726  0.00  0.00    +0.000 A 
ENDROOT
TORSDOF 0
ENDMDL
MODEL 5
REMARK VINA RESULT:      -7.5      2.204      3.183
REMARK  Name = 
REMARK  2 active torsions:
REMARK  status: ('A' for Active; 'I' for Inactive)
REMARK    1  A    between atoms: C_1  and  C_2
REMARK    2  A    between atoms: N_14  and  C_15
REMARK                            x       y       z     vdW  Elec       q    Type
REMARK                         _______ _______ _______ _____ _____    ______ ____
ROOT
ATOM      1  C   UNL     1      -1.599  13.315  21.384  0.00  0.00    +0.000 C 
ATOM      2  C   UNL     1      -0.973  11.955  21.490  0.00  0.00    +0.000 A 
ATOM      3  C   UNL     1      -1.098  11.200  22.662  0.00  0.00    +0.000 A 
ATOM      4  C   UNL     1      -0.518   9.933  22.748  0.00  0.00    +0.000 A 
ATOM      5  C   UNL     1       0.193   9.398  21.672  0.00  0.00    +0.000 A 
ATOM      6  N   UNL     1       0.733   8.115  21.805  0.00  0.00    +0.000 NA
ATOM      7  C   UNL     1       1.406   7.631  20.807  0.00  0.00    +0.000 A 
ATOM      8  C   UNL     1       1.965   6.278  20.944  0.00  0.00    +0.000 A 
ATOM      9  C   UNL     1       2.652   5.739  19.942  0.00  0.00    +0.000 A 
ATOM     10  C   UNL     1       2.898   6.551  18.725  0.00  0.00    +0.000 A 
ATOM     11  N   UNL     1       3.726   6.002  17.763  0.00  0.00    +0.000 N 
ATOM     12  C   UNL     1       3.405   4.731  17.092  0.00  0.00    +0.000 C 
ATOM     13  C   UNL     1       4.707   3.976  16.739  0.00  0.00    +0.000 C 
ATOM     14  N   UNL     1       5.623   4.799  15.921  0.00  0.00    +0.000 NA
ATOM     15  C   UNL     1       6.856   4.075  15.620  0.00  0.00    +0.000 C 
ATOM     16  C   UNL     1       5.910   6.064  16.636  0.00  0.00    +0.000 C 
ATOM     17  C   UNL     1       4.619   6.855  16.965  0.00  0.00    +0.000 C 
ATOM     18  N   UNL     1       2.416   7.755  18.597  0.00  0.00    +0.000 NA
ATOM     19  N   UNL     1       1.636   8.294  19.617  0.00  0.00    +0.000 N 
ATOM     20  C   UNL     1       1.114   9.575  19.390  0.00  0.00    +0.000 A 
ATOM     21  O   UNL     1       1.252  10.237  18.365  0.00  0.00    +0.000 OA
ATOM     22  C   UNL     1       0.332  10.152  20.509  0.00  0.00    +0.000 A 
ATOM     23  C   UNL     1      -0.252  11.423  20.411  0.00  0.00    +0.000 A 
ENDROOT
TORSDOF 0
ENDMDL
MODEL 6
REMARK VINA RESULT:      -7.3      1.633      7.869
REMARK  Name = 
REMARK  2 active torsions:
REMARK  status: ('A' for Active; 'I' for Inactive)
REMARK    1  A    between atoms: C_1  and  C_2
REMARK    2  A    between atoms: N_14  and  C_15
REMARK                            x       y       z     vdW  Elec       q    Type
REMARK                         _______ _______ _______ _____ _____    ______ ____
ROOT
ATOM      1  C   UNL     1       4.460   2.144  19.713  0.00  0.00    +0.000 C 
ATOM      2  C   UNL     1       4.179   3.524  19.192  0.00  0.00    +0.000 A 
ATOM      3  C   UNL     1       4.841   4.009  18.058  0.00  0.00    +0.000 A 
ATOM      4  C   UNL     1       4.566   5.291  17.578  0.00  0.00    +0.000 A 
ATOM      5  C   UNL     1       3.633   6.109  18.218  0.00  0.00    +0.000 A 
ATOM      6  N   UNL     1       3.380   7.375  17.679  0.00  0.00    +0.000 NA
ATOM      7  C   UNL     1       2.524   8.135  18.288  0.00  0.00    +0.000 A 
ATOM      8  C   UNL     1       2.252   9.462  17.716  0.00  0.00    +0.000 A 
ATOM      9  C   UNL     1       1.372  10.270  18.300  0.00  0.00    +0.000 A 
ATOM     10  C   UNL     1       0.732   9.833  19.566  0.00  0.00    +0.000 A 
ATOM     11  N   UNL     1      -0.074  10.755  20.208  0.00  0.00    +0.000 N 
ATOM     12  C   UNL     1      -1.271  11.325  19.567  0.00  0.00    +0.000 C 
ATOM     13  C   UNL     1      -1.497  12.773  20.060  0.00  0.00    +0.000 C 
ATOM     14  N   UNL     1      -1.589  12.851  21.533  0.00  0.00    +0.000 NA
ATOM     15  C   UNL     1      -1.777  14.230  21.977  0.00  0.00    +0.000 C 
ATOM     16  C   UNL     1      -0.367  12.262  22.129  0.00  0.00    +0.000 C 
ATOM     17  C   UNL     1      -0.144  10.797  21.677  0.00  0.00    +0.000 C 
ATOM     18  N   UNL     1       0.973   8.663  20.087  0.00  0.00    +0.000 NA
ATOM     19  N   UNL     1       1.840   7.788  19.438  0.00  0.00    +0.000 N 
ATOM     20  C   UNL     1       2.016   6.531  20.032  0.00  0.00    +0.000 A 
ATOM     21  O   UNL     1       1.446   6.128  21.042  0.00  0.00    +0.000 OA
ATOM     22  C   UNL     1       2.983   5.635  19.355  0.00  0.00    +0.000 A 
ATOM     23  C   UNL     1       3.247   4.347  19.841  0.00  0.00    +0.000 A 
ENDROOT
TORSDOF 0
ENDMDL
MODEL 7
REMARK VINA RESULT:      -7.2      2.257      8.333
REMARK  Name = 
REMARK  2 active torsions:
REMARK  status: ('A' for Active; 'I' for Inactive)
REMARK    1  A    between atoms: C_1  and  C_2
REMARK    2  A    between atoms: N_14  and  C_15
REMARK                            x       y       z     vdW  Elec       q    Type
REMARK                         _______ _______ _______ _____ _____    ______ ____
ROOT
ATOM      1  C   UNL     1       4.329   6.459  16.659  0.00  0.00    +0.000 C 
ATOM      2  C   UNL     1       3.492   6.785  17.862  0.00  0.00    +0.000 A 
ATOM      3  C   UNL     1       3.346   5.861  18.903  0.00  0.00    +0.000 A 
ATOM      4  C   UNL     1       2.572   6.177  20.021  0.00  0.00    +0.000 A 
ATOM      5  C   UNL     1       1.932   7.414  20.120  0.00  0.00    +0.000 A 
ATOM      6  N   UNL     1       1.189   7.687  21.273  0.00  0.00    +0.000 NA
ATOM      7  C   UNL     1       0.584   8.831  21.351  0.00  0.00    +0.000 A 
ATOM      8  C   UNL     1      -0.190   9.121  22.567  0.00  0.00    +0.000 A 
ATOM      9  C   UNL     1      -0.816  10.286  22.695  0.00  0.00    +0.000 A 
ATOM     10  C   UNL     1      -0.774  11.247  21.565  0.00  0.00    +0.000 A 
ATOM     11  N   UNL     1      -1.546  12.389  21.687  0.00  0.00    +0.000 N 
ATOM     12  C   UNL     1      -1.340  13.356  22.778  0.00  0.00    +0.000 C 
ATOM     13  C   UNL     1      -2.686  14.011  23.165  0.00  0.00    +0.000 C 
ATOM     14  N   UNL     1      -3.350  14.643  22.005  0.00  0.00    +0.000 NA
ATOM     15  C   UNL     1      -4.631  15.233  22.388  0.00  0.00    +0.000 C 
ATOM     16  C   UNL     1      -3.529  13.633  20.937  0.00  0.00    +0.000 C 
ATOM     17  C   UNL     1      -2.185  12.992  20.508  0.00  0.00    +0.000 C 
ATOM     18  N   UNL     1      -0.100  10.997  20.478  0.00  0.00    +0.000 NA
ATOM     19  N   UNL     1       0.615   9.807  20.373  0.00  0.00    +0.000 N 
ATOM     20  C   UNL     1       1.353   9.626  19.195  0.00  0.00    +0.000 A 
ATOM     21  O   UNL     1       1.452  10.437  18.278  0.00  0.00    +0.000 OA
ATOM     22  C   UNL     1       2.063   8.331  19.079  0.00  0.00    +0.000 A 
ATOM     23  C   UNL     1       2.844   8.025  17.956  0.00  0.00    +0.000 A 
ENDROOT
TORSDOF 0
ENDMDL
MODEL 8
REMARK VINA RESULT:      -7.1      2.266      8.147
REMARK  Name = 
REMARK  2 active torsions:
REMARK  status: ('A' for Active; 'I' for Inactive)
REMARK    1  A    between atoms: C_1  and  C_2
REMARK    2  A    between atoms: N_14  and  C_15
REMARK                            x       y       z     vdW  Elec       q    Type
REMARK                         _______ _______ _______ _____ _____    ______ ____
ROOT
ATOM      1  C   UNL     1       3.506   3.200  17.452  0.00  0.00    +0.000 C 
ATOM      2  C   UNL     1       2.919   4.187  18.418  0.00  0.00    +0.000 A 
ATOM      3  C   UNL     1       2.428   3.767  19.660  0.00  0.00    +0.000 A 
ATOM      4  C   UNL     1       1.892   4.695  20.555  0.00  0.00    +0.000 A 
ATOM      5  C   UNL     1       1.833   6.051  20.229  0.00  0.00    +0.000 A 
ATOM      6  N   UNL     1       1.307   6.938  21.172  0.00  0.00    +0.000 NA
ATOM      7  C   UNL     1       1.240   8.194  20.856  0.00  0.00    +0.000 A 
ATOM      8  C   UNL     1       0.695   9.129  21.852  0.00  0.00    +0.000 A 
ATOM      9  C   UNL     1       0.620  10.426  21.575  0.00  0.00    +0.000 A 
ATOM     10  C   UNL     1       1.029  10.894  20.227  0.00  0.00    +0.000 A 
ATOM     11  N   UNL     1       0.811  12.229  19.937  0.00  0.00    +0.000 N 
ATOM     12  C   UNL     1       1.436  13.309  20.720  0.00  0.00    +0.000 C 
ATOM     13  C   UNL     1       0.501  14.539  20.762  0.00  0.00    +0.000 C 
ATOM     14  N   UNL     1       0.129  15.003  19.408  0.00  0.00    +0.000 NA
ATOM     15  C   UNL     1      -0.773  16.150  19.472  0.00  0.00    +0.000 C 
ATOM     16  C   UNL     1      -0.487  13.881  18.662  0.00  0.00    +0.000 C 
ATOM     17  C   UNL     1       0.450  12.651  18.575  0.00  0.00    +0.000 C 
ATOM     18  N   UNL     1       1.504  10.074  19.333  0.00  0.00    +0.000 NA
ATOM     19  N   UNL     1       1.650   8.725  19.648  0.00  0.00    +0.000 N 
ATOM     20  C   UNL     1       2.210   7.911  18.654  0.00  0.00    +0.000 A 
ATOM     21  O   UNL     1       2.613   8.290  17.557  0.00  0.00    +0.000 OA
ATOM     22  C   UNL     1       2.306   6.471  18.987  0.00  0.00    +0.000 A 
ATOM     23  C   UNL     1       2.854   5.548  18.086  0.00  0.00    +0.000 A 
ENDROOT
TORSDOF 0
ENDMDL
MODEL 9
REMARK VINA RESULT:      -7.0      1.980      8.219
REMARK  Name = 
REMARK  2 active torsions:
REMARK  status: ('A' for Active; 'I' for Inactive)
REMARK    1  A    between atoms: C_1  and  C_2
REMARK    2  A    between atoms: N_14  and  C_15
REMARK                            x       y       z     vdW  Elec       q    Type
REMARK                         _______ _______ _______ _____ _____    ______ ____
ROOT
ATOM      1  C   UNL     1       4.296   4.333  16.708  0.00  0.00    +0.000 C 
ATOM      2  C   UNL     1       3.567   5.014  17.830  0.00  0.00    +0.000 A 
ATOM      3  C   UNL     1       3.241   4.316  18.999  0.00  0.00    +0.000 A 
ATOM      4  C   UNL     1       2.569   4.961  20.039  0.00  0.00    +0.000 A 
ATOM      5  C   UNL     1       2.210   6.306  19.932  0.00  0.00    +0.000 A 
ATOM      6  N   UNL     1       1.560   6.907  21.014  0.00  0.00    +0.000 NA
ATOM      7  C   UNL     1       1.214   8.152  20.902  0.00  0.00    +0.000 A 
ATOM      8  C   UNL     1       0.538   8.786  22.044  0.00  0.00    +0.000 A 
ATOM      9  C   UNL     1       0.178  10.063  21.977  0.00  0.00    +0.000 A 
ATOM     10  C   UNL     1       0.408  10.806  20.712  0.00  0.00    +0.000 A 
ATOM     11  N   UNL     1      -0.099  12.090  20.641  0.00  0.00    +0.000 N 
ATOM     12  C   UNL     1       0.325  13.149  21.572  0.00  0.00    +0.000 C 
ATOM     13  C   UNL     1      -0.845  14.129  21.826  0.00  0.00    +0.000 C 
ATOM     14  N   UNL     1      -1.375  14.699  20.570  0.00  0.00    +0.000 NA
ATOM     15  C   UNL     1      -2.494  15.602  20.832  0.00  0.00    +0.000 C 
ATOM     16  C   UNL     1      -1.781  13.596  19.668  0.00  0.00    +0.000 C 
ATOM     17  C   UNL     1      -0.612  12.625  19.370  0.00  0.00    +0.000 C 
ATOM     18  N   UNL     1       0.998  10.251  19.691  0.00  0.00    +0.000 NA
ATOM     19  N   UNL     1       1.439   8.934  19.785  0.00  0.00    +0.000 N 
ATOM     20  C   UNL     1       2.105   8.419  18.664  0.00  0.00    +0.000 A 
ATOM     21  O   UNL     1       2.362   9.036  17.634  0.00  0.00    +0.000 OA
ATOM     22  C   UNL     1       2.519   7.000  18.765  0.00  0.00    +0.000 A 
ATOM     23  C   UNL     1       3.200   6.363  17.718  0.00  0.00    +0.000 A 
ENDROOT
TORSDOF 0
ENDMDL
