MODEL 1
REMARK VINA RESULT:      -7.0      0.000      0.000
REMARK  Name = 
REMARK  3 active torsions:
REMARK  status: ('A' for Active; 'I' for Inactive)
REMARK    1  A    between atoms: C_1  and  N_2
REMARK    2  A    between atoms: C_6  and  C_7
REMARK    3  A    between atoms: N_16  and  C_17
REMARK                            x       y       z     vdW  Elec       q    Type
REMARK                         _______ _______ _______ _____ _____    ______ ____
ROOT
ATOM      1  C   UNL     1       7.648   6.489  18.521  0.00  0.00    +0.000 C 
ATOM      2  N   UNL     1       6.676   5.727  17.771  0.00  0.00    +0.000 N 
ATOM      3  C   UNL     1       5.614   5.188  18.501  0.00  0.00    +0.000 A 
ATOM      4  O   UNL     1       5.501   5.360  19.711  0.00  0.00    +0.000 OA
ATOM      5  C   UNL     1       4.678   4.420  17.714  0.00  0.00    +0.000 A 
ATOM      6  C   UNL     1       3.498   3.696  18.051  0.00  0.00    +0.000 A 
ATOM      7  C   UNL     1       3.012   3.166  16.865  0.00  0.00    +0.000 A 
ATOM      8  N   UNL     1       3.849   3.547  15.844  0.00  0.00    +0.000 N 
ATOM      9  C   UNL     1       4.863   4.304  16.359  0.00  0.00    +0.000 A 
ATOM     10  N   UNL     1       5.912   4.872  15.665  0.00  0.00    +0.000 N 
ATOM     11  C   UNL     1       6.117   4.764  14.230  0.00  0.00    +0.000 C 
ATOM     12  C   UNL     1       6.857   5.612  16.393  0.00  0.00    +0.000 A 
ATOM     13  O   UNL     1       7.817   6.152  15.828  0.00  0.00    +0.000 OA
ATOM     14  H   UNL     1       3.723   3.293  14.874  0.00  0.00    +0.000 HD
ENDROOT
BRANCH   6  15
ATOM     15  C   UNL     1       2.864   3.467  19.341  0.00  0.00    +0.000 A 
ATOM     16  C   UNL     1       1.637   4.060  19.656  0.00  0.00    +0.000 A 
ATOM     17  C   UNL     1       1.029   3.810  20.887  0.00  0.00    +0.000 A 
ATOM     18  C   UNL     1       1.645   2.973  21.816  0.00  0.00    +0.000 A 
ATOM     19  C   UNL     1       2.864   2.384  21.522  0.00  0.00    +0.000 A 
ATOM     20  C   UNL     1       3.459   2.622  20.287  0.00  0.00    +0.000 A 
ENDBRANCH   6  15
TORSDOF 1
ENDMDL
MODEL 2
REMARK VINA RESULT:      -6.9      0.023      1.105
REMARK  Name = 
REMARK  3 active torsions:
REMARK  status: ('A' for Active; 'I' for Inactive)
REMARK    1  A    between atoms: C_1  and  N_2
REMARK    2  A    between atoms: C_6  and  C_7
REMARK    3  A    between atoms: N_16  and  C_17
REMARK                            x       y       z     vdW  Elec       q    Type
REMARK                         _______ _______ _______ _____ _____    ______ ____
ROOT
ATOM      1  C   UNL     1       7.634   6.482  18.527  0.00  0.00    +0.000 C 
ATOM      2  N   UNL     1       6.664   5.720  17.773  0.00  0.00    +0.000 N 
ATOM      3  C   UNL     1       5.607   5.171  18.501  0.00  0.00    +0.000 A 
ATOM      4  O   UNL     1       5.494   5.334  19.712  0.00  0.00    +0.000 OA
ATOM      5  C   UNL     1       4.674   4.403  17.710  0.00  0.00    +0.000 A 
ATOM      6  C   UNL     1       3.497   3.671  18.043  0.00  0.00    +0.000 A 
ATOM      7  C   UNL     1       3.012   3.147  16.854  0.00  0.00    +0.000 A 
ATOM      8  N   UNL     1       3.846   3.540  15.835  0.00  0.00    +0.000 N 
ATOM      9  C   UNL     1       4.857   4.298  16.354  0.00  0.00    +0.000 A 
ATOM     10  N   UNL     1       5.902   4.877  15.662  0.00  0.00    +0.000 N 
ATOM     11  C   UNL     1       6.105   4.779  14.226  0.00  0.00    +0.000 C 
ATOM     12  C   UNL     1       6.844   5.616  16.394  0.00  0.00    +0.000 A 
ATOM     13  O   UNL     1       7.801   6.165  15.831  0.00  0.00    +0.000 OA
ATOM     14  H   UNL     1       3.719   3.292  14.863  0.00  0.00    +0.000 HD
ENDROOT
BRANCH   6  15
ATOM     15  C   UNL     1       2.866   3.430  19.333  0.00  0.00    +0.000 A 
ATOM     16  C   UNL     1       3.474   2.612  20.290  0.00  0.00    +0.000 A 
ATOM     17  C   UNL     1       2.869   2.413  21.532  0.00  0.00    +0.000 A 
ATOM     18  C   UNL     1       1.649   3.020  21.824  0.00  0.00    +0.000 A 
ATOM     19  C   UNL     1       1.030   3.828  20.883  0.00  0.00    +0.000 A 
ATOM     20  C   UNL     1       1.645   4.038  19.652  0.00  0.00    +0.000 A 
ENDBRANCH   6  15
TORSDOF 1
ENDMDL
MODEL 3
REMARK VINA RESULT:      -6.7      3.581      4.947
REMARK  Name = 
REMARK  3 active torsions:
REMARK  status: ('A' for Active; 'I' for Inactive)
REMARK    1  A    between atoms: C_1  and  N_2
REMARK    2  A    between atoms: C_6  and  C_7
REMARK    3  A    between atoms: N_16  and  C_17
REMARK                            x       y       z     vdW  Elec       q    Type
REMARK                         _______ _______ _______ _____ _____    ______ ____
ROOT
ATOM      1  C   UNL     1       1.683   2.339  19.181  0.00  0.00    +0.000 C 
ATOM      2  N   UNL     1       2.498   3.358  18.560  0.00  0.00    +0.000 N 
ATOM      3  C   UNL     1       2.148   4.682  18.832  0.00  0.00    +0.000 A 
ATOM      4  O   UNL     1       1.208   4.971  19.566  0.00  0.00    +0.000 OA
ATOM      5  C   UNL     1       2.978   5.665  18.177  0.00  0.00    +0.000 A 
ATOM      6  C   UNL     1       2.958   7.091  18.159  0.00  0.00    +0.000 A 
ATOM      7  C   UNL     1       4.017   7.486  17.356  0.00  0.00    +0.000 A 
ATOM      8  N   UNL     1       4.663   6.362  16.903  0.00  0.00    +0.000 N 
ATOM      9  C   UNL     1       4.030   5.256  17.396  0.00  0.00    +0.000 A 
ATOM     10  N   UNL     1       4.364   3.936  17.170  0.00  0.00    +0.000 N 
ATOM     11  C   UNL     1       5.479   3.488  16.351  0.00  0.00    +0.000 C 
ATOM     12  C   UNL     1       3.572   2.946  17.771  0.00  0.00    +0.000 A 
ATOM     13  O   UNL     1       3.824   1.744  17.612  0.00  0.00    +0.000 OA
ATOM     14  H   UNL     1       5.472   6.370  16.296  0.00  0.00    +0.000 HD
ENDROOT
BRANCH   6  15
ATOM     15  C   UNL     1       2.044   8.032  18.788  0.00  0.00    +0.000 A 
ATOM     16  C   UNL     1       1.798   7.987  20.164  0.00  0.00    +0.000 A 
ATOM     17  C   UNL     1       0.939   8.913  20.756  0.00  0.00    +0.000 A 
ATOM     18  C   UNL     1       0.311   9.886  19.979  0.00  0.00    +0.000 A 
ATOM     19  C   UNL     1       0.538   9.939  18.613  0.00  0.00    +0.000 A 
ATOM     20  C   UNL     1       1.409   9.024  18.028  0.00  0.00    +0.000 A 
ENDBRANCH   6  15
TORSDOF 1
ENDMDL
MODEL 4
REMARK VINA RESULT:      -6.6      2.470      5.678
REMARK  Name = 
REMARK  3 active torsions:
REMARK  status: ('A' for Active; 'I' for Inactive)
REMARK    1  A    between atoms: C_1  and  N_2
REMARK    2  A    between atoms: C_6  and  C_7
REMARK    3  A    between atoms: N_16  and  C_17
REMARK                            x       y       z     vdW  Elec       q    Type
REMARK                         _______ _______ _______ _____ _____    ______ ____
ROOT
ATOM      1  C   UNL     1       2.234   7.839  19.348  0.00  0.00    +0.000 C 
ATOM      2  N   UNL     1       2.483   6.417  19.270  0.00  0.00    +0.000 N 
ATOM      3  C   UNL     1       3.404   6.001  18.308  0.00  0.00    +0.000 A 
ATOM      4  O   UNL     1       3.984   6.795  17.572  0.00  0.00    +0.000 OA
ATOM      5  C   UNL     1       3.607   4.572  18.255  0.00  0.00    +0.000 A 
ATOM      6  C   UNL     1       4.418   3.740  17.429  0.00  0.00    +0.000 A 
ATOM      7  C   UNL     1       4.204   2.438  17.855  0.00  0.00    +0.000 A 
ATOM      8  N   UNL     1       3.307   2.463  18.896  0.00  0.00    +0.000 N 
ATOM      9  C   UNL     1       2.941   3.757  19.136  0.00  0.00    +0.000 A 
ATOM     10  N   UNL     1       2.055   4.206  20.094  0.00  0.00    +0.000 N 
ATOM     11  C   UNL     1       1.348   3.357  21.038  0.00  0.00    +0.000 C 
ATOM     12  C   UNL     1       1.812   5.587  20.169  0.00  0.00    +0.000 A 
ATOM     13  O   UNL     1       1.033   6.053  21.011  0.00  0.00    +0.000 OA
ATOM     14  H   UNL     1       2.978   1.644  19.389  0.00  0.00    +0.000 HD
ENDROOT
BRANCH   6  15
ATOM     15  C   UNL     1       5.298   4.078  16.320  0.00  0.00    +0.000 A 
ATOM     16  C   UNL     1       4.885   3.908  14.995  0.00  0.00    +0.000 A 
ATOM     17  C   UNL     1       5.730   4.262  13.943  0.00  0.00    +0.000 A 
ATOM     18  C   UNL     1       6.998   4.780  14.205  0.00  0.00    +0.000 A 
ATOM     19  C   UNL     1       7.425   4.948  15.513  0.00  0.00    +0.000 A 
ATOM     20  C   UNL     1       6.572   4.609  16.559  0.00  0.00    +0.000 A 
ENDBRANCH   6  15
TORSDOF 1
ENDMDL
MODEL 5
REMARK VINA RESULT:      -6.6      2.469      5.738
REMARK  Name = 
REMARK  3 active torsions:
REMARK  status: ('A' for Active; 'I' for Inactive)
REMARK    1  A    between atoms: C_1  and  N_2
REMARK    2  A    between atoms: C_6  and  C_7
REMARK    3  A    between atoms: N_16  and  C_17
REMARK                            x       y       z     vdW  Elec       q    Type
REMARK                         _______ _______ _______ _____ _____    ______ ____
ROOT
ATOM      1  C   UNL     1       2.225   7.841  19.370  0.00  0.00    +0.000 C 
ATOM      2  N   UNL     1       2.476   6.421  19.281  0.00  0.00    +0.000 N 
ATOM      3  C   UNL     1       3.403   6.014  18.318  0.00  0.00    +0.000 A 
ATOM      4  O   UNL     1       3.984   6.815  17.593  0.00  0.00    +0.000 OA
ATOM      5  C   UNL     1       3.608   4.586  18.254  0.00  0.00    +0.000 A 
ATOM      6  C   UNL     1       4.423   3.763  17.424  0.00  0.00    +0.000 A 
ATOM      7  C   UNL     1       4.209   2.457  17.838  0.00  0.00    +0.000 A 
ATOM      8  N   UNL     1       3.308   2.472  18.875  0.00  0.00    +0.000 N 
ATOM      9  C   UNL     1       2.939   3.763  19.125  0.00  0.00    +0.000 A 
ATOM     10  N   UNL     1       2.048   4.202  20.083  0.00  0.00    +0.000 N 
ATOM     11  C   UNL     1       1.338   3.343  21.016  0.00  0.00    +0.000 C 
ATOM     12  C   UNL     1       1.803   5.581  20.169  0.00  0.00    +0.000 A 
ATOM     13  O   UNL     1       1.020   6.039  21.011  0.00  0.00    +0.000 OA
ATOM     14  H   UNL     1       2.978   1.648  19.359  0.00  0.00    +0.000 HD
ENDROOT
BRANCH   6  15
ATOM     15  C   UNL     1       5.308   4.112  16.322  0.00  0.00    +0.000 A 
ATOM     16  C   UNL     1       6.572   4.660  16.559  0.00  0.00    +0.000 A 
ATOM     17  C   UNL     1       7.419   4.965  15.493  0.00  0.00    +0.000 A 
ATOM     18  C   UNL     1       7.007   4.734  14.181  0.00  0.00    +0.000 A 
ATOM     19  C   UNL     1       5.754   4.198  13.929  0.00  0.00    +0.000 A 
ATOM     20  C   UNL     1       4.919   3.879  14.996  0.00  0.00    +0.000 A 
ENDBRANCH   6  15
TORSDOF 1
ENDMDL
MODEL 6
REMARK VINA RESULT:      -6.6      3.703      4.998
REMARK  Name = 
REMARK  3 active torsions:
REMARK  status: ('A' for Active; 'I' for Inactive)
REMARK    1  A    between atoms: C_1  and  N_2
REMARK    2  A    between atoms: C_6  and  C_7
REMARK    3  A    between atoms: N_16  and  C_17
REMARK                            x       y       z     vdW  Elec       q    Type
REMARK                         _______ _______ _______ _____ _____    ______ ____
ROOT
ATOM      1  C   UNL     1       1.711   2.467  20.059  0.00  0.00    +0.000 C 
ATOM      2  N   UNL     1       2.351   3.514  19.295  0.00  0.00    +0.000 N 
ATOM      3  C   UNL     1       1.988   4.824  19.615  0.00  0.00    +0.000 A 
ATOM      4  O   UNL     1       1.180   5.079  20.502  0.00  0.00    +0.000 OA
ATOM      5  C   UNL     1       2.639   5.835  18.814  0.00  0.00    +0.000 A 
ATOM      6  C   UNL     1       2.545   7.257  18.789  0.00  0.00    +0.000 A 
ATOM      7  C   UNL     1       3.423   7.689  17.807  0.00  0.00    +0.000 A 
ATOM      8  N   UNL     1       4.034   6.589  17.255  0.00  0.00    +0.000 N 
ATOM      9  C   UNL     1       3.555   5.463  17.862  0.00  0.00    +0.000 A 
ATOM     10  N   UNL     1       3.909   4.157  17.590  0.00  0.00    +0.000 N 
ATOM     11  C   UNL     1       4.881   3.749  16.590  0.00  0.00    +0.000 C 
ATOM     12  C   UNL     1       3.287   3.140  18.331  0.00  0.00    +0.000 A 
ATOM     13  O   UNL     1       3.566   1.949  18.139  0.00  0.00    +0.000 OA
ATOM     14  H   UNL     1       4.720   6.626  16.513  0.00  0.00    +0.000 HD
ENDROOT
BRANCH   6  15
ATOM     15  C   UNL     1       1.711   8.163  19.563  0.00  0.00    +0.000 A 
ATOM     16  C   UNL     1       0.993   9.191  18.942  0.00  0.00    +0.000 A 
ATOM     17  C   UNL     1       0.177  10.035  19.695  0.00  0.00    +0.000 A 
ATOM     18  C   UNL     1       0.077   9.867  21.076  0.00  0.00    +0.000 A 
ATOM     19  C   UNL     1       0.787   8.858  21.707  0.00  0.00    +0.000 A 
ATOM     20  C   UNL     1       1.587   8.007  20.950  0.00  0.00    +0.000 A 
ENDBRANCH   6  15
TORSDOF 1
ENDMDL
MODEL 7
REMARK VINA RESULT:      -6.6      2.562      6.095
REMARK  Name = 
REMARK  3 active torsions:
REMARK  status: ('A' for Active; 'I' for Inactive)
REMARK    1  A    between atoms: C_1  and  N_2
REMARK    2  A    between atoms: C_6  and  C_7
REMARK    3  A    between atoms: N_16  and  C_17
REMARK                            x       y       z     vdW  Elec       q    Type
REMARK                         _______ _______ _______ _____ _____    ______ ____
ROOT
ATOM      1  C   UNL     1       2.245   1.819  19.412  0.00  0.00    +0.000 C 
ATOM      2  N   UNL     1       2.498   3.224  19.190  0.00  0.00    +0.000 N 
ATOM      3  C   UNL     1       3.358   3.540  18.136  0.00  0.00    +0.000 A 
ATOM      4  O   UNL     1       3.866   2.677  17.427  0.00  0.00    +0.000 OA
ATOM      5  C   UNL     1       3.595   4.955  17.964  0.00  0.00    +0.000 A 
ATOM      6  C   UNL     1       4.402   5.696  17.052  0.00  0.00    +0.000 A 
ATOM      7  C   UNL     1       4.217   7.034  17.365  0.00  0.00    +0.000 A 
ATOM      8  N   UNL     1       3.335   7.117  18.415  0.00  0.00    +0.000 N 
ATOM      9  C   UNL     1       2.961   5.856  18.783  0.00  0.00    +0.000 A 
ATOM     10  N   UNL     1       2.095   5.508  19.800  0.00  0.00    +0.000 N 
ATOM     11  C   UNL     1       1.412   6.451  20.670  0.00  0.00    +0.000 C 
ATOM     12  C   UNL     1       1.850   4.143  20.016  0.00  0.00    +0.000 A 
ATOM     13  O   UNL     1       1.078   3.767  20.908  0.00  0.00    +0.000 OA
ATOM     14  H   UNL     1       3.029   7.982  18.840  0.00  0.00    +0.000 HD
ENDROOT
BRANCH   6  15
ATOM     15  C   UNL     1       5.297   5.243  15.997  0.00  0.00    +0.000 A 
ATOM     16  C   UNL     1       6.680   5.421  16.100  0.00  0.00    +0.000 A 
ATOM     17  C   UNL     1       7.527   4.958  15.093  0.00  0.00    +0.000 A 
ATOM     18  C   UNL     1       6.999   4.321  13.971  0.00  0.00    +0.000 A 
ATOM     19  C   UNL     1       5.630   4.143  13.850  0.00  0.00    +0.000 A 
ATOM     20  C   UNL     1       4.790   4.591  14.865  0.00  0.00    +0.000 A 
ENDBRANCH   6  15
TORSDOF 1
ENDMDL
MODEL 8
REMARK VINA RESULT:      -6.6      2.567      6.055
REMARK  Name = 
REMARK  3 active torsions:
REMARK  status: ('A' for Active; 'I' for Inactive)
REMARK    1  A    between atoms: C_1  and  N_2
REMARK    2  A    between atoms: C_6  and  C_7
REMARK    3  A    between atoms: N_16  and  C_17
REMARK                            x       y       z     vdW  Elec       q    Type
REMARK                         _______ _______ _______ _____ _____    ______ ____
ROOT
ATOM      1  C   UNL     1       2.198   1.795  19.384  0.00  0.00    +0.000 C 
ATOM      2  N   UNL     1       2.460   3.200  19.168  0.00  0.00    +0.000 N 
ATOM      3  C   UNL     1       3.333   3.514  18.124  0.00  0.00    +0.000 A 
ATOM      4  O   UNL     1       3.843   2.650  17.418  0.00  0.00    +0.000 OA
ATOM      5  C   UNL     1       3.579   4.927  17.958  0.00  0.00    +0.000 A 
ATOM      6  C   UNL     1       4.399   5.667  17.057  0.00  0.00    +0.000 A 
ATOM      7  C   UNL     1       4.218   7.005  17.371  0.00  0.00    +0.000 A 
ATOM      8  N   UNL     1       3.326   7.090  18.413  0.00  0.00    +0.000 N 
ATOM      9  C   UNL     1       2.942   5.829  18.773  0.00  0.00    +0.000 A 
ATOM     10  N   UNL     1       2.063   5.484  19.780  0.00  0.00    +0.000 N 
ATOM     11  C   UNL     1       1.377   6.428  20.646  0.00  0.00    +0.000 C 
ATOM     12  C   UNL     1       1.810   4.120  19.991  0.00  0.00    +0.000 A 
ATOM     13  O   UNL     1       1.027   3.745  20.874  0.00  0.00    +0.000 OA
ATOM     14  H   UNL     1       3.021   7.955  18.837  0.00  0.00    +0.000 HD
ENDROOT
BRANCH   6  15
ATOM     15  C   UNL     1       5.302   5.212  16.010  0.00  0.00    +0.000 A 
ATOM     16  C   UNL     1       4.816   4.561  14.871  0.00  0.00    +0.000 A 
ATOM     17  C   UNL     1       5.692   4.155  13.864  0.00  0.00    +0.000 A 
ATOM     18  C   UNL     1       7.061   4.386  13.989  0.00  0.00    +0.000 A 
ATOM     19  C   UNL     1       7.559   5.023  15.114  0.00  0.00    +0.000 A 
ATOM     20  C   UNL     1       6.681   5.442  16.109  0.00  0.00    +0.000 A 
ENDBRANCH   6  15
TORSDOF 1
ENDMDL
MODEL 9
REMARK VINA RESULT:      -6.5      3.999      5.319
REMARK  Name = 
REMARK  3 active torsions:
REMARK  status: ('A' for Active; 'I' for Inactive)
REMARK    1  A    between atoms: C_1  and  N_2
REMARK    2  A    between atoms: C_6  and  C_7
REMARK    3  A    between atoms: N_16  and  C_17
REMARK                            x       y       z     vdW  Elec       q    Type
REMARK                         _______ _______ _______ _____ _____    ______ ____
ROOT
ATOM      1  C   UNL     1       2.340   3.365  21.102  0.00  0.00    +0.000 C 
ATOM      2  N   UNL     1       2.889   4.263  20.112  0.00  0.00    +0.000 N 
ATOM      3  C   UNL     1       2.293   5.522  20.018  0.00  0.00    +0.000 A 
ATOM      4  O   UNL     1       1.361   5.858  20.743  0.00  0.00    +0.000 OA
ATOM      5  C   UNL     1       2.862   6.378  19.004  0.00  0.00    +0.000 A 
ATOM      6  C   UNL     1       2.550   7.698  18.566  0.00  0.00    +0.000 A 
ATOM      7  C   UNL     1       3.454   7.999  17.558  0.00  0.00    +0.000 A 
ATOM      8  N   UNL     1       4.286   6.920  17.384  0.00  0.00    +0.000 N 
ATOM      9  C   UNL     1       3.925   5.934  18.257  0.00  0.00    +0.000 A 
ATOM     10  N   UNL     1       4.507   4.690  18.394  0.00  0.00    +0.000 N 
ATOM     11  C   UNL     1       5.637   4.210  17.616  0.00  0.00    +0.000 C 
ATOM     12  C   UNL     1       3.974   3.818  19.355  0.00  0.00    +0.000 A 
ATOM     13  O   UNL     1       4.455   2.690  19.531  0.00  0.00    +0.000 OA
ATOM     14  H   UNL     1       5.037   6.879  16.708  0.00  0.00    +0.000 HD
ENDROOT
BRANCH   6  15
ATOM     15  C   UNL     1       1.503   8.614  18.994  0.00  0.00    +0.000 A 
ATOM     16  C   UNL     1       1.219   8.800  20.351  0.00  0.00    +0.000 A 
ATOM     17  C   UNL     1       0.231   9.702  20.746  0.00  0.00    +0.000 A 
ATOM     18  C   UNL     1      -0.489  10.418  19.790  0.00  0.00    +0.000 A 
ATOM     19  C   UNL     1      -0.224  10.240  18.442  0.00  0.00    +0.000 A 
ATOM     20  C   UNL     1       0.774   9.352  18.052  0.00  0.00    +0.000 A 
ENDBRANCH   6  15
TORSDOF 1
ENDMDL
