MODEL 1
REMARK VINA RESULT:      -8.6      0.000      0.000
REMARK  Name = 
REMARK  10 active torsions:
REMARK  status: ('A' for Active; 'I' for Inactive)
REMARK    1  A    between atoms: C_1  and  O_2
REMARK    2  A    between atoms: O_2  and  C_3
REMARK    3  A    between atoms: C_6  and  C_7
REMARK    4  A    between atoms: N_9  and  C_10
REMARK    5  A    between atoms: C_10  and  C_11
REMARK    6  A    between atoms: C_10  and  C_15
REMARK    7  A    between atoms: C_11  and  C_12
REMARK    8  A    between atoms: C_12  and  O_14
REMARK    9  A    between atoms: C_20  and  C_21
REMARK   10  A    between atoms: C_23  and  C_24
REMARK                            x       y       z     vdW  Elec       q    Type
REMARK                         _______ _______ _______ _____ _____    ______ ____
ROOT
ATOM      1  C   UNL     1       2.471   6.332  19.285  0.00  0.00    +0.000 C 
ATOM      2  O   UNL     1       2.459   5.769  20.375  0.00  0.00    +0.000 OA
ATOM      3  N   UNL     1       2.826   5.672  18.119  0.00  0.00    +0.000 N 
ATOM      4  H   UNL     1       2.957   6.197  17.268  0.00  0.00    +0.000 HD
ENDROOT
BRANCH   1   8
ATOM      5  C   UNL     1       1.252  10.374  18.775  0.00  0.00    +0.000 A 
ATOM      6  N   UNL     1       1.957   9.760  17.792  0.00  0.00    +0.000 NA
ATOM      7  C   UNL     1       2.350   8.478  18.023  0.00  0.00    +0.000 A 
ATOM      8  C   UNL     1       2.160   7.797  19.220  0.00  0.00    +0.000 A 
ATOM      9  C   UNL     1       1.544   8.510  20.249  0.00  0.00    +0.000 A 
ATOM     10  C   UNL     1       0.977   9.791  20.024  0.00  0.00    +0.000 A 
BRANCH  10  11
ATOM     11  C   UNL     1      -0.025  10.327  20.989  0.00  0.00    +0.000 A 
ATOM     12  C   UNL     1      -0.162   9.881  22.318  0.00  0.00    +0.000 A 
ATOM     13  C   UNL     1      -1.012  10.536  23.221  0.00  0.00    +0.000 A 
ATOM     14  C   UNL     1      -1.764  11.622  22.799  0.00  0.00    +0.000 A 
ATOM     15  F   UNL     1      -2.558  12.261  23.666  0.00  0.00    +0.000 F 
ATOM     16  C   UNL     1      -1.690  12.066  21.491  0.00  0.00    +0.000 A 
ATOM     17  C   UNL     1      -0.817  11.425  20.602  0.00  0.00    +0.000 A 
ENDBRANCH  10  11
BRANCH   5  19
ATOM     18  C   UNL     1       1.767  12.635  18.364  0.00  0.00    +0.000 C 
ATOM     19  O   UNL     1       0.765  11.640  18.527  0.00  0.00    +0.000 OA
ENDBRANCH   5  19
ENDBRANCH   1   8
BRANCH   3  20
ATOM     20  C   UNL     1       3.387   4.303  18.082  0.00  0.00    +0.000 C 
BRANCH  20  21
ATOM     21  C   UNL     1       4.715   4.349  17.310  0.00  0.00    +0.000 A 
ATOM     22  C   UNL     1       4.707   3.930  15.960  0.00  0.00    +0.000 A 
ATOM     23  C   UNL     1       5.861   3.933  15.179  0.00  0.00    +0.000 A 
ATOM     24  C   UNL     1       7.052   4.393  15.715  0.00  0.00    +0.000 A 
ATOM     25  C   UNL     1       7.092   4.822  17.039  0.00  0.00    +0.000 A 
ATOM     26  C   UNL     1       5.943   4.788  17.860  0.00  0.00    +0.000 A 
ATOM     27  C   UNL     1       6.115   5.249  19.282  0.00  0.00    +0.000 C 
ENDBRANCH  20  21
BRANCH  20  28
ATOM     28  C   UNL     1       2.412   3.270  17.484  0.00  0.00    +0.000 C 
BRANCH  28  29
ATOM     29  C   UNL     1       1.452   2.767  18.528  0.00  0.00    +0.000 C 
ATOM     30  O   UNL     1       0.368   2.260  18.282  0.00  0.00    +0.000 OA
BRANCH  29  31
ATOM     31  O   UNL     1       1.897   2.935  19.794  0.00  0.00    +0.000 OA
ATOM     32  H   UNL     1       2.244   3.832  19.980  0.00  0.00    +0.000 HD
ENDBRANCH  29  31
ENDBRANCH  28  29
ENDBRANCH  20  28
ENDBRANCH   3  20
TORSDOF 8
ENDMDL
MODEL 2
REMARK VINA RESULT:      -8.5      2.889      8.075
REMARK  Name = 
REMARK  10 active torsions:
REMARK  status: ('A' for Active; 'I' for Inactive)
REMARK    1  A    between atoms: C_1  and  O_2
REMARK    2  A    between atoms: O_2  and  C_3
REMARK    3  A    between atoms: C_6  and  C_7
REMARK    4  A    between atoms: N_9  and  C_10
REMARK    5  A    between atoms: C_10  and  C_11
REMARK    6  A    between atoms: C_10  and  C_15
REMARK    7  A    between atoms: C_11  and  C_12
REMARK    8  A    between atoms: C_12  and  O_14
REMARK    9  A    between atoms: C_20  and  C_21
REMARK   10  A    between atoms: C_23  and  C_24
REMARK                            x       y       z     vdW  Elec       q    Type
REMARK                         _______ _______ _______ _____ _____    ______ ____
ROOT
ATOM      1  C   UNL     1       1.781   9.565  17.984  0.00  0.00    +0.000 C 
ATOM      2  O   UNL     1       2.467  10.547  17.717  0.00  0.00    +0.000 OA
ATOM      3  N   UNL     1       0.500   9.679  18.502  0.00  0.00    +0.000 N 
ATOM      4  H   UNL     1       0.021   8.857  18.835  0.00  0.00    +0.000 HD
ENDROOT
BRANCH   1   8
ATOM      5  C   UNL     1       3.809   5.832  17.782  0.00  0.00    +0.000 A 
ATOM      6  N   UNL     1       4.325   6.908  17.137  0.00  0.00    +0.000 NA
ATOM      7  C   UNL     1       3.617   8.068  17.208  0.00  0.00    +0.000 A 
ATOM      8  C   UNL     1       2.371   8.197  17.810  0.00  0.00    +0.000 A 
ATOM      9  C   UNL     1       1.819   7.035  18.350  0.00  0.00    +0.000 A 
ATOM     10  C   UNL     1       2.569   5.834  18.442  0.00  0.00    +0.000 A 
BRANCH  10  11
ATOM     11  C   UNL     1       2.128   4.768  19.386  0.00  0.00    +0.000 A 
ATOM     12  C   UNL     1       1.449   3.597  18.997  0.00  0.00    +0.000 A 
ATOM     13  C   UNL     1       1.206   2.559  19.908  0.00  0.00    +0.000 A 
ATOM     14  C   UNL     1       1.606   2.692  21.230  0.00  0.00    +0.000 A 
ATOM     15  F   UNL     1       1.396   1.693  22.094  0.00  0.00    +0.000 F 
ATOM     16  C   UNL     1       2.240   3.843  21.662  0.00  0.00    +0.000 A 
ATOM     17  C   UNL     1       2.504   4.864  20.739  0.00  0.00    +0.000 A 
ENDBRANCH  10  11
BRANCH   5  19
ATOM     18  C   UNL     1       5.960   4.876  17.833  0.00  0.00    +0.000 C 
ATOM     19  O   UNL     1       4.554   4.672  17.801  0.00  0.00    +0.000 OA
ENDBRANCH   5  19
ENDBRANCH   1   8
BRANCH   3  20
ATOM     20  C   UNL     1      -0.100  10.956  18.948  0.00  0.00    +0.000 C 
BRANCH  20  21
ATOM     21  C   UNL     1      -0.389  10.852  20.453  0.00  0.00    +0.000 A 
ATOM     22  C   UNL     1      -0.278   9.579  21.058  0.00  0.00    +0.000 A 
ATOM     23  C   UNL     1      -0.523   9.383  22.416  0.00  0.00    +0.000 A 
ATOM     24  C   UNL     1      -0.849  10.464  23.218  0.00  0.00    +0.000 A 
ATOM     25  C   UNL     1      -0.956  11.733  22.654  0.00  0.00    +0.000 A 
ATOM     26  C   UNL     1      -0.753  11.946  21.274  0.00  0.00    +0.000 A 
ATOM     27  C   UNL     1      -0.926  13.355  20.775  0.00  0.00    +0.000 C 
ENDBRANCH  20  21
BRANCH  20  28
ATOM     28  C   UNL     1      -1.360  11.339  18.147  0.00  0.00    +0.000 C 
BRANCH  28  29
ATOM     29  C   UNL     1      -2.038  10.117  17.589  0.00  0.00    +0.000 C 
ATOM     30  O   UNL     1      -2.947   9.518  18.143  0.00  0.00    +0.000 OA
BRANCH  29  31
ATOM     31  O   UNL     1      -1.537   9.722  16.396  0.00  0.00    +0.000 OA
ATOM     32  H   UNL     1      -1.967   8.922  16.028  0.00  0.00    +0.000 HD
ENDBRANCH  29  31
ENDBRANCH  28  29
ENDBRANCH  20  28
ENDBRANCH   3  20
TORSDOF 8
ENDMDL
MODEL 3
REMARK VINA RESULT:      -8.2      2.770      4.772
REMARK  Name = 
REMARK  10 active torsions:
REMARK  status: ('A' for Active; 'I' for Inactive)
REMARK    1  A    between atoms: C_1  and  O_2
REMARK    2  A    between atoms: O_2  and  C_3
REMARK    3  A    between atoms: C_6  and  C_7
REMARK    4  A    between atoms: N_9  and  C_10
REMARK    5  A    between atoms: C_10  and  C_11
REMARK    6  A    between atoms: C_10  and  C_15
REMARK    7  A    between atoms: C_11  and  C_12
REMARK    8  A    between atoms: C_12  and  O_14
REMARK    9  A    between atoms: C_20  and  C_21
REMARK   10  A    between atoms: C_23  and  C_24
REMARK                            x       y       z     vdW  Elec       q    Type
REMARK                         _______ _______ _______ _____ _____    ______ ____
ROOT
ATOM      1  C   UNL     1       1.982   8.239  18.896  0.00  0.00    +0.000 C 
ATOM      2  O   UNL     1       1.948   8.275  17.670  0.00  0.00    +0.000 OA
ATOM      3  N   UNL     1       2.587   7.202  19.587  0.00  0.00    +0.000 N 
ATOM      4  H   UNL     1       2.476   7.137  20.587  0.00  0.00    +0.000 HD
ENDROOT
BRANCH   1   8
ATOM      5  C   UNL     1       0.415  11.332  21.360  0.00  0.00    +0.000 A 
ATOM      6  N   UNL     1       0.577  10.087  21.873  0.00  0.00    +0.000 NA
ATOM      7  C   UNL     1       1.050   9.129  21.030  0.00  0.00    +0.000 A 
ATOM      8  C   UNL     1       1.287   9.317  19.673  0.00  0.00    +0.000 A 
ATOM      9  C   UNL     1       0.986  10.579  19.160  0.00  0.00    +0.000 A 
ATOM     10  C   UNL     1       0.636  11.659  20.011  0.00  0.00    +0.000 A 
BRANCH  10  11
ATOM     11  C   UNL     1       0.743  13.056  19.500  0.00  0.00    +0.000 A 
ATOM     12  C   UNL     1      -0.358  13.846  19.117  0.00  0.00    +0.000 A 
ATOM     13  C   UNL     1      -0.205  15.203  18.800  0.00  0.00    +0.000 A 
ATOM     14  C   UNL     1       1.055  15.782  18.827  0.00  0.00    +0.000 A 
ATOM     15  F   UNL     1       1.199  17.082  18.548  0.00  0.00    +0.000 F 
ATOM     16  C   UNL     1       2.169  15.031  19.160  0.00  0.00    +0.000 A 
ATOM     17  C   UNL     1       2.004  13.682  19.502  0.00  0.00    +0.000 A 
ENDBRANCH  10  11
BRANCH   5  19
ATOM     18  C   UNL     1      -1.218  12.110  22.867  0.00  0.00    +0.000 C 
ATOM     19  O   UNL     1       0.025  12.339  22.217  0.00  0.00    +0.000 OA
ENDBRANCH   5  19
ENDBRANCH   1   8
BRANCH   3  20
ATOM     20  C   UNL     1       3.088   5.965  18.948  0.00  0.00    +0.000 C 
BRANCH  20  21
ATOM     21  C   UNL     1       2.398   4.766  19.617  0.00  0.00    +0.000 A 
ATOM     22  C   UNL     1       2.577   4.594  21.009  0.00  0.00    +0.000 A 
ATOM     23  C   UNL     1       1.994   3.536  21.704  0.00  0.00    +0.000 A 
ATOM     24  C   UNL     1       1.182   2.638  21.032  0.00  0.00    +0.000 A 
ATOM     25  C   UNL     1       0.977   2.785  19.662  0.00  0.00    +0.000 A 
ATOM     26  C   UNL     1       1.592   3.825  18.932  0.00  0.00    +0.000 A 
ATOM     27  C   UNL     1       1.320   3.863  17.452  0.00  0.00    +0.000 C 
ENDBRANCH  20  21
BRANCH  20  28
ATOM     28  C   UNL     1       4.624   5.843  18.997  0.00  0.00    +0.000 C 
BRANCH  28  29
ATOM     29  C   UNL     1       5.092   4.628  18.242  0.00  0.00    +0.000 C 
ATOM     30  O   UNL     1       4.916   4.448  17.046  0.00  0.00    +0.000 OA
BRANCH  29  31
ATOM     31  O   UNL     1       5.734   3.726  19.019  0.00  0.00    +0.000 OA
ATOM     32  H   UNL     1       5.255   3.495  19.841  0.00  0.00    +0.000 HD
ENDBRANCH  29  31
ENDBRANCH  28  29
ENDBRANCH  20  28
ENDBRANCH   3  20
TORSDOF 8
ENDMDL
MODEL 4
REMARK VINA RESULT:      -8.2      0.604      1.062
REMARK  Name = 
REMARK  10 active torsions:
REMARK  status: ('A' for Active; 'I' for Inactive)
REMARK    1  A    between atoms: C_1  and  O_2
REMARK    2  A    between atoms: O_2  and  C_3
REMARK    3  A    between atoms: C_6  and  C_7
REMARK    4  A    between atoms: N_9  and  C_10
REMARK    5  A    between atoms: C_10  and  C_11
REMARK    6  A    between atoms: C_10  and  C_15
REMARK    7  A    between atoms: C_11  and  C_12
REMARK    8  A    between atoms: C_12  and  O_14
REMARK    9  A    between atoms: C_20  and  C_21
REMARK   10  A    between atoms: C_23  and  C_24
REMARK                            x       y       z     vdW  Elec       q    Type
REMARK                         _______ _______ _______ _____ _____    ______ ____
ROOT
ATOM      1  C   UNL     1       2.579   6.415  19.316  0.00  0.00    +0.000 C 
ATOM      2  O   UNL     1       2.417   5.855  20.395  0.00  0.00    +0.000 OA
ATOM      3  N   UNL     1       3.139   5.769  18.226  0.00  0.00    +0.000 N 
ATOM      4  H   UNL     1       3.381   6.298  17.402  0.00  0.00    +0.000 HD
ENDROOT
BRANCH   1   8
ATOM      5  C   UNL     1       1.207  10.391  18.679  0.00  0.00    +0.000 A 
ATOM      6  N   UNL     1       1.827   9.729  17.671  0.00  0.00    +0.000 NA
ATOM      7  C   UNL     1       2.276   8.473  17.941  0.00  0.00    +0.000 A 
ATOM      8  C   UNL     1       2.223   7.867  19.191  0.00  0.00    +0.000 A 
ATOM      9  C   UNL     1       1.693   8.633  20.230  0.00  0.00    +0.000 A 
ATOM     10  C   UNL     1       1.073   9.885  19.984  0.00  0.00    +0.000 A 
BRANCH  10  11
ATOM     11  C   UNL     1       0.157  10.461  21.010  0.00  0.00    +0.000 A 
ATOM     12  C   UNL     1      -0.708  11.548  20.777  0.00  0.00    +0.000 A 
ATOM     13  C   UNL     1      -1.659  11.938  21.731  0.00  0.00    +0.000 A 
ATOM     14  C   UNL     1      -1.735  11.270  22.945  0.00  0.00    +0.000 A 
ATOM     15  F   UNL     1      -2.657  11.627  23.846  0.00  0.00    +0.000 F 
ATOM     16  C   UNL     1      -0.876  10.223  23.228  0.00  0.00    +0.000 A 
ATOM     17  C   UNL     1       0.052   9.821  22.259  0.00  0.00    +0.000 A 
ENDBRANCH  10  11
BRANCH   5  19
ATOM     18  C   UNL     1       1.610  12.687  18.348  0.00  0.00    +0.000 C 
ATOM     19  O   UNL     1       0.664  11.628  18.404  0.00  0.00    +0.000 OA
ENDBRANCH   5  19
ENDBRANCH   1   8
BRANCH   3  20
ATOM     20  C   UNL     1       3.753   4.425  18.288  0.00  0.00    +0.000 C 
BRANCH  20  21
ATOM     21  C   UNL     1       5.035   4.442  17.442  0.00  0.00    +0.000 A 
ATOM     22  C   UNL     1       4.948   3.993  16.104  0.00  0.00    +0.000 A 
ATOM     23  C   UNL     1       6.055   3.969  15.259  0.00  0.00    +0.000 A 
ATOM     24  C   UNL     1       7.278   4.430  15.716  0.00  0.00    +0.000 A 
ATOM     25  C   UNL     1       7.396   4.888  17.026  0.00  0.00    +0.000 A 
ATOM     26  C   UNL     1       6.296   4.882  17.911  0.00  0.00    +0.000 A 
ATOM     27  C   UNL     1       6.552   5.373  19.311  0.00  0.00    +0.000 C 
ENDBRANCH  20  21
BRANCH  20  28
ATOM     28  C   UNL     1       2.791   3.303  17.848  0.00  0.00    +0.000 C 
BRANCH  28  29
ATOM     29  C   UNL     1       1.356   3.732  18.003  0.00  0.00    +0.000 C 
ATOM     30  O   UNL     1       0.703   4.284  17.131  0.00  0.00    +0.000 OA
BRANCH  29  31
ATOM     31  O   UNL     1       0.841   3.454  19.222  0.00  0.00    +0.000 OA
ATOM     32  H   UNL     1       0.386   4.212  19.646  0.00  0.00    +0.000 HD
ENDBRANCH  29  31
ENDBRANCH  28  29
ENDBRANCH  20  28
ENDBRANCH   3  20
TORSDOF 8
ENDMDL
MODEL 5
REMARK VINA RESULT:      -8.2      2.893      8.216
REMARK  Name = 
REMARK  10 active torsions:
REMARK  status: ('A' for Active; 'I' for Inactive)
REMARK    1  A    between atoms: C_1  and  O_2
REMARK    2  A    between atoms: O_2  and  C_3
REMARK    3  A    between atoms: C_6  and  C_7
REMARK    4  A    between atoms: N_9  and  C_10
REMARK    5  A    between atoms: C_10  and  C_11
REMARK    6  A    between atoms: C_10  and  C_15
REMARK    7  A    between atoms: C_11  and  C_12
REMARK    8  A    between atoms: C_12  and  O_14
REMARK    9  A    between atoms: C_20  and  C_21
REMARK   10  A    between atoms: C_23  and  C_24
REMARK                            x       y       z     vdW  Elec       q    Type
REMARK                         _______ _______ _______ _____ _____    ______ ____
ROOT
ATOM      1  C   UNL     1       1.445   9.378  18.017  0.00  0.00    +0.000 C 
ATOM      2  O   UNL     1       2.032  10.444  17.862  0.00  0.00    +0.000 OA
ATOM      3  N   UNL     1       0.105   9.317  18.363  0.00  0.00    +0.000 N 
ATOM      4  H   UNL     1      -0.306   8.432  18.615  0.00  0.00    +0.000 HD
ENDROOT
BRANCH   1   8
ATOM      5  C   UNL     1       3.964   5.951  17.974  0.00  0.00    +0.000 A 
ATOM      6  N   UNL     1       4.350   7.071  17.315  0.00  0.00    +0.000 NA
ATOM      7  C   UNL     1       3.490   8.126  17.334  0.00  0.00    +0.000 A 
ATOM      8  C   UNL     1       2.219   8.099  17.897  0.00  0.00    +0.000 A 
ATOM      9  C   UNL     1       1.813   6.885  18.453  0.00  0.00    +0.000 A 
ATOM     10  C   UNL     1       2.714   5.800  18.600  0.00  0.00    +0.000 A 
BRANCH  10  11
ATOM     11  C   UNL     1       2.391   4.706  19.560  0.00  0.00    +0.000 A 
ATOM     12  C   UNL     1       2.778   4.701  20.914  0.00  0.00    +0.000 A 
ATOM     13  C   UNL     1       2.306   3.724  21.802  0.00  0.00    +0.000 A 
ATOM     14  C   UNL     1       1.470   2.717  21.341  0.00  0.00    +0.000 A 
ATOM     15  F   UNL     1       1.000   1.798  22.193  0.00  0.00    +0.000 F 
ATOM     16  C   UNL     1       1.099   2.663  20.010  0.00  0.00    +0.000 A 
ATOM     17  C   UNL     1       1.552   3.659  19.135  0.00  0.00    +0.000 A 
ENDBRANCH  10  11
BRANCH   5  19
ATOM     18  C   UNL     1       5.148   4.291  16.798  0.00  0.00    +0.000 C 
ATOM     19  O   UNL     1       4.857   4.903  18.047  0.00  0.00    +0.000 OA
ENDBRANCH   5  19
ENDBRANCH   1   8
BRANCH   3  20
ATOM     20  C   UNL     1      -0.703  10.495  18.749  0.00  0.00    +0.000 C 
BRANCH  20  21
ATOM     21  C   UNL     1      -0.705  10.595  20.282  0.00  0.00    +0.000 A 
ATOM     22  C   UNL     1      -0.448   9.417  21.020  0.00  0.00    +0.000 A 
ATOM     23  C   UNL     1      -0.431   9.406  22.413  0.00  0.00    +0.000 A 
ATOM     24  C   UNL     1      -0.634  10.585  23.111  0.00  0.00    +0.000 A 
ATOM     25  C   UNL     1      -0.881  11.765  22.414  0.00  0.00    +0.000 A 
ATOM     26  C   UNL     1      -0.943  11.789  21.004  0.00  0.00    +0.000 A 
ATOM     27  C   UNL     1      -1.246  13.117  20.364  0.00  0.00    +0.000 C 
ENDBRANCH  20  21
BRANCH  20  28
ATOM     28  C   UNL     1      -2.133  10.458  18.175  0.00  0.00    +0.000 C 
BRANCH  28  29
ATOM     29  C   UNL     1      -2.303  11.480  17.084  0.00  0.00    +0.000 C 
ATOM     30  O   UNL     1      -3.231  11.493  16.289  0.00  0.00    +0.000 OA
BRANCH  29  31
ATOM     31  O   UNL     1      -1.315  12.403  17.051  0.00  0.00    +0.000 OA
ATOM     32  H   UNL     1      -1.515  13.220  17.552  0.00  0.00    +0.000 HD
ENDBRANCH  29  31
ENDBRANCH  28  29
ENDBRANCH  20  28
ENDBRANCH   3  20
TORSDOF 8
ENDMDL
MODEL 6
REMARK VINA RESULT:      -8.2      2.849      4.777
REMARK  Name = 
REMARK  10 active torsions:
REMARK  status: ('A' for Active; 'I' for Inactive)
REMARK    1  A    between atoms: C_1  and  O_2
REMARK    2  A    between atoms: O_2  and  C_3
REMARK    3  A    between atoms: C_6  and  C_7
REMARK    4  A    between atoms: N_9  and  C_10
REMARK    5  A    between atoms: C_10  and  C_11
REMARK    6  A    between atoms: C_10  and  C_15
REMARK    7  A    between atoms: C_11  and  C_12
REMARK    8  A    between atoms: C_12  and  O_14
REMARK    9  A    between atoms: C_20  and  C_21
REMARK   10  A    between atoms: C_23  and  C_24
REMARK                            x       y       z     vdW  Elec       q    Type
REMARK                         _______ _______ _______ _____ _____    ______ ____
ROOT
ATOM      1  C   UNL     1       2.158   8.307  18.512  0.00  0.00    +0.000 C 
ATOM      2  O   UNL     1       2.296   8.534  17.313  0.00  0.00    +0.000 OA
ATOM      3  N   UNL     1       2.616   7.139  19.098  0.00  0.00    +0.000 N 
ATOM      4  H   UNL     1       2.365   6.927  20.052  0.00  0.00    +0.000 HD
ENDROOT
BRANCH   1   8
ATOM      5  C   UNL     1       0.411  11.098  21.204  0.00  0.00    +0.000 A 
ATOM      6  N   UNL     1       0.500   9.792  21.561  0.00  0.00    +0.000 NA
ATOM      7  C   UNL     1       1.037   8.938  20.647  0.00  0.00    +0.000 A 
ATOM      8  C   UNL     1       1.409   9.295  19.356  0.00  0.00    +0.000 A 
ATOM      9  C   UNL     1       1.182  10.622  18.988  0.00  0.00    +0.000 A 
ATOM     10  C   UNL     1       0.769  11.591  19.938  0.00  0.00    +0.000 A 
BRANCH  10  11
ATOM     11  C   UNL     1       0.950  13.039  19.630  0.00  0.00    +0.000 A 
ATOM     12  C   UNL     1       2.198  13.689  19.586  0.00  0.00    +0.000 A 
ATOM     13  C   UNL     1       2.314  15.012  19.132  0.00  0.00    +0.000 A 
ATOM     14  C   UNL     1       1.180  15.714  18.752  0.00  0.00    +0.000 A 
ATOM     15  F   UNL     1       1.293  16.967  18.297  0.00  0.00    +0.000 F 
ATOM     16  C   UNL     1      -0.070  15.125  18.819  0.00  0.00    +0.000 A 
ATOM     17  C   UNL     1      -0.174  13.794  19.246  0.00  0.00    +0.000 A 
ENDBRANCH  10  11
BRANCH   5  19
ATOM     18  C   UNL     1      -1.318  11.682  22.692  0.00  0.00    +0.000 C 
ATOM     19  O   UNL     1      -0.043  11.996  22.147  0.00  0.00    +0.000 OA
ENDBRANCH   5  19
ENDBRANCH   1   8
BRANCH   3  20
ATOM     20  C   UNL     1       3.147   5.986  18.339  0.00  0.00    +0.000 C 
BRANCH  20  21
ATOM     21  C   UNL     1       2.410   4.721  18.807  0.00  0.00    +0.000 A 
ATOM     22  C   UNL     1       1.774   4.759  20.069  0.00  0.00    +0.000 A 
ATOM     23  C   UNL     1       1.083   3.662  20.581  0.00  0.00    +0.000 A 
ATOM     24  C   UNL     1       0.976   2.505  19.827  0.00  0.00    +0.000 A 
ATOM     25  C   UNL     1       1.583   2.439  18.575  0.00  0.00    +0.000 A 
ATOM     26  C   UNL     1       2.323   3.524  18.057  0.00  0.00    +0.000 A 
ATOM     27  C   UNL     1       2.958   3.325  16.707  0.00  0.00    +0.000 C 
ENDBRANCH  20  21
BRANCH  20  28
ATOM     28  C   UNL     1       4.676   5.837  18.463  0.00  0.00    +0.000 C 
BRANCH  28  29
ATOM     29  C   UNL     1       5.368   6.319  17.216  0.00  0.00    +0.000 C 
ATOM     30  O   UNL     1       6.548   6.127  16.964  0.00  0.00    +0.000 OA
BRANCH  29  31
ATOM     31  O   UNL     1       4.555   7.006  16.381  0.00  0.00    +0.000 OA
ATOM     32  H   UNL     1       3.686   7.237  16.770  0.00  0.00    +0.000 HD
ENDBRANCH  29  31
ENDBRANCH  28  29
ENDBRANCH  20  28
ENDBRANCH   3  20
TORSDOF 8
ENDMDL
MODEL 7
REMARK VINA RESULT:      -8.1      2.828      8.048
REMARK  Name = 
REMARK  10 active torsions:
REMARK  status: ('A' for Active; 'I' for Inactive)
REMARK    1  A    between atoms: C_1  and  O_2
REMARK    2  A    between atoms: O_2  and  C_3
REMARK    3  A    between atoms: C_6  and  C_7
REMARK    4  A    between atoms: N_9  and  C_10
REMARK    5  A    between atoms: C_10  and  C_11
REMARK    6  A    between atoms: C_10  and  C_15
REMARK    7  A    between atoms: C_11  and  C_12
REMARK    8  A    between atoms: C_12  and  O_14
REMARK    9  A    between atoms: C_20  and  C_21
REMARK   10  A    between atoms: C_23  and  C_24
REMARK                            x       y       z     vdW  Elec       q    Type
REMARK                         _______ _______ _______ _____ _____    ______ ____
ROOT
ATOM      1  C   UNL     1       1.796   9.555  17.996  0.00  0.00    +0.000 C 
ATOM      2  O   UNL     1       2.367  10.500  17.461  0.00  0.00    +0.000 OA
ATOM      3  N   UNL     1       0.679   9.727  18.798  0.00  0.00    +0.000 N 
ATOM      4  H   UNL     1       0.321   8.947  19.329  0.00  0.00    +0.000 HD
ENDROOT
BRANCH   1   8
ATOM      5  C   UNL     1       3.768   5.791  17.825  0.00  0.00    +0.000 A 
ATOM      6  N   UNL     1       4.298   6.852  17.169  0.00  0.00    +0.000 NA
ATOM      7  C   UNL     1       3.607   8.024  17.230  0.00  0.00    +0.000 A 
ATOM      8  C   UNL     1       2.365   8.177  17.834  0.00  0.00    +0.000 A 
ATOM      9  C   UNL     1       1.797   7.028  18.387  0.00  0.00    +0.000 A 
ATOM     10  C   UNL     1       2.529   5.818  18.489  0.00  0.00    +0.000 A 
BRANCH  10  11
ATOM     11  C   UNL     1       2.075   4.767  19.444  0.00  0.00    +0.000 A 
ATOM     12  C   UNL     1       1.365   3.610  19.070  0.00  0.00    +0.000 A 
ATOM     13  C   UNL     1       1.109   2.583  19.990  0.00  0.00    +0.000 A 
ATOM     14  C   UNL     1       1.527   2.715  21.306  0.00  0.00    +0.000 A 
ATOM     15  F   UNL     1       1.304   1.725  22.179  0.00  0.00    +0.000 F 
ATOM     16  C   UNL     1       2.192   3.853  21.724  0.00  0.00    +0.000 A 
ATOM     17  C   UNL     1       2.469   4.862  20.792  0.00  0.00    +0.000 A 
ENDBRANCH  10  11
BRANCH   5  19
ATOM     18  C   UNL     1       4.707   4.027  16.580  0.00  0.00    +0.000 C 
ATOM     19  O   UNL     1       4.495   4.619  17.854  0.00  0.00    +0.000 OA
ENDBRANCH   5  19
ENDBRANCH   1   8
BRANCH   3  20
ATOM     20  C   UNL     1       0.170  11.045  19.235  0.00  0.00    +0.000 C 
BRANCH  20  21
ATOM     21  C   UNL     1      -0.305  10.919  20.690  0.00  0.00    +0.000 A 
ATOM     22  C   UNL     1      -1.298  11.820  21.140  0.00  0.00    +0.000 A 
ATOM     23  C   UNL     1      -1.791  11.786  22.443  0.00  0.00    +0.000 A 
ATOM     24  C   UNL     1      -1.331  10.823  23.326  0.00  0.00    +0.000 A 
ATOM     25  C   UNL     1      -0.360   9.915  22.911  0.00  0.00    +0.000 A 
ATOM     26  C   UNL     1       0.182   9.959  21.609  0.00  0.00    +0.000 A 
ATOM     27  C   UNL     1       1.246   8.944  21.286  0.00  0.00    +0.000 C 
ENDBRANCH  20  21
BRANCH  20  28
ATOM     28  C   UNL     1      -0.939  11.595  18.316  0.00  0.00    +0.000 C 
BRANCH  28  29
ATOM     29  C   UNL     1      -1.774  10.478  17.750  0.00  0.00    +0.000 C 
ATOM     30  O   UNL     1      -2.596   9.839  18.388  0.00  0.00    +0.000 OA
BRANCH  29  31
ATOM     31  O   UNL     1      -1.526  10.230  16.444  0.00  0.00    +0.000 OA
ATOM     32  H   UNL     1      -2.077  10.754  15.826  0.00  0.00    +0.000 HD
ENDBRANCH  29  31
ENDBRANCH  28  29
ENDBRANCH  20  28
ENDBRANCH   3  20
TORSDOF 8
ENDMDL
MODEL 8
REMARK VINA RESULT:      -8.1      3.561      9.188
REMARK  Name = 
REMARK  10 active torsions:
REMARK  status: ('A' for Active; 'I' for Inactive)
REMARK    1  A    between atoms: C_1  and  O_2
REMARK    2  A    between atoms: O_2  and  C_3
REMARK    3  A    between atoms: C_6  and  C_7
REMARK    4  A    between atoms: N_9  and  C_10
REMARK    5  A    between atoms: C_10  and  C_11
REMARK    6  A    between atoms: C_10  and  C_15
REMARK    7  A    between atoms: C_11  and  C_12
REMARK    8  A    between atoms: C_12  and  O_14
REMARK    9  A    between atoms: C_20  and  C_21
REMARK   10  A    between atoms: C_23  and  C_24
REMARK                            x       y       z     vdW  Elec       q    Type
REMARK                         _______ _______ _______ _____ _____    ______ ____
ROOT
ATOM      1  C   UNL     1       1.645   9.195  18.050  0.00  0.00    +0.000 C 
ATOM      2  O   UNL     1       2.183  10.139  17.479  0.00  0.00    +0.000 OA
ATOM      3  N   UNL     1       0.297   9.199  18.370  0.00  0.00    +0.000 N 
ATOM      4  H   UNL     1      -0.078   8.470  18.958  0.00  0.00    +0.000 HD
ENDROOT
BRANCH   1   8
ATOM      5  C   UNL     1       3.648   5.615  19.172  0.00  0.00    +0.000 A 
ATOM      6  N   UNL     1       2.688   6.125  19.984  0.00  0.00    +0.000 NA
ATOM      7  C   UNL     1       2.105   7.291  19.591  0.00  0.00    +0.000 A 
ATOM      8  C   UNL     1       2.487   8.030  18.478  0.00  0.00    +0.000 A 
ATOM      9  C   UNL     1       3.564   7.534  17.743  0.00  0.00    +0.000 A 
ATOM     10  C   UNL     1       4.113   6.253  18.010  0.00  0.00    +0.000 A 
BRANCH  10  11
ATOM     11  C   UNL     1       4.944   5.583  16.968  0.00  0.00    +0.000 A 
ATOM     12  C   UNL     1       4.480   4.552  16.128  0.00  0.00    +0.000 A 
ATOM     13  C   UNL     1       5.258   4.077  15.062  0.00  0.00    +0.000 A 
ATOM     14  C   UNL     1       6.524   4.598  14.845  0.00  0.00    +0.000 A 
ATOM     15  F   UNL     1       7.258   4.161  13.814  0.00  0.00    +0.000 F 
ATOM     16  C   UNL     1       7.034   5.583  15.672  0.00  0.00    +0.000 A 
ATOM     17  C   UNL     1       6.239   6.073  16.717  0.00  0.00    +0.000 A 
ENDBRANCH  10  11
BRANCH   5  19
ATOM     18  C   UNL     1       3.230   3.359  19.702  0.00  0.00    +0.000 C 
ATOM     19  O   UNL     1       4.188   4.390  19.501  0.00  0.00    +0.000 OA
ENDBRANCH   5  19
ENDBRANCH   1   8
BRANCH   3  20
ATOM     20  C   UNL     1      -0.584  10.379  18.226  0.00  0.00    +0.000 C 
BRANCH  20  21
ATOM     21  C   UNL     1      -0.519  11.189  19.530  0.00  0.00    +0.000 A 
ATOM     22  C   UNL     1      -0.669  10.489  20.749  0.00  0.00    +0.000 A 
ATOM     23  C   UNL     1      -0.627  11.135  21.983  0.00  0.00    +0.000 A 
ATOM     24  C   UNL     1      -0.397  12.500  22.035  0.00  0.00    +0.000 A 
ATOM     25  C   UNL     1      -0.235  13.218  20.852  0.00  0.00    +0.000 A 
ATOM     26  C   UNL     1      -0.316  12.588  19.591  0.00  0.00    +0.000 A 
ATOM     27  C   UNL     1      -0.155  13.472  18.384  0.00  0.00    +0.000 C 
ENDBRANCH  20  21
BRANCH  20  28
ATOM     28  C   UNL     1      -2.032  10.006  17.854  0.00  0.00    +0.000 C 
BRANCH  28  29
ATOM     29  C   UNL     1      -2.762  11.188  17.275  0.00  0.00    +0.000 C 
ATOM     30  O   UNL     1      -3.719  11.734  17.803  0.00  0.00    +0.000 OA
BRANCH  29  31
ATOM     31  O   UNL     1      -2.262  11.601  16.088  0.00  0.00    +0.000 OA
ATOM     32  H   UNL     1      -2.945  11.810  15.418  0.00  0.00    +0.000 HD
ENDBRANCH  29  31
ENDBRANCH  28  29
ENDBRANCH  20  28
ENDBRANCH   3  20
TORSDOF 8
ENDMDL
MODEL 9
REMARK VINA RESULT:      -8.0      3.085      8.219
REMARK  Name = 
REMARK  10 active torsions:
REMARK  status: ('A' for Active; 'I' for Inactive)
REMARK    1  A    between atoms: C_1  and  O_2
REMARK    2  A    between atoms: O_2  and  C_3
REMARK    3  A    between atoms: C_6  and  C_7
REMARK    4  A    between atoms: N_9  and  C_10
REMARK    5  A    between atoms: C_10  and  C_11
REMARK    6  A    between atoms: C_10  and  C_15
REMARK    7  A    between atoms: C_11  and  C_12
REMARK    8  A    between atoms: C_12  and  O_14
REMARK    9  A    between atoms: C_20  and  C_21
REMARK   10  A    between atoms: C_23  and  C_24
REMARK                            x       y       z     vdW  Elec       q    Type
REMARK                         _______ _______ _______ _____ _____    ______ ____
ROOT
ATOM      1  C   UNL     1       1.499   9.311  17.810  0.00  0.00    +0.000 C 
ATOM      2  O   UNL     1       2.084  10.390  17.852  0.00  0.00    +0.000 OA
ATOM      3  N   UNL     1       0.117   9.220  17.839  0.00  0.00    +0.000 N 
ATOM      4  H   UNL     1      -0.322   8.318  17.941  0.00  0.00    +0.000 HD
ENDROOT
BRANCH   1   8
ATOM      5  C   UNL     1       4.064   5.932  18.112  0.00  0.00    +0.000 A 
ATOM      6  N   UNL     1       4.518   7.064  17.519  0.00  0.00    +0.000 NA
ATOM      7  C   UNL     1       3.644   8.102  17.419  0.00  0.00    +0.000 A 
ATOM      8  C   UNL     1       2.307   8.048  17.796  0.00  0.00    +0.000 A 
ATOM      9  C   UNL     1       1.849   6.823  18.284  0.00  0.00    +0.000 A 
ATOM     10  C   UNL     1       2.741   5.754  18.553  0.00  0.00    +0.000 A 
BRANCH  10  11
ATOM     11  C   UNL     1       2.307   4.648  19.453  0.00  0.00    +0.000 A 
ATOM     12  C   UNL     1       1.888   3.380  19.005  0.00  0.00    +0.000 A 
ATOM     13  C   UNL     1       1.648   2.332  19.906  0.00  0.00    +0.000 A 
ATOM     14  C   UNL     1       1.787   2.548  21.269  0.00  0.00    +0.000 A 
ATOM     15  F   UNL     1       1.580   1.542  22.128  0.00  0.00    +0.000 F 
ATOM     16  C   UNL     1       2.157   3.790  21.753  0.00  0.00    +0.000 A 
ATOM     17  C   UNL     1       2.423   4.824  20.845  0.00  0.00    +0.000 A 
ENDBRANCH  10  11
BRANCH   5  19
ATOM     18  C   UNL     1       6.083   5.239  19.106  0.00  0.00    +0.000 C 
ATOM     19  O   UNL     1       4.958   4.900  18.307  0.00  0.00    +0.000 OA
ENDBRANCH   5  19
ENDBRANCH   1   8
BRANCH   3  20
ATOM     20  C   UNL     1      -0.781  10.367  18.098  0.00  0.00    +0.000 C 
BRANCH  20  21
ATOM     21  C   UNL     1      -0.629  10.774  19.571  0.00  0.00    +0.000 A 
ATOM     22  C   UNL     1      -0.562   9.743  20.537  0.00  0.00    +0.000 A 
ATOM     23  C   UNL     1      -0.427  10.012  21.897  0.00  0.00    +0.000 A 
ATOM     24  C   UNL     1      -0.315  11.322  22.330  0.00  0.00    +0.000 A 
ATOM     25  C   UNL     1      -0.366  12.361  21.404  0.00  0.00    +0.000 A 
ATOM     26  C   UNL     1      -0.545  12.112  20.026  0.00  0.00    +0.000 A 
ATOM     27  C   UNL     1      -0.616  13.316  19.125  0.00  0.00    +0.000 C 
ENDBRANCH  20  21
BRANCH  20  28
ATOM     28  C   UNL     1      -2.250  10.074  17.733  0.00  0.00    +0.000 C 
BRANCH  28  29
ATOM     29  C   UNL     1      -2.913  11.290  17.144  0.00  0.00    +0.000 C 
ATOM     30  O   UNL     1      -3.927  11.806  17.588  0.00  0.00    +0.000 OA
BRANCH  29  31
ATOM     31  O   UNL     1      -2.279  11.772  16.051  0.00  0.00    +0.000 OA
ATOM     32  H   UNL     1      -2.692  11.510  15.202  0.00  0.00    +0.000 HD
ENDBRANCH  29  31
ENDBRANCH  28  29
ENDBRANCH  20  28
ENDBRANCH   3  20
TORSDOF 8
ENDMDL
