MODEL 1
REMARK VINA RESULT:      -8.2      0.000      0.000
REMARK  Name = 
REMARK  4 active torsions:
REMARK  status: ('A' for Active; 'I' for Inactive)
REMARK    1  A    between atoms: C_10  and  C_11
REMARK    2  A    between atoms: C_12  and  C_13
REMARK    3  A    between atoms: C_18  and  O_19
REMARK    4  A    between atoms: N_20  and  C_21
REMARK                            x       y       z     vdW  Elec       q    Type
REMARK                         _______ _______ _______ _____ _____    ______ ____
ROOT
ATOM      1  O   UNL     1       4.154   5.713  20.215  0.00  0.00    +0.000 OA
ATOM      2  C   UNL     1       3.962   4.872  19.335  0.00  0.00    +0.000 A 
ATOM      3  C   UNL     1       2.781   4.010  19.461  0.00  0.00    +0.000 A 
ATOM      4  C   UNL     1       1.843   4.213  20.484  0.00  0.00    +0.000 A 
ATOM      5  C   UNL     1       0.718   3.394  20.560  0.00  0.00    +0.000 A 
ATOM      6  C   UNL     1       0.548   2.367  19.633  0.00  0.00    +0.000 A 
ATOM      7  C   UNL     1       1.488   2.180  18.613  0.00  0.00    +0.000 A 
ATOM      8  C   UNL     1       2.601   3.017  18.509  0.00  0.00    +0.000 A 
ATOM      9  N   UNL     1       3.473   2.851  17.431  0.00  0.00    +0.000 NA
ATOM     10  C   UNL     1       4.466   3.680  17.275  0.00  0.00    +0.000 A 
ATOM     11  N   UNL     1       4.753   4.693  18.188  0.00  0.00    +0.000 N 
ENDROOT
BRANCH  11  12
ATOM     12  C   UNL     1       5.754   5.688  17.977  0.00  0.00    +0.000 A 
ATOM     13  C   UNL     1       6.997   5.572  18.618  0.00  0.00    +0.000 A 
ATOM     14  C   UNL     1       7.899   6.639  18.619  0.00  0.00    +0.000 A 
ATOM     15  C   UNL     1       7.551   7.830  17.989  0.00  0.00    +0.000 A 
ATOM     16 BR   UNL     1       8.715   9.316  18.095  0.00  0.00    +0.000 Br
ATOM     17  C   UNL     1       6.332   7.950  17.320  0.00  0.00    +0.000 A 
ATOM     18  C   UNL     1       5.436   6.874  17.301  0.00  0.00    +0.000 A 
ENDBRANCH  11  12
BRANCH  10  19
ATOM     19  C   UNL     1       5.393   3.472  16.113  0.00  0.00    +0.000 C 
ATOM     20  C   UNL     1       5.218   4.206  14.997  0.00  0.00    +0.000 C 
BRANCH  20  21
ATOM     21  C   UNL     1       5.984   4.078  13.741  0.00  0.00    +0.000 A 
ATOM     22  C   UNL     1       5.508   3.307  12.670  0.00  0.00    +0.000 A 
ATOM     23  C   UNL     1       6.221   3.231  11.467  0.00  0.00    +0.000 A 
ATOM     24  C   UNL     1       7.415   3.933  11.314  0.00  0.00    +0.000 A 
ATOM     25  C   UNL     1       7.889   4.731  12.352  0.00  0.00    +0.000 A 
ATOM     26  C   UNL     1       7.168   4.810  13.548  0.00  0.00    +0.000 A 
BRANCH  26  27
ATOM     27  O   UNL     1       7.630   5.625  14.550  0.00  0.00    +0.000 OA
ATOM     28  H   UNL     1       8.063   6.396  14.149  0.00  0.00    +0.000 HD
ENDBRANCH  26  27
ENDBRANCH  20  21
ENDBRANCH  10  19
TORSDOF 4
ENDMDL
MODEL 2
REMARK VINA RESULT:      -7.1      6.663      8.083
REMARK  Name = 
REMARK  4 active torsions:
REMARK  status: ('A' for Active; 'I' for Inactive)
REMARK    1  A    between atoms: C_10  and  C_11
REMARK    2  A    between atoms: C_12  and  C_13
REMARK    3  A    between atoms: C_18  and  O_19
REMARK    4  A    between atoms: N_20  and  C_21
REMARK                            x       y       z     vdW  Elec       q    Type
REMARK                         _______ _______ _______ _____ _____    ______ ____
ROOT
ATOM      1  O   UNL     1      -1.016  13.379  19.492  0.00  0.00    +0.000 OA
ATOM      2  C   UNL     1      -0.882  12.249  19.019  0.00  0.00    +0.000 A 
ATOM      3  C   UNL     1      -2.084  11.568  18.523  0.00  0.00    +0.000 A 
ATOM      4  C   UNL     1      -3.323  12.225  18.484  0.00  0.00    +0.000 A 
ATOM      5  C   UNL     1      -4.440  11.561  17.984  0.00  0.00    +0.000 A 
ATOM      6  C   UNL     1      -4.321  10.242  17.547  0.00  0.00    +0.000 A 
ATOM      7  C   UNL     1      -3.077   9.600  17.586  0.00  0.00    +0.000 A 
ATOM      8  C   UNL     1      -1.945  10.270  18.056  0.00  0.00    +0.000 A 
ATOM      9  N   UNL     1      -0.708   9.625  18.002  0.00  0.00    +0.000 NA
ATOM     10  C   UNL     1       0.368  10.269  18.356  0.00  0.00    +0.000 A 
ATOM     11  N   UNL     1       0.336  11.565  18.868  0.00  0.00    +0.000 N 
ENDROOT
BRANCH  11  12
ATOM     12  C   UNL     1       1.506  12.336  19.144  0.00  0.00    +0.000 A 
ATOM     13  C   UNL     1       1.838  12.645  20.472  0.00  0.00    +0.000 A 
ATOM     14  C   UNL     1       2.832  13.585  20.755  0.00  0.00    +0.000 A 
ATOM     15  C   UNL     1       3.484  14.229  19.708  0.00  0.00    +0.000 A 
ATOM     16 BR   UNL     1       4.739  15.591  20.088  0.00  0.00    +0.000 Br
ATOM     17  C   UNL     1       3.186  13.909  18.383  0.00  0.00    +0.000 A 
ATOM     18  C   UNL     1       2.205  12.952  18.098  0.00  0.00    +0.000 A 
ENDBRANCH  11  12
BRANCH  10  19
ATOM     19  C   UNL     1       1.683   9.549  18.298  0.00  0.00    +0.000 C 
ATOM     20  C   UNL     1       1.690   8.206  18.188  0.00  0.00    +0.000 C 
BRANCH  20  21
ATOM     21  C   UNL     1       2.883   7.337  18.195  0.00  0.00    +0.000 A 
ATOM     22  C   UNL     1       3.855   7.421  17.187  0.00  0.00    +0.000 A 
ATOM     23  C   UNL     1       5.005   6.623  17.229  0.00  0.00    +0.000 A 
ATOM     24  C   UNL     1       5.205   5.737  18.285  0.00  0.00    +0.000 A 
ATOM     25  C   UNL     1       4.270   5.661  19.314  0.00  0.00    +0.000 A 
ATOM     26  C   UNL     1       3.127   6.466  19.271  0.00  0.00    +0.000 A 
BRANCH  26  27
ATOM     27  O   UNL     1       2.231   6.405  20.308  0.00  0.00    +0.000 OA
ATOM     28  H   UNL     1       1.979   5.478  20.448  0.00  0.00    +0.000 HD
ENDBRANCH  26  27
ENDBRANCH  20  21
ENDBRANCH  10  19
TORSDOF 4
ENDMDL
MODEL 3
REMARK VINA RESULT:      -6.9      7.627     10.717
REMARK  Name = 
REMARK  4 active torsions:
REMARK  status: ('A' for Active; 'I' for Inactive)
REMARK    1  A    between atoms: C_10  and  C_11
REMARK    2  A    between atoms: C_12  and  C_13
REMARK    3  A    between atoms: C_18  and  O_19
REMARK    4  A    between atoms: N_20  and  C_21
REMARK                            x       y       z     vdW  Elec       q    Type
REMARK                         _______ _______ _______ _____ _____    ______ ____
ROOT
ATOM      1  O   UNL     1       1.729   9.830  17.411  0.00  0.00    +0.000 OA
ATOM      2  C   UNL     1       1.546   9.539  18.594  0.00  0.00    +0.000 A 
ATOM      3  C   UNL     1       1.864   8.170  19.018  0.00  0.00    +0.000 A 
ATOM      4  C   UNL     1       2.462   7.260  18.135  0.00  0.00    +0.000 A 
ATOM      5  C   UNL     1       2.775   5.976  18.576  0.00  0.00    +0.000 A 
ATOM      6  C   UNL     1       2.470   5.602  19.884  0.00  0.00    +0.000 A 
ATOM      7  C   UNL     1       1.879   6.523  20.757  0.00  0.00    +0.000 A 
ATOM      8  C   UNL     1       1.593   7.823  20.333  0.00  0.00    +0.000 A 
ATOM      9  N   UNL     1       1.079   8.736  21.256  0.00  0.00    +0.000 NA
ATOM     10  C   UNL     1       0.888   9.974  20.896  0.00  0.00    +0.000 A 
ATOM     11  N   UNL     1       1.101  10.420  19.593  0.00  0.00    +0.000 N 
ENDROOT
BRANCH  11  12
ATOM     12  C   UNL     1       1.020  11.792  19.204  0.00  0.00    +0.000 A 
ATOM     13  C   UNL     1       2.048  12.678  19.562  0.00  0.00    +0.000 A 
ATOM     14  C   UNL     1       1.886  14.056  19.403  0.00  0.00    +0.000 A 
ATOM     15  C   UNL     1       0.686  14.551  18.899  0.00  0.00    +0.000 A 
ATOM     16 BR   UNL     1       0.416  16.419  18.800  0.00  0.00    +0.000 Br
ATOM     17  C   UNL     1      -0.333  13.681  18.510  0.00  0.00    +0.000 A 
ATOM     18  C   UNL     1      -0.163  12.298  18.649  0.00  0.00    +0.000 A 
ENDBRANCH  11  12
BRANCH  10  19
ATOM     19  C   UNL     1       0.327  10.932  21.904  0.00  0.00    +0.000 C 
ATOM     20  C   UNL     1      -0.961  11.312  21.800  0.00  0.00    +0.000 C 
BRANCH  20  21
ATOM     21  C   UNL     1      -1.651  12.300  22.654  0.00  0.00    +0.000 A 
ATOM     22  C   UNL     1      -2.894  12.019  23.240  0.00  0.00    +0.000 A 
ATOM     23  C   UNL     1      -3.516  12.946  24.085  0.00  0.00    +0.000 A 
ATOM     24  C   UNL     1      -2.900  14.164  24.364  0.00  0.00    +0.000 A 
ATOM     25  C   UNL     1      -1.651  14.450  23.821  0.00  0.00    +0.000 A 
ATOM     26  C   UNL     1      -1.030  13.517  22.984  0.00  0.00    +0.000 A 
BRANCH  26  27
ATOM     27  O   UNL     1       0.215  13.799  22.482  0.00  0.00    +0.000 OA
ATOM     28  H   UNL     1       0.815  13.071  22.709  0.00  0.00    +0.000 HD
ENDBRANCH  26  27
ENDBRANCH  20  21
ENDBRANCH  10  19
TORSDOF 4
ENDMDL
MODEL 4
REMARK VINA RESULT:      -6.9      8.226     10.065
REMARK  Name = 
REMARK  4 active torsions:
REMARK  status: ('A' for Active; 'I' for Inactive)
REMARK    1  A    between atoms: C_10  and  C_11
REMARK    2  A    between atoms: C_12  and  C_13
REMARK    3  A    between atoms: C_18  and  O_19
REMARK    4  A    between atoms: N_20  and  C_21
REMARK                            x       y       z     vdW  Elec       q    Type
REMARK                         _______ _______ _______ _____ _____    ______ ____
ROOT
ATOM      1  O   UNL     1       0.031  15.570  22.693  0.00  0.00    +0.000 OA
ATOM      2  C   UNL     1      -0.251  14.396  22.450  0.00  0.00    +0.000 A 
ATOM      3  C   UNL     1      -1.459  13.840  23.072  0.00  0.00    +0.000 A 
ATOM      4  C   UNL     1      -2.322  14.649  23.825  0.00  0.00    +0.000 A 
ATOM      5  C   UNL     1      -3.474  14.098  24.381  0.00  0.00    +0.000 A 
ATOM      6  C   UNL     1      -3.746  12.743  24.204  0.00  0.00    +0.000 A 
ATOM      7  C   UNL     1      -2.880  11.948  23.444  0.00  0.00    +0.000 A 
ATOM      8  C   UNL     1      -1.740  12.499  22.855  0.00  0.00    +0.000 A 
ATOM      9  N   UNL     1      -0.945  11.693  22.038  0.00  0.00    +0.000 NA
ATOM     10  C   UNL     1       0.072  12.217  21.414  0.00  0.00    +0.000 A 
ATOM     11  N   UNL     1       0.458  13.545  21.585  0.00  0.00    +0.000 N 
ENDROOT
BRANCH  11  12
ATOM     12  C   UNL     1       1.487  14.175  20.821  0.00  0.00    +0.000 A 
ATOM     13  C   UNL     1       1.218  14.605  19.512  0.00  0.00    +0.000 A 
ATOM     14  C   UNL     1       2.256  15.004  18.668  0.00  0.00    +0.000 A 
ATOM     15  C   UNL     1       3.569  14.959  19.127  0.00  0.00    +0.000 A 
ATOM     16 BR   UNL     1       4.985  15.378  17.947  0.00  0.00    +0.000 Br
ATOM     17  C   UNL     1       3.849  14.564  20.435  0.00  0.00    +0.000 A 
ATOM     18  C   UNL     1       2.807  14.183  21.290  0.00  0.00    +0.000 A 
ENDBRANCH  11  12
BRANCH  10  19
ATOM     19  C   UNL     1       0.915  11.327  20.550  0.00  0.00    +0.000 C 
ATOM     20  C   UNL     1       0.535  10.048  20.359  0.00  0.00    +0.000 C 
BRANCH  20  21
ATOM     21  C   UNL     1       1.281   9.020  19.608  0.00  0.00    +0.000 A 
ATOM     22  C   UNL     1       1.640   9.211  18.265  0.00  0.00    +0.000 A 
ATOM     23  C   UNL     1       2.388   8.247  17.577  0.00  0.00    +0.000 A 
ATOM     24  C   UNL     1       2.795   7.083  18.223  0.00  0.00    +0.000 A 
ATOM     25  C   UNL     1       2.479   6.887  19.565  0.00  0.00    +0.000 A 
ATOM     26  C   UNL     1       1.740   7.857  20.250  0.00  0.00    +0.000 A 
BRANCH  26  27
ATOM     27  O   UNL     1       1.464   7.666  21.580  0.00  0.00    +0.000 OA
ATOM     28  H   UNL     1       0.887   8.384  21.885  0.00  0.00    +0.000 HD
ENDBRANCH  26  27
ENDBRANCH  20  21
ENDBRANCH  10  19
TORSDOF 4
ENDMDL
MODEL 5
REMARK VINA RESULT:      -6.9      8.276     10.089
REMARK  Name = 
REMARK  4 active torsions:
REMARK  status: ('A' for Active; 'I' for Inactive)
REMARK    1  A    between atoms: C_10  and  C_11
REMARK    2  A    between atoms: C_12  and  C_13
REMARK    3  A    between atoms: C_18  and  O_19
REMARK    4  A    between atoms: N_20  and  C_21
REMARK                            x       y       z     vdW  Elec       q    Type
REMARK                         _______ _______ _______ _____ _____    ______ ____
ROOT
ATOM      1  O   UNL     1       0.227  15.105  22.663  0.00  0.00    +0.000 OA
ATOM      2  C   UNL     1      -0.370  14.050  22.444  0.00  0.00    +0.000 A 
ATOM      3  C   UNL     1      -1.572  13.768  23.238  0.00  0.00    +0.000 A 
ATOM      4  C   UNL     1      -2.086  14.716  24.134  0.00  0.00    +0.000 A 
ATOM      5  C   UNL     1      -3.244  14.428  24.854  0.00  0.00    +0.000 A 
ATOM      6  C   UNL     1      -3.867  13.191  24.694  0.00  0.00    +0.000 A 
ATOM      7  C   UNL     1      -3.346  12.256  23.791  0.00  0.00    +0.000 A 
ATOM      8  C   UNL     1      -2.206  12.549  23.041  0.00  0.00    +0.000 A 
ATOM      9  N   UNL     1      -1.765  11.624  22.093  0.00  0.00    +0.000 NA
ATOM     10  C   UNL     1      -0.754  11.922  21.326  0.00  0.00    +0.000 A 
ATOM     11  N   UNL     1      -0.030  13.105  21.461  0.00  0.00    +0.000 N 
ENDROOT
BRANCH  11  12
ATOM     12  C   UNL     1       0.998  13.511  20.557  0.00  0.00    +0.000 A 
ATOM     13  C   UNL     1       2.344  13.410  20.943  0.00  0.00    +0.000 A 
ATOM     14  C   UNL     1       3.348  14.012  20.182  0.00  0.00    +0.000 A 
ATOM     15  C   UNL     1       3.006  14.731  19.040  0.00  0.00    +0.000 A 
ATOM     16 BR   UNL     1       4.348  15.652  18.079  0.00  0.00    +0.000 Br
ATOM     17  C   UNL     1       1.675  14.814  18.627  0.00  0.00    +0.000 A 
ATOM     18  C   UNL     1       0.669  14.193  19.378  0.00  0.00    +0.000 A 
ENDBRANCH  11  12
BRANCH  10  19
ATOM     19  C   UNL     1      -0.295  10.906  20.323  0.00  0.00    +0.000 C 
ATOM     20  C   UNL     1       0.726  10.087  20.639  0.00  0.00    +0.000 C 
BRANCH  20  21
ATOM     21  C   UNL     1       1.352   9.089  19.749  0.00  0.00    +0.000 A 
ATOM     22  C   UNL     1       1.594   9.366  18.395  0.00  0.00    +0.000 A 
ATOM     23  C   UNL     1       2.230   8.428  17.572  0.00  0.00    +0.000 A 
ATOM     24  C   UNL     1       2.642   7.204  18.093  0.00  0.00    +0.000 A 
ATOM     25  C   UNL     1       2.442   6.921  19.442  0.00  0.00    +0.000 A 
ATOM     26  C   UNL     1       1.814   7.865  20.261  0.00  0.00    +0.000 A 
BRANCH  26  27
ATOM     27  O   UNL     1       1.654   7.586  21.595  0.00  0.00    +0.000 OA
ATOM     28  H   UNL     1       0.818   7.107  21.715  0.00  0.00    +0.000 HD
ENDBRANCH  26  27
ENDBRANCH  20  21
ENDBRANCH  10  19
TORSDOF 4
ENDMDL
MODEL 6
REMARK VINA RESULT:      -6.8      0.406      1.016
REMARK  Name = 
REMARK  4 active torsions:
REMARK  status: ('A' for Active; 'I' for Inactive)
REMARK    1  A    between atoms: C_10  and  C_11
REMARK    2  A    between atoms: C_12  and  C_13
REMARK    3  A    between atoms: C_18  and  O_19
REMARK    4  A    between atoms: N_20  and  C_21
REMARK                            x       y       z     vdW  Elec       q    Type
REMARK                         _______ _______ _______ _____ _____    ______ ____
ROOT
ATOM      1  O   UNL     1       3.707   5.521  20.483  0.00  0.00    +0.000 OA
ATOM      2  C   UNL     1       3.664   4.736  19.535  0.00  0.00    +0.000 A 
ATOM      3  C   UNL     1       2.560   3.768  19.499  0.00  0.00    +0.000 A 
ATOM      4  C   UNL     1       1.529   3.811  20.449  0.00  0.00    +0.000 A 
ATOM      5  C   UNL     1       0.482   2.896  20.372  0.00  0.00    +0.000 A 
ATOM      6  C   UNL     1       0.481   1.931  19.365  0.00  0.00    +0.000 A 
ATOM      7  C   UNL     1       1.513   1.903  18.420  0.00  0.00    +0.000 A 
ATOM      8  C   UNL     1       2.549   2.838  18.470  0.00  0.00    +0.000 A 
ATOM      9  N   UNL     1       3.516   2.829  17.462  0.00  0.00    +0.000 NA
ATOM     10  C   UNL     1       4.438   3.750  17.449  0.00  0.00    +0.000 A 
ATOM     11  N   UNL     1       4.556   4.712  18.451  0.00  0.00    +0.000 N 
ENDROOT
BRANCH  11  12
ATOM     12  C   UNL     1       5.476   5.803  18.395  0.00  0.00    +0.000 A 
ATOM     13  C   UNL     1       5.158   6.943  17.641  0.00  0.00    +0.000 A 
ATOM     14  C   UNL     1       6.127   7.914  17.378  0.00  0.00    +0.000 A 
ATOM     15  C   UNL     1       7.422   7.738  17.858  0.00  0.00    +0.000 A 
ATOM     16 BR   UNL     1       8.765   8.986  17.399  0.00  0.00    +0.000 Br
ATOM     17  C   UNL     1       7.744   6.625  18.636  0.00  0.00    +0.000 A 
ATOM     18  C   UNL     1       6.769   5.661  18.917  0.00  0.00    +0.000 A 
ENDBRANCH  11  12
BRANCH  10  19
ATOM     19  C   UNL     1       5.470   3.711  16.361  0.00  0.00    +0.000 C 
ATOM     20  C   UNL     1       5.171   4.234  15.156  0.00  0.00    +0.000 C 
BRANCH  20  21
ATOM     21  C   UNL     1       6.033   4.212  13.958  0.00  0.00    +0.000 A 
ATOM     22  C   UNL     1       5.662   3.506  12.803  0.00  0.00    +0.000 A 
ATOM     23  C   UNL     1       6.466   3.530  11.657  0.00  0.00    +0.000 A 
ATOM     24  C   UNL     1       7.647   4.269  11.645  0.00  0.00    +0.000 A 
ATOM     25  C   UNL     1       8.017   5.004  12.767  0.00  0.00    +0.000 A 
ATOM     26  C   UNL     1       7.206   4.983  13.907  0.00  0.00    +0.000 A 
BRANCH  26  27
ATOM     27  O   UNL     1       7.567   5.738  14.993  0.00  0.00    +0.000 OA
ATOM     28  H   UNL     1       6.872   5.666  15.668  0.00  0.00    +0.000 HD
ENDBRANCH  26  27
ENDBRANCH  20  21
ENDBRANCH  10  19
TORSDOF 4
ENDMDL
MODEL 7
REMARK VINA RESULT:      -6.8      8.394     10.180
REMARK  Name = 
REMARK  4 active torsions:
REMARK  status: ('A' for Active; 'I' for Inactive)
REMARK    1  A    between atoms: C_10  and  C_11
REMARK    2  A    between atoms: C_12  and  C_13
REMARK    3  A    between atoms: C_18  and  O_19
REMARK    4  A    between atoms: N_20  and  C_21
REMARK                            x       y       z     vdW  Elec       q    Type
REMARK                         _______ _______ _______ _____ _____    ______ ____
ROOT
ATOM      1  O   UNL     1      -0.333  15.770  22.302  0.00  0.00    +0.000 OA
ATOM      2  C   UNL     1      -0.528  14.555  22.250  0.00  0.00    +0.000 A 
ATOM      3  C   UNL     1      -1.738  14.029  22.896  0.00  0.00    +0.000 A 
ATOM      4  C   UNL     1      -2.694  14.891  23.452  0.00  0.00    +0.000 A 
ATOM      5  C   UNL     1      -3.843  14.363  24.034  0.00  0.00    +0.000 A 
ATOM      6  C   UNL     1      -4.022  12.981  24.078  0.00  0.00    +0.000 A 
ATOM      7  C   UNL     1      -3.063  12.132  23.513  0.00  0.00    +0.000 A 
ATOM      8  C   UNL     1      -1.923  12.655  22.898  0.00  0.00    +0.000 A 
ATOM      9  N   UNL     1      -1.031  11.780  22.275  0.00  0.00    +0.000 NA
ATOM     10  C   UNL     1      -0.010  12.262  21.623  0.00  0.00    +0.000 A 
ATOM     11  N   UNL     1       0.284  13.623  21.583  0.00  0.00    +0.000 N 
ENDROOT
BRANCH  11  12
ATOM     12  C   UNL     1       1.320  14.186  20.777  0.00  0.00    +0.000 A 
ATOM     13  C   UNL     1       1.102  14.387  19.405  0.00  0.00    +0.000 A 
ATOM     14  C   UNL     1       2.163  14.710  18.557  0.00  0.00    +0.000 A 
ATOM     15  C   UNL     1       3.449  14.818  19.078  0.00  0.00    +0.000 A 
ATOM     16 BR   UNL     1       4.905  15.130  17.914  0.00  0.00    +0.000 Br
ATOM     17  C   UNL     1       3.676  14.651  20.445  0.00  0.00    +0.000 A 
ATOM     18  C   UNL     1       2.610  14.348  21.300  0.00  0.00    +0.000 A 
ENDBRANCH  11  12
BRANCH  10  19
ATOM     19  C   UNL     1       0.938  11.300  20.971  0.00  0.00    +0.000 C 
ATOM     20  C   UNL     1       0.447  10.186  20.393  0.00  0.00    +0.000 C 
BRANCH  20  21
ATOM     21  C   UNL     1       1.238   9.102  19.778  0.00  0.00    +0.000 A 
ATOM     22  C   UNL     1       1.544   7.928  20.485  0.00  0.00    +0.000 A 
ATOM     23  C   UNL     1       2.255   6.887  19.875  0.00  0.00    +0.000 A 
ATOM     24  C   UNL     1       2.662   7.000  18.547  0.00  0.00    +0.000 A 
ATOM     25  C   UNL     1       2.340   8.140  17.817  0.00  0.00    +0.000 A 
ATOM     26  C   UNL     1       1.622   9.174  18.428  0.00  0.00    +0.000 A 
BRANCH  26  27
ATOM     27  O   UNL     1       1.283  10.277  17.687  0.00  0.00    +0.000 OA
ATOM     28  H   UNL     1       1.932  10.979  17.859  0.00  0.00    +0.000 HD
ENDBRANCH  26  27
ENDBRANCH  20  21
ENDBRANCH  10  19
TORSDOF 4
ENDMDL
MODEL 8
REMARK VINA RESULT:      -6.7      7.317      9.714
REMARK  Name = 
REMARK  4 active torsions:
REMARK  status: ('A' for Active; 'I' for Inactive)
REMARK    1  A    between atoms: C_10  and  C_11
REMARK    2  A    between atoms: C_12  and  C_13
REMARK    3  A    between atoms: C_18  and  O_19
REMARK    4  A    between atoms: N_20  and  C_21
REMARK                            x       y       z     vdW  Elec       q    Type
REMARK                         _______ _______ _______ _____ _____    ______ ____
ROOT
ATOM      1  O   UNL     1       0.514   8.422  21.385  0.00  0.00    +0.000 OA
ATOM      2  C   UNL     1       1.025   8.849  20.349  0.00  0.00    +0.000 A 
ATOM      3  C   UNL     1       1.832   7.917  19.551  0.00  0.00    +0.000 A 
ATOM      4  C   UNL     1       1.924   6.561  19.896  0.00  0.00    +0.000 A 
ATOM      5  C   UNL     1       2.676   5.697  19.103  0.00  0.00    +0.000 A 
ATOM      6  C   UNL     1       3.350   6.194  17.988  0.00  0.00    +0.000 A 
ATOM      7  C   UNL     1       3.245   7.548  17.652  0.00  0.00    +0.000 A 
ATOM      8  C   UNL     1       2.466   8.415  18.422  0.00  0.00    +0.000 A 
ATOM      9  N   UNL     1       2.321   9.740  18.007  0.00  0.00    +0.000 NA
ATOM     10  C   UNL     1       1.528  10.536  18.668  0.00  0.00    +0.000 A 
ATOM     11  N   UNL     1       0.868  10.146  19.832  0.00  0.00    +0.000 N 
ENDROOT
BRANCH  11  12
ATOM     12  C   UNL     1      -0.101  10.954  20.501  0.00  0.00    +0.000 A 
ATOM     13  C   UNL     1      -1.334  11.216  19.885  0.00  0.00    +0.000 A 
ATOM     14  C   UNL     1      -2.196  12.184  20.404  0.00  0.00    +0.000 A 
ATOM     15  C   UNL     1      -1.817  12.905  21.533  0.00  0.00    +0.000 A 
ATOM     16 BR   UNL     1      -2.923  14.302  22.164  0.00  0.00    +0.000 Br
ATOM     17  C   UNL     1      -0.608  12.634  22.174  0.00  0.00    +0.000 A 
ATOM     18  C   UNL     1       0.248  11.648  21.667  0.00  0.00    +0.000 A 
ENDBRANCH  11  12
BRANCH  10  19
ATOM     19  C   UNL     1       1.397  11.957  18.207  0.00  0.00    +0.000 C 
ATOM     20  C   UNL     1       2.190  12.899  18.755  0.00  0.00    +0.000 C 
BRANCH  20  21
ATOM     21  C   UNL     1       2.142  14.348  18.477  0.00  0.00    +0.000 A 
ATOM     22  C   UNL     1       1.036  15.128  18.848  0.00  0.00    +0.000 A 
ATOM     23  C   UNL     1       1.023  16.510  18.620  0.00  0.00    +0.000 A 
ATOM     24  C   UNL     1       2.118  17.134  18.028  0.00  0.00    +0.000 A 
ATOM     25  C   UNL     1       3.240  16.385  17.683  0.00  0.00    +0.000 A 
ATOM     26  C   UNL     1       3.252  15.007  17.921  0.00  0.00    +0.000 A 
BRANCH  26  27
ATOM     27  O   UNL     1       4.377  14.287  17.606  0.00  0.00    +0.000 OA
ATOM     28  H   UNL     1       5.105  14.906  17.434  0.00  0.00    +0.000 HD
ENDBRANCH  26  27
ENDBRANCH  20  21
ENDBRANCH  10  19
TORSDOF 4
ENDMDL
MODEL 9
REMARK VINA RESULT:      -6.6      7.841     11.018
REMARK  Name = 
REMARK  4 active torsions:
REMARK  status: ('A' for Active; 'I' for Inactive)
REMARK    1  A    between atoms: C_10  and  C_11
REMARK    2  A    between atoms: C_12  and  C_13
REMARK    3  A    between atoms: C_18  and  O_19
REMARK    4  A    between atoms: N_20  and  C_21
REMARK                            x       y       z     vdW  Elec       q    Type
REMARK                         _______ _______ _______ _____ _____    ______ ____
ROOT
ATOM      1  O   UNL     1       1.837  10.536  17.753  0.00  0.00    +0.000 OA
ATOM      2  C   UNL     1       1.541  10.060  18.850  0.00  0.00    +0.000 A 
ATOM      3  C   UNL     1       1.833   8.639  19.079  0.00  0.00    +0.000 A 
ATOM      4  C   UNL     1       2.528   7.881  18.126  0.00  0.00    +0.000 A 
ATOM      5  C   UNL     1       2.813   6.542  18.385  0.00  0.00    +0.000 A 
ATOM      6  C   UNL     1       2.385   5.963  19.579  0.00  0.00    +0.000 A 
ATOM      7  C   UNL     1       1.698   6.734  20.524  0.00  0.00    +0.000 A 
ATOM      8  C   UNL     1       1.437   8.086  20.288  0.00  0.00    +0.000 A 
ATOM      9  N   UNL     1       0.823   8.840  21.289  0.00  0.00    +0.000 NA
ATOM     10  C   UNL     1       0.652  10.120  21.114  0.00  0.00    +0.000 A 
ATOM     11  N   UNL     1       0.987  10.770  19.928  0.00  0.00    +0.000 N 
ENDROOT
BRANCH  11  12
ATOM     12  C   UNL     1       0.927  12.186  19.757  0.00  0.00    +0.000 A 
ATOM     13  C   UNL     1      -0.094  12.751  18.978  0.00  0.00    +0.000 A 
ATOM     14  C   UNL     1      -0.041  14.095  18.603  0.00  0.00    +0.000 A 
ATOM     15  C   UNL     1       1.044  14.874  18.995  0.00  0.00    +0.000 A 
ATOM     16 BR   UNL     1       1.182  16.658  18.384  0.00  0.00    +0.000 Br
ATOM     17  C   UNL     1       2.051  14.335  19.796  0.00  0.00    +0.000 A 
ATOM     18  C   UNL     1       1.989  12.993  20.190  0.00  0.00    +0.000 A 
ENDBRANCH  11  12
BRANCH  10  19
ATOM     19  C   UNL     1      -0.019  10.905  22.202  0.00  0.00    +0.000 C 
ATOM     20  C   UNL     1      -1.168  11.554  21.928  0.00  0.00    +0.000 C 
BRANCH  20  21
ATOM     21  C   UNL     1      -1.917  12.430  22.851  0.00  0.00    +0.000 A 
ATOM     22  C   UNL     1      -3.114  12.009  23.450  0.00  0.00    +0.000 A 
ATOM     23  C   UNL     1      -3.790  12.831  24.359  0.00  0.00    +0.000 A 
ATOM     24  C   UNL     1      -3.275  14.082  24.691  0.00  0.00    +0.000 A 
ATOM     25  C   UNL     1      -2.071  14.506  24.135  0.00  0.00    +0.000 A 
ATOM     26  C   UNL     1      -1.395  13.677  23.233  0.00  0.00    +0.000 A 
BRANCH  26  27
ATOM     27  O   UNL     1      -0.194  14.095  22.719  0.00  0.00    +0.000 OA
ATOM     28  H   UNL     1       0.443  14.184  23.446  0.00  0.00    +0.000 HD
ENDBRANCH  26  27
ENDBRANCH  20  21
ENDBRANCH  10  19
TORSDOF 4
ENDMDL
