MODEL 1
REMARK VINA RESULT:      -7.5      0.000      0.000
REMARK  Name = 
REMARK  12 active torsions:
REMARK  status: ('A' for Active; 'I' for Inactive)
REMARK    1  A    between atoms: C_1  and  C_2
REMARK    2  A    between atoms: C_2  and  C_3
REMARK    3  A    between atoms: C_3  and  N_4
REMARK    4  A    between atoms: N_4  and  C_5
REMARK    5  A    between atoms: C_5  and  C_6
REMARK    6  A    between atoms: C_6  and  C_7
REMARK    7  A    between atoms: C_8  and  C_10
REMARK    8  A    between atoms: C_10  and  N_11
REMARK    9  A    between atoms: N_14  and  C_15
REMARK   10  A    between atoms: C_15  and  C_16
REMARK   11  A    between atoms: C_19  and  C_20
REMARK   12  A    between atoms: C_21  and  C_22
REMARK                            x       y       z     vdW  Elec       q    Type
REMARK                         _______ _______ _______ _____ _____    ______ ____
ROOT
ATOM      1  N   UNL     1       2.653   6.345  18.856  0.00  0.00    +0.000 N 
ATOM      2  C   UNL     1       3.887   6.507  18.211  0.00  0.00    +0.000 A 
ATOM      3  O   UNL     1       4.097   7.485  17.487  0.00  0.00    +0.000 OA
ATOM      4  N   UNL     1       4.856   5.515  18.409  0.00  0.00    +0.000 N 
ATOM      5  C   UNL     1       4.683   4.363  19.188  0.00  0.00    +0.000 A 
ATOM      6  O   UNL     1       5.573   3.531  19.352  0.00  0.00    +0.000 OA
ATOM      7  C   UNL     1       3.383   4.264  19.781  0.00  0.00    +0.000 A 
ATOM      8  S   UNL     1       2.893   2.938  20.721  0.00  0.00    +0.000 S 
ATOM      9  C   UNL     1       1.372   3.661  21.027  0.00  0.00    +0.000 A 
ATOM     10  C   UNL     1       1.253   4.891  20.411  0.00  0.00    +0.000 A 
ATOM     11  C   UNL     1       2.414   5.224  19.652  0.00  0.00    +0.000 A 
ENDROOT
BRANCH   1  12
ATOM     12  C   UNL     1       1.650   7.398  18.665  0.00  0.00    +0.000 C 
BRANCH  12  14
ATOM     13  N   UNL     1       1.094   9.647  19.640  0.00  0.00    +0.000 N 
ATOM     14  C   UNL     1       1.533   8.335  19.881  0.00  0.00    +0.000 C 
ATOM     15  O   UNL     1       1.807   7.943  21.018  0.00  0.00    +0.000 OA
BRANCH  13  16
ATOM     16  C   UNL     1       1.032  10.576  20.775  0.00  0.00    +0.000 C 
BRANCH  16  18
ATOM     17  C   UNL     1      -0.307  10.041  22.905  0.00  0.00    +0.000 C 
ATOM     18  C   UNL     1      -0.322  10.633  21.503  0.00  0.00    +0.000 C 
ENDBRANCH  16  18
ENDBRANCH  13  16
BRANCH  13  19
ATOM     19  C   UNL     1       0.518  10.096  18.364  0.00  0.00    +0.000 C 
BRANCH  19  20
ATOM     20  C   UNL     1      -1.008   9.953  18.256  0.00  0.00    +0.000 C 
ATOM     21  C   UNL     1      -1.755  11.247  17.972  0.00  0.00    +0.000 C 
ENDBRANCH  19  20
ENDBRANCH  13  19
ENDBRANCH  12  14
ENDBRANCH   1  12
BRANCH   4  22
ATOM     22  C   UNL     1       6.148   5.680  17.751  0.00  0.00    +0.000 C 
BRANCH  22  23
ATOM     23  C   UNL     1       6.177   5.033  16.383  0.00  0.00    +0.000 A 
ATOM     24  C   UNL     1       5.238   4.059  16.032  0.00  0.00    +0.000 A 
ATOM     25  C   UNL     1       5.212   3.533  14.741  0.00  0.00    +0.000 A 
ATOM     26  C   UNL     1       6.117   3.971  13.762  0.00  0.00    +0.000 A 
ATOM     27  C   UNL     1       6.006   3.414  12.370  0.00  0.00    +0.000 C 
ATOM     28  C   UNL     1       7.081   4.936  14.108  0.00  0.00    +0.000 A 
ATOM     29  C   UNL     1       8.081   5.489  13.129  0.00  0.00    +0.000 C 
ATOM     30  C   UNL     1       7.105   5.449  15.419  0.00  0.00    +0.000 A 
ENDBRANCH  22  23
ENDBRANCH   4  22
TORSDOF 8
ENDMDL
MODEL 2
REMARK VINA RESULT:      -7.3      0.649      1.044
REMARK  Name = 
REMARK  12 active torsions:
REMARK  status: ('A' for Active; 'I' for Inactive)
REMARK    1  A    between atoms: C_1  and  C_2
REMARK    2  A    between atoms: C_2  and  C_3
REMARK    3  A    between atoms: C_3  and  N_4
REMARK    4  A    between atoms: N_4  and  C_5
REMARK    5  A    between atoms: C_5  and  C_6
REMARK    6  A    between atoms: C_6  and  C_7
REMARK    7  A    between atoms: C_8  and  C_10
REMARK    8  A    between atoms: C_10  and  N_11
REMARK    9  A    between atoms: N_14  and  C_15
REMARK   10  A    between atoms: C_15  and  C_16
REMARK   11  A    between atoms: C_19  and  C_20
REMARK   12  A    between atoms: C_21  and  C_22
REMARK                            x       y       z     vdW  Elec       q    Type
REMARK                         _______ _______ _______ _____ _____    ______ ____
ROOT
ATOM      1  N   UNL     1       2.609   6.355  18.774  0.00  0.00    +0.000 N 
ATOM      2  C   UNL     1       3.839   6.527  18.123  0.00  0.00    +0.000 A 
ATOM      3  O   UNL     1       4.027   7.490  17.373  0.00  0.00    +0.000 OA
ATOM      4  N   UNL     1       4.829   5.562  18.347  0.00  0.00    +0.000 N 
ATOM      5  C   UNL     1       4.682   4.428  19.156  0.00  0.00    +0.000 A 
ATOM      6  O   UNL     1       5.590   3.620  19.341  0.00  0.00    +0.000 OA
ATOM      7  C   UNL     1       3.385   4.316  19.752  0.00  0.00    +0.000 A 
ATOM      8  S   UNL     1       2.925   3.005  20.728  0.00  0.00    +0.000 S 
ATOM      9  C   UNL     1       1.388   3.702  21.016  0.00  0.00    +0.000 A 
ATOM     10  C   UNL     1       1.242   4.913  20.368  0.00  0.00    +0.000 A 
ATOM     11  C   UNL     1       2.395   5.251  19.599  0.00  0.00    +0.000 A 
ENDROOT
BRANCH   1  12
ATOM     12  C   UNL     1       1.583   7.380  18.556  0.00  0.00    +0.000 C 
BRANCH  12  14
ATOM     13  N   UNL     1       1.030   9.698  19.355  0.00  0.00    +0.000 N 
ATOM     14  C   UNL     1       1.546   8.433  19.679  0.00  0.00    +0.000 C 
ATOM     15  O   UNL     1       1.947   8.169  20.815  0.00  0.00    +0.000 OA
BRANCH  13  16
ATOM     16  C   UNL     1       1.041  10.736  20.395  0.00  0.00    +0.000 C 
BRANCH  16  18
ATOM     17  C   UNL     1       2.146  12.907  19.570  0.00  0.00    +0.000 C 
ATOM     18  C   UNL     1       0.850  12.175  19.885  0.00  0.00    +0.000 C 
ENDBRANCH  16  18
ENDBRANCH  13  16
BRANCH  13  19
ATOM     19  C   UNL     1       0.313   9.996  18.108  0.00  0.00    +0.000 C 
BRANCH  19  20
ATOM     20  C   UNL     1      -1.218   9.902  18.202  0.00  0.00    +0.000 C 
ATOM     21  C   UNL     1      -1.970  11.073  17.587  0.00  0.00    +0.000 C 
ENDBRANCH  19  20
ENDBRANCH  13  19
ENDBRANCH  12  14
ENDBRANCH   1  12
BRANCH   4  22
ATOM     22  C   UNL     1       6.118   5.738  17.684  0.00  0.00    +0.000 C 
BRANCH  22  23
ATOM     23  C   UNL     1       6.154   5.072  16.324  0.00  0.00    +0.000 A 
ATOM     24  C   UNL     1       5.194   4.120  15.968  0.00  0.00    +0.000 A 
ATOM     25  C   UNL     1       5.176   3.578  14.683  0.00  0.00    +0.000 A 
ATOM     26  C   UNL     1       6.112   3.977  13.717  0.00  0.00    +0.000 A 
ATOM     27  C   UNL     1       6.011   3.405  12.330  0.00  0.00    +0.000 C 
ATOM     28  C   UNL     1       7.097   4.919  14.069  0.00  0.00    +0.000 A 
ATOM     29  C   UNL     1       8.130   5.431  13.102  0.00  0.00    +0.000 C 
ATOM     30  C   UNL     1       7.111   5.448  15.373  0.00  0.00    +0.000 A 
ENDBRANCH  22  23
ENDBRANCH   4  22
TORSDOF 8
ENDMDL
MODEL 3
REMARK VINA RESULT:      -7.1      1.777      7.985
REMARK  Name = 
REMARK  12 active torsions:
REMARK  status: ('A' for Active; 'I' for Inactive)
REMARK    1  A    between atoms: C_1  and  C_2
REMARK    2  A    between atoms: C_2  and  C_3
REMARK    3  A    between atoms: C_3  and  N_4
REMARK    4  A    between atoms: N_4  and  C_5
REMARK    5  A    between atoms: C_5  and  C_6
REMARK    6  A    between atoms: C_6  and  C_7
REMARK    7  A    between atoms: C_8  and  C_10
REMARK    8  A    between atoms: C_10  and  N_11
REMARK    9  A    between atoms: N_14  and  C_15
REMARK   10  A    between atoms: C_15  and  C_16
REMARK   11  A    between atoms: C_19  and  C_20
REMARK   12  A    between atoms: C_21  and  C_22
REMARK                            x       y       z     vdW  Elec       q    Type
REMARK                         _______ _______ _______ _____ _____    ______ ____
ROOT
ATOM      1  N   UNL     1       2.996   7.295  17.911  0.00  0.00    +0.000 N 
ATOM      2  C   UNL     1       2.530   8.591  18.176  0.00  0.00    +0.000 A 
ATOM      3  O   UNL     1       2.785   9.523  17.407  0.00  0.00    +0.000 OA
ATOM      4  N   UNL     1       1.783   8.783  19.344  0.00  0.00    +0.000 N 
ATOM      5  C   UNL     1       1.478   7.785  20.280  0.00  0.00    +0.000 A 
ATOM      6  O   UNL     1       0.797   7.997  21.281  0.00  0.00    +0.000 OA
ATOM      7  C   UNL     1       2.022   6.504  19.945  0.00  0.00    +0.000 A 
ATOM      8  S   UNL     1       1.853   5.138  20.940  0.00  0.00    +0.000 S 
ATOM      9  C   UNL     1       2.679   4.156  19.807  0.00  0.00    +0.000 A 
ATOM     10  C   UNL     1       3.076   4.874  18.696  0.00  0.00    +0.000 A 
ATOM     11  C   UNL     1       2.725   6.253  18.797  0.00  0.00    +0.000 A 
ENDROOT
BRANCH   1  12
ATOM     12  C   UNL     1       3.758   7.094  16.674  0.00  0.00    +0.000 C 
BRANCH  12  14
ATOM     13  N   UNL     1       5.842   5.696  16.541  0.00  0.00    +0.000 N 
ATOM     14  C   UNL     1       5.267   6.917  16.927  0.00  0.00    +0.000 C 
ATOM     15  O   UNL     1       5.938   7.816  17.438  0.00  0.00    +0.000 OA
BRANCH  13  16
ATOM     16  C   UNL     1       7.267   5.481  16.827  0.00  0.00    +0.000 C 
BRANCH  16  18
ATOM     17  C   UNL     1       7.882   5.725  19.313  0.00  0.00    +0.000 C 
ATOM     18  C   UNL     1       7.569   4.779  18.162  0.00  0.00    +0.000 C 
ENDBRANCH  16  18
ENDBRANCH  13  16
BRANCH  13  19
ATOM     19  C   UNL     1       5.161   4.695  15.707  0.00  0.00    +0.000 C 
BRANCH  19  20
ATOM     20  C   UNL     1       6.093   3.709  14.986  0.00  0.00    +0.000 C 
ATOM     21  C   UNL     1       6.270   3.965  13.497  0.00  0.00    +0.000 C 
ENDBRANCH  19  20
ENDBRANCH  13  19
ENDBRANCH  12  14
ENDBRANCH   1  12
BRANCH   4  22
ATOM     22  C   UNL     1       1.283  10.125  19.624  0.00  0.00    +0.000 C 
BRANCH  22  23
ATOM     23  C   UNL     1      -0.063  10.378  18.976  0.00  0.00    +0.000 A 
ATOM     24  C   UNL     1      -0.449   9.675  17.831  0.00  0.00    +0.000 A 
ATOM     25  C   UNL     1      -1.724   9.844  17.292  0.00  0.00    +0.000 A 
ATOM     26  C   UNL     1      -2.651  10.715  17.886  0.00  0.00    +0.000 A 
ATOM     27  C   UNL     1      -4.031  10.815  17.299  0.00  0.00    +0.000 C 
ATOM     28  C   UNL     1      -2.267  11.445  19.027  0.00  0.00    +0.000 A 
ATOM     29  C   UNL     1      -3.191  12.385  19.752  0.00  0.00    +0.000 C 
ATOM     30  C   UNL     1      -0.973  11.274  19.552  0.00  0.00    +0.000 A 
ENDBRANCH  22  23
ENDBRANCH   4  22
TORSDOF 8
ENDMDL
MODEL 4
REMARK VINA RESULT:      -6.7      1.021      1.852
REMARK  Name = 
REMARK  12 active torsions:
REMARK  status: ('A' for Active; 'I' for Inactive)
REMARK    1  A    between atoms: C_1  and  C_2
REMARK    2  A    between atoms: C_2  and  C_3
REMARK    3  A    between atoms: C_3  and  N_4
REMARK    4  A    between atoms: N_4  and  C_5
REMARK    5  A    between atoms: C_5  and  C_6
REMARK    6  A    between atoms: C_6  and  C_7
REMARK    7  A    between atoms: C_8  and  C_10
REMARK    8  A    between atoms: C_10  and  N_11
REMARK    9  A    between atoms: N_14  and  C_15
REMARK   10  A    between atoms: C_15  and  C_16
REMARK   11  A    between atoms: C_19  and  C_20
REMARK   12  A    between atoms: C_21  and  C_22
REMARK                            x       y       z     vdW  Elec       q    Type
REMARK                         _______ _______ _______ _____ _____    ______ ____
ROOT
ATOM      1  N   UNL     1       2.615   6.374  18.389  0.00  0.00    +0.000 N 
ATOM      2  C   UNL     1       3.843   6.552  17.735  0.00  0.00    +0.000 A 
ATOM      3  O   UNL     1       3.965   7.394  16.839  0.00  0.00    +0.000 OA
ATOM      4  N   UNL     1       4.909   5.734  18.128  0.00  0.00    +0.000 N 
ATOM      5  C   UNL     1       4.842   4.738  19.112  0.00  0.00    +0.000 A 
ATOM      6  O   UNL     1       5.813   4.060  19.440  0.00  0.00    +0.000 OA
ATOM      7  C   UNL     1       3.543   4.605  19.701  0.00  0.00    +0.000 A 
ATOM      8  S   UNL     1       3.175   3.433  20.873  0.00  0.00    +0.000 S 
ATOM      9  C   UNL     1       1.574   4.021  21.021  0.00  0.00    +0.000 A 
ATOM     10  C   UNL     1       1.338   5.090  20.180  0.00  0.00    +0.000 A 
ATOM     11  C   UNL     1       2.478   5.404  19.382  0.00  0.00    +0.000 A 
ENDROOT
BRANCH   1  12
ATOM     12  C   UNL     1       1.507   7.250  17.990  0.00  0.00    +0.000 C 
BRANCH  12  14
ATOM     13  N   UNL     1       1.289   9.238  19.512  0.00  0.00    +0.000 N 
ATOM     14  C   UNL     1       1.782   8.733  18.298  0.00  0.00    +0.000 C 
ATOM     15  O   UNL     1       2.415   9.441  17.512  0.00  0.00    +0.000 OA
BRANCH  13  16
ATOM     16  C   UNL     1       1.487  10.665  19.799  0.00  0.00    +0.000 C 
BRANCH  16  18
ATOM     17  C   UNL     1      -0.942  10.831  18.971  0.00  0.00    +0.000 C 
ATOM     18  C   UNL     1       0.292  11.573  19.463  0.00  0.00    +0.000 C 
ENDBRANCH  16  18
ENDBRANCH  13  16
BRANCH  13  19
ATOM     19  C   UNL     1       0.754   8.397  20.593  0.00  0.00    +0.000 C 
BRANCH  19  20
ATOM     20  C   UNL     1       1.148   8.837  22.011  0.00  0.00    +0.000 C 
ATOM     21  C   UNL     1       0.002   9.368  22.859  0.00  0.00    +0.000 C 
ENDBRANCH  19  20
ENDBRANCH  13  19
ENDBRANCH  12  14
ENDBRANCH   1  12
BRANCH   4  22
ATOM     22  C   UNL     1       6.195   5.919  17.463  0.00  0.00    +0.000 C 
BRANCH  22  23
ATOM     23  C   UNL     1       6.261   5.189  16.138  0.00  0.00    +0.000 A 
ATOM     24  C   UNL     1       5.365   4.156  15.845  0.00  0.00    +0.000 A 
ATOM     25  C   UNL     1       5.369   3.549  14.590  0.00  0.00    +0.000 A 
ATOM     26  C   UNL     1       6.263   3.961  13.590  0.00  0.00    +0.000 A 
ATOM     27  C   UNL     1       6.186   3.314  12.235  0.00  0.00    +0.000 C 
ATOM     28  C   UNL     1       7.185   4.986  13.878  0.00  0.00    +0.000 A 
ATOM     29  C   UNL     1       8.168   5.517  12.871  0.00  0.00    +0.000 C 
ATOM     30  C   UNL     1       7.178   5.580  15.154  0.00  0.00    +0.000 A 
ENDBRANCH  22  23
ENDBRANCH   4  22
TORSDOF 8
ENDMDL
MODEL 5
REMARK VINA RESULT:      -6.6      4.708      8.124
REMARK  Name = 
REMARK  12 active torsions:
REMARK  status: ('A' for Active; 'I' for Inactive)
REMARK    1  A    between atoms: C_1  and  C_2
REMARK    2  A    between atoms: C_2  and  C_3
REMARK    3  A    between atoms: C_3  and  N_4
REMARK    4  A    between atoms: N_4  and  C_5
REMARK    5  A    between atoms: C_5  and  C_6
REMARK    6  A    between atoms: C_6  and  C_7
REMARK    7  A    between atoms: C_8  and  C_10
REMARK    8  A    between atoms: C_10  and  N_11
REMARK    9  A    between atoms: N_14  and  C_15
REMARK   10  A    between atoms: C_15  and  C_16
REMARK   11  A    between atoms: C_19  and  C_20
REMARK   12  A    between atoms: C_21  and  C_22
REMARK                            x       y       z     vdW  Elec       q    Type
REMARK                         _______ _______ _______ _____ _____    ______ ____
ROOT
ATOM      1  N   UNL     1      -1.777  12.796  20.177  0.00  0.00    +0.000 N 
ATOM      2  C   UNL     1      -0.463  12.398  19.889  0.00  0.00    +0.000 A 
ATOM      3  O   UNL     1       0.495  12.914  20.473  0.00  0.00    +0.000 OA
ATOM      4  N   UNL     1      -0.286  11.412  18.910  0.00  0.00    +0.000 N 
ATOM      5  C   UNL     1      -1.317  10.803  18.183  0.00  0.00    +0.000 A 
ATOM      6  O   UNL     1      -1.113   9.923  17.349  0.00  0.00    +0.000 OA
ATOM      7  C   UNL     1      -2.619  11.294  18.519  0.00  0.00    +0.000 A 
ATOM      8  S   UNL     1      -4.035  10.768  17.742  0.00  0.00    +0.000 S 
ATOM      9  C   UNL     1      -5.006  11.752  18.752  0.00  0.00    +0.000 A 
ATOM     10  C   UNL     1      -4.249  12.467  19.658  0.00  0.00    +0.000 A 
ATOM     11  C   UNL     1      -2.852  12.227  19.494  0.00  0.00    +0.000 A 
ENDROOT
BRANCH   1  12
ATOM     12  C   UNL     1      -1.959  13.812  21.219  0.00  0.00    +0.000 C 
BRANCH  12  14
ATOM     13  N   UNL     1      -3.171  14.045  23.408  0.00  0.00    +0.000 N 
ATOM     14  C   UNL     1      -2.425  13.213  22.558  0.00  0.00    +0.000 C 
ATOM     15  O   UNL     1      -2.160  12.048  22.863  0.00  0.00    +0.000 OA
BRANCH  13  16
ATOM     16  C   UNL     1      -3.575  13.514  24.717  0.00  0.00    +0.000 C 
BRANCH  16  18
ATOM     17  C   UNL     1      -5.958  12.712  24.174  0.00  0.00    +0.000 C 
ATOM     18  C   UNL     1      -4.568  12.340  24.669  0.00  0.00    +0.000 C 
ENDBRANCH  16  18
ENDBRANCH  13  16
BRANCH  13  19
ATOM     19  C   UNL     1      -3.731  15.342  23.001  0.00  0.00    +0.000 C 
BRANCH  19  20
ATOM     20  C   UNL     1      -4.366  16.158  24.136  0.00  0.00    +0.000 C 
ATOM     21  C   UNL     1      -5.844  16.471  23.951  0.00  0.00    +0.000 C 
ENDBRANCH  19  20
ENDBRANCH  13  19
ENDBRANCH  12  14
ENDBRANCH   1  12
BRANCH   4  22
ATOM     22  C   UNL     1       1.077  10.982  18.612  0.00  0.00    +0.000 C 
BRANCH  22  23
ATOM     23  C   UNL     1       1.382   9.616  19.189  0.00  0.00    +0.000 A 
ATOM     24  C   UNL     1       0.940   9.265  20.469  0.00  0.00    +0.000 A 
ATOM     25  C   UNL     1       1.144   7.976  20.959  0.00  0.00    +0.000 A 
ATOM     26  C   UNL     1       1.789   6.999  20.184  0.00  0.00    +0.000 A 
ATOM     27  C   UNL     1       1.930   5.609  20.738  0.00  0.00    +0.000 C 
ATOM     28  C   UNL     1       2.257   7.346  18.902  0.00  0.00    +0.000 A 
ATOM     29  C   UNL     1       2.939   6.370  17.983  0.00  0.00    +0.000 C 
ATOM     30  C   UNL     1       2.056   8.654  18.425  0.00  0.00    +0.000 A 
ENDBRANCH  22  23
ENDBRANCH   4  22
TORSDOF 8
ENDMDL
MODEL 6
REMARK VINA RESULT:      -6.6      4.292      9.741
REMARK  Name = 
REMARK  12 active torsions:
REMARK  status: ('A' for Active; 'I' for Inactive)
REMARK    1  A    between atoms: C_1  and  C_2
REMARK    2  A    between atoms: C_2  and  C_3
REMARK    3  A    between atoms: C_3  and  N_4
REMARK    4  A    between atoms: N_4  and  C_5
REMARK    5  A    between atoms: C_5  and  C_6
REMARK    6  A    between atoms: C_6  and  C_7
REMARK    7  A    between atoms: C_8  and  C_10
REMARK    8  A    between atoms: C_10  and  N_11
REMARK    9  A    between atoms: N_14  and  C_15
REMARK   10  A    between atoms: C_15  and  C_16
REMARK   11  A    between atoms: C_19  and  C_20
REMARK   12  A    between atoms: C_21  and  C_22
REMARK                            x       y       z     vdW  Elec       q    Type
REMARK                         _______ _______ _______ _____ _____    ______ ____
ROOT
ATOM      1  N   UNL     1       0.328  10.841  18.605  0.00  0.00    +0.000 N 
ATOM      2  C   UNL     1       0.737  11.936  19.380  0.00  0.00    +0.000 A 
ATOM      3  O   UNL     1       1.921  12.072  19.705  0.00  0.00    +0.000 OA
ATOM      4  N   UNL     1      -0.246  12.851  19.778  0.00  0.00    +0.000 N 
ATOM      5  C   UNL     1      -1.611  12.749  19.477  0.00  0.00    +0.000 A 
ATOM      6  O   UNL     1      -2.435  13.592  19.829  0.00  0.00    +0.000 OA
ATOM      7  C   UNL     1      -1.942  11.585  18.712  0.00  0.00    +0.000 A 
ATOM      8  S   UNL     1      -3.533  11.191  18.267  0.00  0.00    +0.000 S 
ATOM      9  C   UNL     1      -2.997   9.814  17.403  0.00  0.00    +0.000 A 
ATOM     10  C   UNL     1      -1.625   9.667  17.467  0.00  0.00    +0.000 A 
ATOM     11  C   UNL     1      -1.015  10.681  18.264  0.00  0.00    +0.000 A 
ENDROOT
BRANCH   1  12
ATOM     12  C   UNL     1       1.364   9.899  18.171  0.00  0.00    +0.000 C 
BRANCH  12  14
ATOM     13  N   UNL     1       2.416   7.697  18.772  0.00  0.00    +0.000 N 
ATOM     14  C   UNL     1       1.589   8.756  19.178  0.00  0.00    +0.000 C 
ATOM     15  O   UNL     1       1.068   8.779  20.296  0.00  0.00    +0.000 OA
BRANCH  13  16
ATOM     16  C   UNL     1       2.596   6.567  19.694  0.00  0.00    +0.000 C 
BRANCH  16  18
ATOM     17  C   UNL     1       1.456   4.468  20.646  0.00  0.00    +0.000 C 
ATOM     18  C   UNL     1       1.685   5.356  19.432  0.00  0.00    +0.000 C 
ENDBRANCH  16  18
ENDBRANCH  13  16
BRANCH  13  19
ATOM     19  C   UNL     1       3.259   7.730  17.568  0.00  0.00    +0.000 C 
BRANCH  19  20
ATOM     20  C   UNL     1       4.246   6.561  17.436  0.00  0.00    +0.000 C 
ATOM     21  C   UNL     1       5.095   6.579  16.173  0.00  0.00    +0.000 C 
ENDBRANCH  19  20
ENDBRANCH  13  19
ENDBRANCH  12  14
ENDBRANCH   1  12
BRANCH   4  22
ATOM     22  C   UNL     1       0.171  14.000  20.575  0.00  0.00    +0.000 C 
BRANCH  22  23
ATOM     23  C   UNL     1       0.423  15.224  19.720  0.00  0.00    +0.000 A 
ATOM     24  C   UNL     1       1.658  15.418  19.094  0.00  0.00    +0.000 A 
ATOM     25  C   UNL     1       1.854  16.499  18.235  0.00  0.00    +0.000 A 
ATOM     26  C   UNL     1       0.821  17.411  17.971  0.00  0.00    +0.000 A 
ATOM     27  C   UNL     1       1.068  18.524  16.991  0.00  0.00    +0.000 C 
ATOM     28  C   UNL     1      -0.421  17.239  18.612  0.00  0.00    +0.000 A 
ATOM     29  C   UNL     1      -1.599  18.145  18.381  0.00  0.00    +0.000 C 
ATOM     30  C   UNL     1      -0.601  16.152  19.487  0.00  0.00    +0.000 A 
ENDBRANCH  22  23
ENDBRANCH   4  22
TORSDOF 8
ENDMDL
MODEL 7
REMARK VINA RESULT:      -6.6      4.371      7.351
REMARK  Name = 
REMARK  12 active torsions:
REMARK  status: ('A' for Active; 'I' for Inactive)
REMARK    1  A    between atoms: C_1  and  C_2
REMARK    2  A    between atoms: C_2  and  C_3
REMARK    3  A    between atoms: C_3  and  N_4
REMARK    4  A    between atoms: N_4  and  C_5
REMARK    5  A    between atoms: C_5  and  C_6
REMARK    6  A    between atoms: C_6  and  C_7
REMARK    7  A    between atoms: C_8  and  C_10
REMARK    8  A    between atoms: C_10  and  N_11
REMARK    9  A    between atoms: N_14  and  C_15
REMARK   10  A    between atoms: C_15  and  C_16
REMARK   11  A    between atoms: C_19  and  C_20
REMARK   12  A    between atoms: C_21  and  C_22
REMARK                            x       y       z     vdW  Elec       q    Type
REMARK                         _______ _______ _______ _____ _____    ______ ____
ROOT
ATOM      1  N   UNL     1      -0.807  12.439  19.798  0.00  0.00    +0.000 N 
ATOM      2  C   UNL     1       0.405  11.841  19.425  0.00  0.00    +0.000 A 
ATOM      3  O   UNL     1       1.477  12.244  19.889  0.00  0.00    +0.000 OA
ATOM      4  N   UNL     1       0.351  10.788  18.504  0.00  0.00    +0.000 N 
ATOM      5  C   UNL     1      -0.819  10.295  17.911  0.00  0.00    +0.000 A 
ATOM      6  O   UNL     1      -0.819   9.350  17.123  0.00  0.00    +0.000 OA
ATOM      7  C   UNL     1      -2.003  10.986  18.324  0.00  0.00    +0.000 A 
ATOM      8  S   UNL     1      -3.545  10.627  17.709  0.00  0.00    +0.000 S 
ATOM      9  C   UNL     1      -4.271  11.793  18.731  0.00  0.00    +0.000 A 
ATOM     10  C   UNL     1      -3.339  12.440  19.518  0.00  0.00    +0.000 A 
ATOM     11  C   UNL     1      -2.011  11.994  19.251  0.00  0.00    +0.000 A 
ENDROOT
BRANCH   1  12
ATOM     12  C   UNL     1      -0.748  13.525  20.781  0.00  0.00    +0.000 C 
BRANCH  12  14
ATOM     13  N   UNL     1      -2.327  13.892  22.702  0.00  0.00    +0.000 N 
ATOM     14  C   UNL     1      -1.295  13.110  22.160  0.00  0.00    +0.000 C 
ATOM     15  O   UNL     1      -0.847  12.127  22.754  0.00  0.00    +0.000 OA
BRANCH  13  16
ATOM     16  C   UNL     1      -2.823  13.551  24.042  0.00  0.00    +0.000 C 
BRANCH  16  18
ATOM     17  C   UNL     1      -4.962  12.432  24.931  0.00  0.00    +0.000 C 
ATOM     18  C   UNL     1      -3.685  12.279  24.117  0.00  0.00    +0.000 C 
ENDBRANCH  16  18
ENDBRANCH  13  16
BRANCH  13  19
ATOM     19  C   UNL     1      -3.069  14.910  21.944  0.00  0.00    +0.000 C 
BRANCH  19  20
ATOM     20  C   UNL     1      -4.393  15.356  22.582  0.00  0.00    +0.000 C 
ATOM     21  C   UNL     1      -5.643  14.769  21.942  0.00  0.00    +0.000 C 
ENDBRANCH  19  20
ENDBRANCH  13  19
ENDBRANCH  12  14
ENDBRANCH   1  12
BRANCH   4  22
ATOM     22  C   UNL     1       1.606  10.151  18.118  0.00  0.00    +0.000 C 
BRANCH  22  23
ATOM     23  C   UNL     1       1.821   8.834  18.835  0.00  0.00    +0.000 A 
ATOM     24  C   UNL     1       1.356   8.647  20.140  0.00  0.00    +0.000 A 
ATOM     25  C   UNL     1       1.474   7.404  20.762  0.00  0.00    +0.000 A 
ATOM     26  C   UNL     1       2.053   6.313  20.095  0.00  0.00    +0.000 A 
ATOM     27  C   UNL     1       2.101   4.981  20.789  0.00  0.00    +0.000 C 
ATOM     28  C   UNL     1       2.543   6.494  18.788  0.00  0.00    +0.000 A 
ATOM     29  C   UNL     1       3.158   5.386  17.978  0.00  0.00    +0.000 C 
ATOM     30  C   UNL     1       2.429   7.757  18.177  0.00  0.00    +0.000 A 
ENDBRANCH  22  23
ENDBRANCH   4  22
TORSDOF 8
ENDMDL
MODEL 8
REMARK VINA RESULT:      -6.6      1.790      7.851
REMARK  Name = 
REMARK  12 active torsions:
REMARK  status: ('A' for Active; 'I' for Inactive)
REMARK    1  A    between atoms: C_1  and  C_2
REMARK    2  A    between atoms: C_2  and  C_3
REMARK    3  A    between atoms: C_3  and  N_4
REMARK    4  A    between atoms: N_4  and  C_5
REMARK    5  A    between atoms: C_5  and  C_6
REMARK    6  A    between atoms: C_6  and  C_7
REMARK    7  A    between atoms: C_8  and  C_10
REMARK    8  A    between atoms: C_10  and  N_11
REMARK    9  A    between atoms: N_14  and  C_15
REMARK   10  A    between atoms: C_15  and  C_16
REMARK   11  A    between atoms: C_19  and  C_20
REMARK   12  A    between atoms: C_21  and  C_22
REMARK                            x       y       z     vdW  Elec       q    Type
REMARK                         _______ _______ _______ _____ _____    ______ ____
ROOT
ATOM      1  N   UNL     1       2.945   7.295  17.844  0.00  0.00    +0.000 N 
ATOM      2  C   UNL     1       2.517   8.613  18.054  0.00  0.00    +0.000 A 
ATOM      3  O   UNL     1       2.815   9.509  17.257  0.00  0.00    +0.000 OA
ATOM      4  N   UNL     1       1.758   8.872  19.202  0.00  0.00    +0.000 N 
ATOM      5  C   UNL     1       1.407   7.919  20.168  0.00  0.00    +0.000 A 
ATOM      6  O   UNL     1       0.717   8.189  21.149  0.00  0.00    +0.000 OA
ATOM      7  C   UNL     1       1.914   6.609  19.889  0.00  0.00    +0.000 A 
ATOM      8  S   UNL     1       1.684   5.287  20.929  0.00  0.00    +0.000 S 
ATOM      9  C   UNL     1       2.496   4.238  19.846  0.00  0.00    +0.000 A 
ATOM     10  C   UNL     1       2.933   4.902  18.717  0.00  0.00    +0.000 A 
ATOM     11  C   UNL     1       2.626   6.294  18.762  0.00  0.00    +0.000 A 
ENDROOT
BRANCH   1  12
ATOM     12  C   UNL     1       3.719   7.024  16.628  0.00  0.00    +0.000 C 
BRANCH  12  14
ATOM     13  N   UNL     1       5.864   5.717  16.548  0.00  0.00    +0.000 N 
ATOM     14  C   UNL     1       5.232   6.921  16.896  0.00  0.00    +0.000 C 
ATOM     15  O   UNL     1       5.858   7.862  17.389  0.00  0.00    +0.000 OA
BRANCH  13  16
ATOM     16  C   UNL     1       7.295   5.574  16.850  0.00  0.00    +0.000 C 
BRANCH  16  18
ATOM     17  C   UNL     1       6.429   4.942  19.188  0.00  0.00    +0.000 C 
ATOM     18  C   UNL     1       7.629   5.311  18.328  0.00  0.00    +0.000 C 
ENDBRANCH  16  18
ENDBRANCH  13  16
BRANCH  13  19
ATOM     19  C   UNL     1       5.235   4.666  15.735  0.00  0.00    +0.000 C 
BRANCH  19  20
ATOM     20  C   UNL     1       6.183   3.939  14.769  0.00  0.00    +0.000 C 
ATOM     21  C   UNL     1       5.654   3.779  13.351  0.00  0.00    +0.000 C 
ENDBRANCH  19  20
ENDBRANCH  13  19
ENDBRANCH  12  14
ENDBRANCH   1  12
BRANCH   4  22
ATOM     22  C   UNL     1       1.298  10.239  19.425  0.00  0.00    +0.000 C 
BRANCH  22  23
ATOM     23  C   UNL     1      -0.149  10.426  19.017  0.00  0.00    +0.000 A 
ATOM     24  C   UNL     1      -1.029  11.157  19.821  0.00  0.00    +0.000 A 
ATOM     25  C   UNL     1      -2.335  11.404  19.397  0.00  0.00    +0.000 A 
ATOM     26  C   UNL     1      -2.794  10.936  18.156  0.00  0.00    +0.000 A 
ATOM     27  C   UNL     1      -4.191  11.282  17.723  0.00  0.00    +0.000 C 
ATOM     28  C   UNL     1      -1.924  10.181  17.347  0.00  0.00    +0.000 A 
ATOM     29  C   UNL     1      -2.309   9.653  15.992  0.00  0.00    +0.000 C 
ATOM     30  C   UNL     1      -0.613   9.927  17.793  0.00  0.00    +0.000 A 
ENDBRANCH  22  23
ENDBRANCH   4  22
TORSDOF 8
ENDMDL
MODEL 9
REMARK VINA RESULT:      -6.4      4.259      7.379
REMARK  Name = 
REMARK  12 active torsions:
REMARK  status: ('A' for Active; 'I' for Inactive)
REMARK    1  A    between atoms: C_1  and  C_2
REMARK    2  A    between atoms: C_2  and  C_3
REMARK    3  A    between atoms: C_3  and  N_4
REMARK    4  A    between atoms: N_4  and  C_5
REMARK    5  A    between atoms: C_5  and  C_6
REMARK    6  A    between atoms: C_6  and  C_7
REMARK    7  A    between atoms: C_8  and  C_10
REMARK    8  A    between atoms: C_10  and  N_11
REMARK    9  A    between atoms: N_14  and  C_15
REMARK   10  A    between atoms: C_15  and  C_16
REMARK   11  A    between atoms: C_19  and  C_20
REMARK   12  A    between atoms: C_21  and  C_22
REMARK                            x       y       z     vdW  Elec       q    Type
REMARK                         _______ _______ _______ _____ _____    ______ ____
ROOT
ATOM      1  N   UNL     1      -0.188  11.880  20.875  0.00  0.00    +0.000 N 
ATOM      2  C   UNL     1      -0.186  10.821  19.956  0.00  0.00    +0.000 A 
ATOM      3  O   UNL     1      -1.023   9.916  20.033  0.00  0.00    +0.000 OA
ATOM      4  N   UNL     1       0.806  10.825  18.966  0.00  0.00    +0.000 N 
ATOM      5  C   UNL     1       1.807  11.795  18.832  0.00  0.00    +0.000 A 
ATOM      6  O   UNL     1       2.643  11.769  17.931  0.00  0.00    +0.000 OA
ATOM      7  C   UNL     1       1.748  12.819  19.832  0.00  0.00    +0.000 A 
ATOM      8  S   UNL     1       2.881  14.079  19.934  0.00  0.00    +0.000 S 
ATOM      9  C   UNL     1       2.047  14.780  21.255  0.00  0.00    +0.000 A 
ATOM     10  C   UNL     1       0.928  14.050  21.604  0.00  0.00    +0.000 A 
ATOM     11  C   UNL     1       0.777  12.884  20.796  0.00  0.00    +0.000 A 
ENDROOT
BRANCH   1  12
ATOM     12  C   UNL     1      -1.242  11.884  21.895  0.00  0.00    +0.000 C 
BRANCH  12  14
ATOM     13  N   UNL     1      -3.098  13.439  22.567  0.00  0.00    +0.000 N 
ATOM     14  C   UNL     1      -2.430  12.788  21.518  0.00  0.00    +0.000 C 
ATOM     15  O   UNL     1      -2.770  12.937  20.342  0.00  0.00    +0.000 OA
BRANCH  13  16
ATOM     16  C   UNL     1      -4.272  14.259  22.237  0.00  0.00    +0.000 C 
BRANCH  16  18
ATOM     17  C   UNL     1      -5.616  15.719  23.872  0.00  0.00    +0.000 C 
ATOM     18  C   UNL     1      -5.355  14.323  23.328  0.00  0.00    +0.000 C 
ENDBRANCH  16  18
ENDBRANCH  13  16
BRANCH  13  19
ATOM     19  C   UNL     1      -2.593  13.504  23.946  0.00  0.00    +0.000 C 
BRANCH  19  20
ATOM     20  C   UNL     1      -1.723  14.730  24.260  0.00  0.00    +0.000 C 
ATOM     21  C   UNL     1      -2.006  15.390  25.602  0.00  0.00    +0.000 C 
ENDBRANCH  19  20
ENDBRANCH  13  19
ENDBRANCH  12  14
ENDBRANCH   1  12
BRANCH   4  22
ATOM     22  C   UNL     1       0.810   9.733  17.998  0.00  0.00    +0.000 C 
BRANCH  22  23
ATOM     23  C   UNL     1       1.749   8.616  18.402  0.00  0.00    +0.000 A 
ATOM     24  C   UNL     1       1.567   7.930  19.607  0.00  0.00    +0.000 A 
ATOM     25  C   UNL     1       2.377   6.842  19.932  0.00  0.00    +0.000 A 
ATOM     26  C   UNL     1       3.387   6.406  19.060  0.00  0.00    +0.000 A 
ATOM     27  C   UNL     1       4.192   5.193  19.432  0.00  0.00    +0.000 C 
ATOM     28  C   UNL     1       3.594   7.101  17.854  0.00  0.00    +0.000 A 
ATOM     29  C   UNL     1       4.632   6.702  16.841  0.00  0.00    +0.000 C 
ATOM     30  C   UNL     1       2.777   8.205  17.545  0.00  0.00    +0.000 A 
ENDBRANCH  22  23
ENDBRANCH   4  22
TORSDOF 8
ENDMDL
