MODEL 1
REMARK VINA RESULT:      -7.1      0.000      0.000
REMARK  Name = 
REMARK  6 active torsions:
REMARK  status: ('A' for Active; 'I' for Inactive)
REMARK    1  A    between atoms: C_1  and  C_2
REMARK    2  A    between atoms: C_5  and  O_6
REMARK    3  A    between atoms: O_6  and  C_7
REMARK    4  A    between atoms: C_11  and  C_13
REMARK    5  A    between atoms: N_15  and  C_16
REMARK    6  A    between atoms: C_18  and  C_19
REMARK                            x       y       z     vdW  Elec       q    Type
REMARK                         _______ _______ _______ _____ _____    ______ ____
ROOT
ATOM      1  C   UNL     1       1.581   8.828  18.193  0.00  0.00    +0.000 C 
ATOM      2  C   UNL     1       2.104  10.212  17.767  0.00  0.00    +0.000 C 
ATOM      3  C   UNL     1       1.792  11.348  18.741  0.00  0.00    +0.000 C 
ATOM      4  N   UNL     1       0.401  11.303  19.169  0.00  0.00    +0.000 N 
ATOM      5  C   UNL     1      -0.338  12.496  19.208  0.00  0.00    +0.000 C 
ATOM      6  O   UNL     1       0.186  13.584  18.978  0.00  0.00    +0.000 OA
ATOM      7  C   UNL     1       0.068  10.066  19.865  0.00  0.00    +0.000 C 
ATOM      8  C   UNL     1       0.230   8.873  18.930  0.00  0.00    +0.000 C 
ENDROOT
BRANCH   5   9
ATOM      9  C   UNL     1      -1.774  12.435  19.486  0.00  0.00    +0.000 A 
ATOM     10  C   UNL     1      -2.416  12.690  20.688  0.00  0.00    +0.000 A 
ATOM     11  N   UNL     1      -3.745  12.515  20.465  0.00  0.00    +0.000 N 
ATOM     12  C   UNL     1      -4.825  12.780  21.388  0.00  0.00    +0.000 C 
ATOM     13  N   UNL     1      -4.023  12.063  19.242  0.00  0.00    +0.000 NA
ATOM     14  C   UNL     1      -2.834  11.986  18.629  0.00  0.00    +0.000 A 
BRANCH  14  15
ATOM     15  C   UNL     1      -2.760  11.480  17.221  0.00  0.00    +0.000 C 
ATOM     16  C   UNL     1      -2.393  10.012  17.108  0.00  0.00    +0.000 C 
ATOM     17  C   UNL     1      -2.887   9.644  15.724  0.00  0.00    +0.000 C 
ATOM     18  O   UNL     1      -3.950  10.545  15.385  0.00  0.00    +0.000 OA
ATOM     19  C   UNL     1      -4.082  11.496  16.457  0.00  0.00    +0.000 C 
ENDBRANCH  14  15
ENDBRANCH   5   9
BRANCH   1  20
ATOM     20  O   UNL     1       2.546   8.128  19.000  0.00  0.00    +0.000 OA
BRANCH  20  25
ATOM     21  C   UNL     1       1.237   2.621  19.652  0.00  0.00    +0.000 C 
ATOM     22  C   UNL     1       1.670   4.052  19.516  0.00  0.00    +0.000 A 
ATOM     23  C   UNL     1       2.097   4.574  18.291  0.00  0.00    +0.000 A 
ATOM     24  C   UNL     1       2.420   5.936  18.173  0.00  0.00    +0.000 A 
ATOM     25  C   UNL     1       2.312   6.796  19.269  0.00  0.00    +0.000 A 
ATOM     26  C   UNL     1       1.956   6.253  20.506  0.00  0.00    +0.000 A 
ATOM     27  C   UNL     1       1.637   4.895  20.629  0.00  0.00    +0.000 A 
ENDBRANCH  20  25
ENDBRANCH   1  20
TORSDOF 4
ENDMDL
MODEL 2
REMARK VINA RESULT:      -7.0      2.314      3.650
REMARK  Name = 
REMARK  6 active torsions:
REMARK  status: ('A' for Active; 'I' for Inactive)
REMARK    1  A    between atoms: C_1  and  C_2
REMARK    2  A    between atoms: C_5  and  O_6
REMARK    3  A    between atoms: O_6  and  C_7
REMARK    4  A    between atoms: C_11  and  C_13
REMARK    5  A    between atoms: N_15  and  C_16
REMARK    6  A    between atoms: C_18  and  C_19
REMARK                            x       y       z     vdW  Elec       q    Type
REMARK                         _______ _______ _______ _____ _____    ______ ____
ROOT
ATOM      1  C   UNL     1       2.491   7.605  18.470  0.00  0.00    +0.000 C 
ATOM      2  C   UNL     1       2.441   7.432  19.999  0.00  0.00    +0.000 C 
ATOM      3  C   UNL     1       1.239   8.084  20.683  0.00  0.00    +0.000 C 
ATOM      4  N   UNL     1       1.031   9.439  20.195  0.00  0.00    +0.000 N 
ATOM      5  C   UNL     1       0.759  10.462  21.119  0.00  0.00    +0.000 C 
ATOM      6  O   UNL     1       0.605  10.222  22.315  0.00  0.00    +0.000 OA
ATOM      7  C   UNL     1       0.759   9.484  18.763  0.00  0.00    +0.000 C 
ATOM      8  C   UNL     1       1.959   8.964  17.981  0.00  0.00    +0.000 C 
ENDROOT
BRANCH   5   9
ATOM      9  C   UNL     1       0.704  11.847  20.651  0.00  0.00    +0.000 A 
ATOM     10  C   UNL     1       1.753  12.745  20.537  0.00  0.00    +0.000 A 
ATOM     11  N   UNL     1       1.227  13.902  20.055  0.00  0.00    +0.000 N 
ATOM     12  C   UNL     1       1.949  15.089  19.660  0.00  0.00    +0.000 C 
ATOM     13  N   UNL     1      -0.101  13.873  19.942  0.00  0.00    +0.000 NA
ATOM     14  C   UNL     1      -0.449  12.635  20.318  0.00  0.00    +0.000 A 
BRANCH  14  15
ATOM     15  C   UNL     1      -1.895  12.249  20.342  0.00  0.00    +0.000 C 
ATOM     16  C   UNL     1      -2.832  13.376  20.737  0.00  0.00    +0.000 C 
ATOM     17  C   UNL     1      -4.168  12.914  20.191  0.00  0.00    +0.000 C 
ATOM     18  O   UNL     1      -3.910  12.027  19.095  0.00  0.00    +0.000 OA
ATOM     19  C   UNL     1      -2.484  11.859  18.988  0.00  0.00    +0.000 C 
ENDBRANCH  14  15
ENDBRANCH   5   9
BRANCH   1  20
ATOM     20  O   UNL     1       1.790   6.543  17.797  0.00  0.00    +0.000 OA
BRANCH  20  25
ATOM     21  C   UNL     1       3.789   1.242  18.399  0.00  0.00    +0.000 C 
ATOM     22  C   UNL     1       3.270   2.628  18.145  0.00  0.00    +0.000 A 
ATOM     23  C   UNL     1       1.902   2.913  18.172  0.00  0.00    +0.000 A 
ATOM     24  C   UNL     1       1.447   4.232  18.010  0.00  0.00    +0.000 A 
ATOM     25  C   UNL     1       2.349   5.284  17.829  0.00  0.00    +0.000 A 
ATOM     26  C   UNL     1       3.710   4.982  17.730  0.00  0.00    +0.000 A 
ATOM     27  C   UNL     1       4.166   3.667  17.887  0.00  0.00    +0.000 A 
ENDBRANCH  20  25
ENDBRANCH   1  20
TORSDOF 4
ENDMDL
MODEL 3
REMARK VINA RESULT:      -7.0      2.428      3.669
REMARK  Name = 
REMARK  6 active torsions:
REMARK  status: ('A' for Active; 'I' for Inactive)
REMARK    1  A    between atoms: C_1  and  C_2
REMARK    2  A    between atoms: C_5  and  O_6
REMARK    3  A    between atoms: O_6  and  C_7
REMARK    4  A    between atoms: C_11  and  C_13
REMARK    5  A    between atoms: N_15  and  C_16
REMARK    6  A    between atoms: C_18  and  C_19
REMARK                            x       y       z     vdW  Elec       q    Type
REMARK                         _______ _______ _______ _____ _____    ______ ____
ROOT
ATOM      1  C   UNL     1       2.504   7.597  18.655  0.00  0.00    +0.000 C 
ATOM      2  C   UNL     1       2.134   7.691  20.146  0.00  0.00    +0.000 C 
ATOM      3  C   UNL     1       0.955   8.612  20.461  0.00  0.00    +0.000 C 
ATOM      4  N   UNL     1       1.081   9.881  19.761  0.00  0.00    +0.000 N 
ATOM      5  C   UNL     1       0.819  11.073  20.457  0.00  0.00    +0.000 C 
ATOM      6  O   UNL     1       0.400  11.062  21.614  0.00  0.00    +0.000 OA
ATOM      7  C   UNL     1       1.099   9.724  18.311  0.00  0.00    +0.000 C 
ATOM      8  C   UNL     1       2.318   8.916  17.883  0.00  0.00    +0.000 C 
ENDROOT
BRANCH   5   9
ATOM      9  C   UNL     1       1.094  12.354  19.806  0.00  0.00    +0.000 A 
ATOM     10  C   UNL     1       2.287  13.059  19.795  0.00  0.00    +0.000 A 
ATOM     11  N   UNL     1       2.069  14.182  19.061  0.00  0.00    +0.000 N 
ATOM     12  C   UNL     1       3.048  15.171  18.670  0.00  0.00    +0.000 C 
ATOM     13  N   UNL     1       0.801  14.327  18.677  0.00  0.00    +0.000 NA
ATOM     14  C   UNL     1       0.179  13.232  19.135  0.00  0.00    +0.000 A 
BRANCH  14  15
ATOM     15  C   UNL     1      -1.292  13.068  18.907  0.00  0.00    +0.000 C 
ATOM     16  C   UNL     1      -1.665  11.807  18.149  0.00  0.00    +0.000 C 
ATOM     17  C   UNL     1      -3.126  11.616  18.505  0.00  0.00    +0.000 C 
ATOM     18  O   UNL     1      -3.355  12.252  19.770  0.00  0.00    +0.000 OA
ATOM     19  C   UNL     1      -2.129  12.890  20.173  0.00  0.00    +0.000 C 
ENDBRANCH  14  15
ENDBRANCH   5   9
BRANCH   1  20
ATOM     20  O   UNL     1       1.771   6.546  17.996  0.00  0.00    +0.000 OA
BRANCH  20  25
ATOM     21  C   UNL     1       3.748   1.213  18.318  0.00  0.00    +0.000 C 
ATOM     22  C   UNL     1       3.244   2.616  18.138  0.00  0.00    +0.000 A 
ATOM     23  C   UNL     1       1.877   2.897  18.059  0.00  0.00    +0.000 A 
ATOM     24  C   UNL     1       1.429   4.225  17.971  0.00  0.00    +0.000 A 
ATOM     25  C   UNL     1       2.335   5.290  17.971  0.00  0.00    +0.000 A 
ATOM     26  C   UNL     1       3.702   4.997  17.976  0.00  0.00    +0.000 A 
ATOM     27  C   UNL     1       4.152   3.674  18.060  0.00  0.00    +0.000 A 
ENDBRANCH  20  25
ENDBRANCH   1  20
TORSDOF 4
ENDMDL
MODEL 4
REMARK VINA RESULT:      -6.9      1.787      2.355
REMARK  Name = 
REMARK  6 active torsions:
REMARK  status: ('A' for Active; 'I' for Inactive)
REMARK    1  A    between atoms: C_1  and  C_2
REMARK    2  A    between atoms: C_5  and  O_6
REMARK    3  A    between atoms: O_6  and  C_7
REMARK    4  A    between atoms: C_11  and  C_13
REMARK    5  A    between atoms: N_15  and  C_16
REMARK    6  A    between atoms: C_18  and  C_19
REMARK                            x       y       z     vdW  Elec       q    Type
REMARK                         _______ _______ _______ _____ _____    ______ ____
ROOT
ATOM      1  C   UNL     1       0.824   9.290  19.747  0.00  0.00    +0.000 C 
ATOM      2  C   UNL     1       1.237  10.714  19.335  0.00  0.00    +0.000 C 
ATOM      3  C   UNL     1       1.171  11.754  20.454  0.00  0.00    +0.000 C 
ATOM      4  N   UNL     1      -0.077  11.648  21.195  0.00  0.00    +0.000 N 
ATOM      5  C   UNL     1      -0.780  12.821  21.516  0.00  0.00    +0.000 C 
ATOM      6  O   UNL     1      -0.321  13.934  21.266  0.00  0.00    +0.000 OA
ATOM      7  C   UNL     1      -0.241  10.349  21.835  0.00  0.00    +0.000 C 
ATOM      8  C   UNL     1      -0.312   9.246  20.786  0.00  0.00    +0.000 C 
ENDROOT
BRANCH   5   9
ATOM      9  C   UNL     1      -2.108  12.711  22.121  0.00  0.00    +0.000 A 
ATOM     10  C   UNL     1      -2.417  12.521  23.459  0.00  0.00    +0.000 A 
ATOM     11  N   UNL     1      -3.772  12.490  23.546  0.00  0.00    +0.000 N 
ATOM     12  C   UNL     1      -4.566  12.429  24.752  0.00  0.00    +0.000 C 
ATOM     13  N   UNL     1      -4.381  12.537  22.362  0.00  0.00    +0.000 NA
ATOM     14  C   UNL     1      -3.386  12.653  21.471  0.00  0.00    +0.000 A 
BRANCH  14  15
ATOM     15  C   UNL     1      -3.706  12.707  20.009  0.00  0.00    +0.000 C 
ATOM     16  C   UNL     1      -2.950  11.692  19.171  0.00  0.00    +0.000 C 
ATOM     17  C   UNL     1      -3.794  11.592  17.916  0.00  0.00    +0.000 C 
ATOM     18  O   UNL     1      -5.137  11.957  18.262  0.00  0.00    +0.000 OA
ATOM     19  C   UNL     1      -5.146  12.350  19.647  0.00  0.00    +0.000 C 
ENDBRANCH  14  15
ENDBRANCH   5   9
BRANCH   1  20
ATOM     20  O   UNL     1       1.951   8.537  20.235  0.00  0.00    +0.000 OA
BRANCH  20  25
ATOM     21  C   UNL     1       2.121   3.233  18.160  0.00  0.00    +0.000 C 
ATOM     22  C   UNL     1       2.160   4.613  18.751  0.00  0.00    +0.000 A 
ATOM     23  C   UNL     1       2.588   5.716  18.006  0.00  0.00    +0.000 A 
ATOM     24  C   UNL     1       2.539   7.007  18.556  0.00  0.00    +0.000 A 
ATOM     25  C   UNL     1       2.055   7.218  19.850  0.00  0.00    +0.000 A 
ATOM     26  C   UNL     1       1.699   6.103  20.615  0.00  0.00    +0.000 A 
ATOM     27  C   UNL     1       1.749   4.814  20.070  0.00  0.00    +0.000 A 
ENDBRANCH  20  25
ENDBRANCH   1  20
TORSDOF 4
ENDMDL
MODEL 5
REMARK VINA RESULT:      -6.9      3.013      4.192
REMARK  Name = 
REMARK  6 active torsions:
REMARK  status: ('A' for Active; 'I' for Inactive)
REMARK    1  A    between atoms: C_1  and  C_2
REMARK    2  A    between atoms: C_5  and  O_6
REMARK    3  A    between atoms: O_6  and  C_7
REMARK    4  A    between atoms: C_11  and  C_13
REMARK    5  A    between atoms: N_15  and  C_16
REMARK    6  A    between atoms: C_18  and  C_19
REMARK                            x       y       z     vdW  Elec       q    Type
REMARK                         _______ _______ _______ _____ _____    ______ ____
ROOT
ATOM      1  C   UNL     1       2.480   7.625  18.483  0.00  0.00    +0.000 C 
ATOM      2  C   UNL     1       2.484   7.363  20.000  0.00  0.00    +0.000 C 
ATOM      3  C   UNL     1       1.287   7.938  20.757  0.00  0.00    +0.000 C 
ATOM      4  N   UNL     1       1.024   9.312  20.354  0.00  0.00    +0.000 N 
ATOM      5  C   UNL     1       0.753  10.272  21.343  0.00  0.00    +0.000 C 
ATOM      6  O   UNL     1       0.645   9.960  22.528  0.00  0.00    +0.000 OA
ATOM      7  C   UNL     1       0.705   9.430  18.936  0.00  0.00    +0.000 C 
ATOM      8  C   UNL     1       1.893   8.993  18.089  0.00  0.00    +0.000 C 
ENDROOT
BRANCH   5   9
ATOM      9  C   UNL     1       0.643  11.679  20.958  0.00  0.00    +0.000 A 
ATOM     10  C   UNL     1       1.654  12.518  20.515  0.00  0.00    +0.000 A 
ATOM     11  N   UNL     1       1.080  13.726  20.272  0.00  0.00    +0.000 N 
ATOM     12  C   UNL     1       1.710  14.886  19.684  0.00  0.00    +0.000 C 
ATOM     13  N   UNL     1      -0.205  13.781  20.619  0.00  0.00    +0.000 NA
ATOM     14  C   UNL     1      -0.494  12.550  21.060  0.00  0.00    +0.000 A 
BRANCH  14  15
ATOM     15  C   UNL     1      -1.870  12.249  21.568  0.00  0.00    +0.000 C 
ATOM     16  C   UNL     1      -2.013  12.359  23.075  0.00  0.00    +0.000 C 
ATOM     17  C   UNL     1      -3.507  12.534  23.262  0.00  0.00    +0.000 C 
ATOM     18  O   UNL     1      -4.034  13.109  22.059  0.00  0.00    +0.000 OA
ATOM     19  C   UNL     1      -2.955  13.225  21.114  0.00  0.00    +0.000 C 
ENDBRANCH  14  15
ENDBRANCH   5   9
BRANCH   1  20
ATOM     20  O   UNL     1       1.788   6.582  17.771  0.00  0.00    +0.000 OA
BRANCH  20  25
ATOM     21  C   UNL     1       3.756   1.271  18.397  0.00  0.00    +0.000 C 
ATOM     22  C   UNL     1       3.237   2.656  18.137  0.00  0.00    +0.000 A 
ATOM     23  C   UNL     1       1.879   2.965  18.264  0.00  0.00    +0.000 A 
ATOM     24  C   UNL     1       1.432   4.285  18.093  0.00  0.00    +0.000 A 
ATOM     25  C   UNL     1       2.331   5.315  17.803  0.00  0.00    +0.000 A 
ATOM     26  C   UNL     1       3.674   4.987  17.604  0.00  0.00    +0.000 A 
ATOM     27  C   UNL     1       4.123   3.671  17.771  0.00  0.00    +0.000 A 
ENDBRANCH  20  25
ENDBRANCH   1  20
TORSDOF 4
ENDMDL
MODEL 6
REMARK VINA RESULT:      -6.8      4.803      9.864
REMARK  Name = 
REMARK  6 active torsions:
REMARK  status: ('A' for Active; 'I' for Inactive)
REMARK    1  A    between atoms: C_1  and  C_2
REMARK    2  A    between atoms: C_5  and  O_6
REMARK    3  A    between atoms: O_6  and  C_7
REMARK    4  A    between atoms: C_11  and  C_13
REMARK    5  A    between atoms: N_15  and  C_16
REMARK    6  A    between atoms: C_18  and  C_19
REMARK                            x       y       z     vdW  Elec       q    Type
REMARK                         _______ _______ _______ _____ _____    ______ ____
ROOT
ATOM      1  C   UNL     1       2.079   7.233  18.052  0.00  0.00    +0.000 C 
ATOM      2  C   UNL     1       1.768   5.747  18.304  0.00  0.00    +0.000 C 
ATOM      3  C   UNL     1       2.992   4.861  18.535  0.00  0.00    +0.000 C 
ATOM      4  N   UNL     1       4.027   5.131  17.548  0.00  0.00    +0.000 N 
ATOM      5  C   UNL     1       4.687   4.050  16.941  0.00  0.00    +0.000 C 
ATOM      6  O   UNL     1       4.475   2.890  17.289  0.00  0.00    +0.000 OA
ATOM      7  C   UNL     1       4.504   6.507  17.596  0.00  0.00    +0.000 C 
ATOM      8  C   UNL     1       3.375   7.471  17.255  0.00  0.00    +0.000 C 
ENDROOT
BRANCH   5   9
ATOM      9  C   UNL     1       5.615   4.310  15.839  0.00  0.00    +0.000 A 
ATOM     10  C   UNL     1       5.440   4.014  14.497  0.00  0.00    +0.000 A 
ATOM     11  N   UNL     1       6.557   4.445  13.853  0.00  0.00    +0.000 N 
ATOM     12  C   UNL     1       6.788   4.460  12.427  0.00  0.00    +0.000 C 
ATOM     13  N   UNL     1       7.499   4.904  14.676  0.00  0.00    +0.000 NA
ATOM     14  C   UNL     1       6.957   4.815  15.899  0.00  0.00    +0.000 A 
BRANCH  14  15
ATOM     15  C   UNL     1       7.759   5.227  17.094  0.00  0.00    +0.000 C 
ATOM     16  C   UNL     1       7.585   6.683  17.487  0.00  0.00    +0.000 C 
ATOM     17  C   UNL     1       8.035   6.701  18.934  0.00  0.00    +0.000 C 
ATOM     18  O   UNL     1       7.843   5.384  19.468  0.00  0.00    +0.000 OA
ATOM     19  C   UNL     1       7.372   4.539  18.402  0.00  0.00    +0.000 C 
ENDBRANCH  14  15
ENDBRANCH   5   9
BRANCH   1  20
ATOM     20  O   UNL     1       2.129   7.976  19.284  0.00  0.00    +0.000 OA
BRANCH  20  25
ATOM     21  C   UNL     1      -1.807  12.007  20.134  0.00  0.00    +0.000 C 
ATOM     22  C   UNL     1      -0.702  11.012  19.922  0.00  0.00    +0.000 A 
ATOM     23  C   UNL     1      -0.271  10.168  20.948  0.00  0.00    +0.000 A 
ATOM     24  C   UNL     1       0.709   9.192  20.702  0.00  0.00    +0.000 A 
ATOM     25  C   UNL     1       1.264   9.039  19.428  0.00  0.00    +0.000 A 
ATOM     26  C   UNL     1       0.882   9.935  18.426  0.00  0.00    +0.000 A 
ATOM     27  C   UNL     1      -0.092  10.911  18.670  0.00  0.00    +0.000 A 
ENDBRANCH  20  25
ENDBRANCH   1  20
TORSDOF 4
ENDMDL
MODEL 7
REMARK VINA RESULT:      -6.8      2.576      3.866
REMARK  Name = 
REMARK  6 active torsions:
REMARK  status: ('A' for Active; 'I' for Inactive)
REMARK    1  A    between atoms: C_1  and  C_2
REMARK    2  A    between atoms: C_5  and  O_6
REMARK    3  A    between atoms: O_6  and  C_7
REMARK    4  A    between atoms: C_11  and  C_13
REMARK    5  A    between atoms: N_15  and  C_16
REMARK    6  A    between atoms: C_18  and  C_19
REMARK                            x       y       z     vdW  Elec       q    Type
REMARK                         _______ _______ _______ _____ _____    ______ ____
ROOT
ATOM      1  C   UNL     1       2.090   5.170  19.340  0.00  0.00    +0.000 C 
ATOM      2  C   UNL     1       2.252   5.920  18.004  0.00  0.00    +0.000 C 
ATOM      3  C   UNL     1       2.669   7.385  18.133  0.00  0.00    +0.000 C 
ATOM      4  N   UNL     1       1.879   8.067  19.147  0.00  0.00    +0.000 N 
ATOM      5  C   UNL     1       1.369   9.345  18.868  0.00  0.00    +0.000 C 
ATOM      6  O   UNL     1       1.650   9.935  17.826  0.00  0.00    +0.000 OA
ATOM      7  C   UNL     1       2.038   7.479  20.472  0.00  0.00    +0.000 C 
ATOM      8  C   UNL     1       1.531   6.042  20.479  0.00  0.00    +0.000 C 
ENDROOT
BRANCH   5   9
ATOM      9  C   UNL     1       0.447   9.967  19.819  0.00  0.00    +0.000 A 
ATOM     10  C   UNL     1       0.481   9.896  21.203  0.00  0.00    +0.000 A 
ATOM     11  N   UNL     1      -0.565  10.633  21.658  0.00  0.00    +0.000 N 
ATOM     12  C   UNL     1      -0.873  10.952  23.033  0.00  0.00    +0.000 C 
ATOM     13  N   UNL     1      -1.349  11.098  20.685  0.00  0.00    +0.000 NA
ATOM     14  C   UNL     1      -0.764  10.689  19.551  0.00  0.00    +0.000 A 
BRANCH  14  15
ATOM     15  C   UNL     1      -1.398  11.013  18.234  0.00  0.00    +0.000 C 
ATOM     16  C   UNL     1      -1.816   9.795  17.429  0.00  0.00    +0.000 C 
ATOM     17  C   UNL     1      -2.846  10.359  16.471  0.00  0.00    +0.000 C 
ATOM     18  O   UNL     1      -3.413  11.529  17.076  0.00  0.00    +0.000 OA
ATOM     19  C   UNL     1      -2.729  11.758  18.322  0.00  0.00    +0.000 C 
ENDBRANCH  14  15
ENDBRANCH   5   9
BRANCH   1  20
ATOM     20  O   UNL     1       3.329   4.569  19.759  0.00  0.00    +0.000 OA
BRANCH  20  25
ATOM     21  C   UNL     1       7.516   4.644  15.895  0.00  0.00    +0.000 C 
ATOM     22  C   UNL     1       6.448   4.541  16.946  0.00  0.00    +0.000 A 
ATOM     23  C   UNL     1       6.539   5.240  18.153  0.00  0.00    +0.000 A 
ATOM     24  C   UNL     1       5.489   5.189  19.084  0.00  0.00    +0.000 A 
ATOM     25  C   UNL     1       4.333   4.449  18.822  0.00  0.00    +0.000 A 
ATOM     26  C   UNL     1       4.281   3.694  17.647  0.00  0.00    +0.000 A 
ATOM     27  C   UNL     1       5.327   3.740  16.718  0.00  0.00    +0.000 A 
ENDBRANCH  20  25
ENDBRANCH   1  20
TORSDOF 4
ENDMDL
MODEL 8
REMARK VINA RESULT:      -6.7      4.567      9.646
REMARK  Name = 
REMARK  6 active torsions:
REMARK  status: ('A' for Active; 'I' for Inactive)
REMARK    1  A    between atoms: C_1  and  C_2
REMARK    2  A    between atoms: C_5  and  O_6
REMARK    3  A    between atoms: O_6  and  C_7
REMARK    4  A    between atoms: C_11  and  C_13
REMARK    5  A    between atoms: N_15  and  C_16
REMARK    6  A    between atoms: C_18  and  C_19
REMARK                            x       y       z     vdW  Elec       q    Type
REMARK                         _______ _______ _______ _____ _____    ______ ____
ROOT
ATOM      1  C   UNL     1       1.845   6.957  19.231  0.00  0.00    +0.000 C 
ATOM      2  C   UNL     1       2.060   5.607  19.941  0.00  0.00    +0.000 C 
ATOM      3  C   UNL     1       3.513   5.135  20.002  0.00  0.00    +0.000 C 
ATOM      4  N   UNL     1       4.165   5.278  18.709  0.00  0.00    +0.000 N 
ATOM      5  C   UNL     1       4.961   4.226  18.228  0.00  0.00    +0.000 C 
ATOM      6  O   UNL     1       5.192   3.230  18.911  0.00  0.00    +0.000 OA
ATOM      7  C   UNL     1       4.205   6.661  18.251  0.00  0.00    +0.000 C 
ATOM      8  C   UNL     1       2.792   7.190  18.039  0.00  0.00    +0.000 C 
ENDROOT
BRANCH   5   9
ATOM      9  C   UNL     1       5.490   4.299  16.865  0.00  0.00    +0.000 A 
ATOM     10  C   UNL     1       5.018   3.648  15.737  0.00  0.00    +0.000 A 
ATOM     11  N   UNL     1       5.818   4.026  14.705  0.00  0.00    +0.000 N 
ATOM     12  C   UNL     1       5.648   3.699  13.307  0.00  0.00    +0.000 C 
ATOM     13  N   UNL     1       6.843   4.790  15.081  0.00  0.00    +0.000 NA
ATOM     14  C   UNL     1       6.679   4.956  16.400  0.00  0.00    +0.000 A 
BRANCH  14  15
ATOM     15  C   UNL     1       7.682   5.754  17.175  0.00  0.00    +0.000 C 
ATOM     16  C   UNL     1       7.391   7.243  17.217  0.00  0.00    +0.000 C 
ATOM     17  C   UNL     1       8.180   7.709  18.424  0.00  0.00    +0.000 C 
ATOM     18  O   UNL     1       8.332   6.589  19.307  0.00  0.00    +0.000 OA
ATOM     19  C   UNL     1       7.744   5.440  18.669  0.00  0.00    +0.000 C 
ENDBRANCH  14  15
ENDBRANCH   5   9
BRANCH   1  20
ATOM     20  O   UNL     1       1.951   8.058  20.152  0.00  0.00    +0.000 OA
BRANCH  20  25
ATOM     21  C   UNL     1      -2.060  12.089  19.798  0.00  0.00    +0.000 C 
ATOM     22  C   UNL     1      -0.937  11.097  19.896  0.00  0.00    +0.000 A 
ATOM     23  C   UNL     1      -0.612  10.477  21.106  0.00  0.00    +0.000 A 
ATOM     24  C   UNL     1       0.390   9.494  21.154  0.00  0.00    +0.000 A 
ATOM     25  C   UNL     1       1.074   9.109  19.998  0.00  0.00    +0.000 A 
ATOM     26  C   UNL     1       0.795   9.786  18.807  0.00  0.00    +0.000 A 
ATOM     27  C   UNL     1      -0.200  10.768  18.756  0.00  0.00    +0.000 A 
ENDBRANCH  20  25
ENDBRANCH   1  20
TORSDOF 4
ENDMDL
MODEL 9
REMARK VINA RESULT:      -6.7      0.525      1.058
REMARK  Name = 
REMARK  6 active torsions:
REMARK  status: ('A' for Active; 'I' for Inactive)
REMARK    1  A    between atoms: C_1  and  C_2
REMARK    2  A    between atoms: C_5  and  O_6
REMARK    3  A    between atoms: O_6  and  C_7
REMARK    4  A    between atoms: C_11  and  C_13
REMARK    5  A    between atoms: N_15  and  C_16
REMARK    6  A    between atoms: C_18  and  C_19
REMARK                            x       y       z     vdW  Elec       q    Type
REMARK                         _______ _______ _______ _____ _____    ______ ____
ROOT
ATOM      1  C   UNL     1       1.674   9.279  17.941  0.00  0.00    +0.000 C 
ATOM      2  C   UNL     1       2.134  10.744  17.831  0.00  0.00    +0.000 C 
ATOM      3  C   UNL     1       1.612  11.670  18.930  0.00  0.00    +0.000 C 
ATOM      4  N   UNL     1       0.187  11.471  19.148  0.00  0.00    +0.000 N 
ATOM      5  C   UNL     1      -0.645  12.594  19.285  0.00  0.00    +0.000 C 
ATOM      6  O   UNL     1      -0.184  13.734  19.316  0.00  0.00    +0.000 OA
ATOM      7  C   UNL     1      -0.133  10.113  19.572  0.00  0.00    +0.000 C 
ATOM      8  C   UNL     1       0.242   9.116  18.481  0.00  0.00    +0.000 C 
ENDROOT
BRANCH   5   9
ATOM      9  C   UNL     1      -2.095  12.404  19.347  0.00  0.00    +0.000 A 
ATOM     10  C   UNL     1      -2.936  12.651  20.420  0.00  0.00    +0.000 A 
ATOM     11  N   UNL     1      -4.193  12.334  20.011  0.00  0.00    +0.000 N 
ATOM     12  C   UNL     1      -5.423  12.534  20.743  0.00  0.00    +0.000 C 
ATOM     13  N   UNL     1      -4.234  11.797  18.792  0.00  0.00    +0.000 NA
ATOM     14  C   UNL     1      -2.963  11.810  18.370  0.00  0.00    +0.000 A 
BRANCH  14  15
ATOM     15  C   UNL     1      -2.624  11.246  17.025  0.00  0.00    +0.000 C 
ATOM     16  C   UNL     1      -2.732   9.734  16.941  0.00  0.00    +0.000 C 
ATOM     17  C   UNL     1      -2.865   9.486  15.452  0.00  0.00    +0.000 C 
ATOM     18  O   UNL     1      -3.424  10.667  14.859  0.00  0.00    +0.000 OA
ATOM     19  C   UNL     1      -3.568  11.655  15.895  0.00  0.00    +0.000 C 
ENDBRANCH  14  15
ENDBRANCH   5   9
BRANCH   1  20
ATOM     20  O   UNL     1       2.582   8.502  18.744  0.00  0.00    +0.000 OA
BRANCH  20  25
ATOM     21  C   UNL     1       1.739   3.003  19.974  0.00  0.00    +0.000 C 
ATOM     22  C   UNL     1       1.869   4.458  19.623  0.00  0.00    +0.000 A 
ATOM     23  C   UNL     1       1.802   5.455  20.599  0.00  0.00    +0.000 A 
ATOM     24  C   UNL     1       2.007   6.801  20.254  0.00  0.00    +0.000 A 
ATOM     25  C   UNL     1       2.289   7.170  18.936  0.00  0.00    +0.000 A 
ATOM     26  C   UNL     1       2.281   6.176  17.954  0.00  0.00    +0.000 A 
ATOM     27  C   UNL     1       2.074   4.833  18.293  0.00  0.00    +0.000 A 
ENDBRANCH  20  25
ENDBRANCH   1  20
TORSDOF 4
ENDMDL
