MODEL 1
REMARK VINA RESULT:      -7.2      0.000      0.000
REMARK  Name = 
REMARK  10 active torsions:
REMARK  status: ('A' for Active; 'I' for Inactive)
REMARK    1  A    between atoms: C_1  and  C_2
REMARK    2  A    between atoms: C_7  and  N_8
REMARK    3  A    between atoms: C_9  and  C_11
REMARK    4  A    between atoms: C_11  and  C_12
REMARK    5  A    between atoms: C_14  and  C_15
REMARK    6  A    between atoms: C_17  and  C_18
REMARK    7  A    between atoms: N_19  and  C_20
REMARK    8  A    between atoms: C_23  and  C_24
REMARK    9  A    between atoms: C_24  and  O_26
REMARK   10  A    between atoms: C_29  and  C_30
REMARK                            x       y       z     vdW  Elec       q    Type
REMARK                         _______ _______ _______ _____ _____    ______ ____
ROOT
ATOM      1  C   UNL     1      -0.745  12.887  19.321  0.00  0.00    +0.000 A 
ATOM      2  C   UNL     1      -1.551  12.246  18.368  0.00  0.00    +0.000 A 
ATOM      3  C   UNL     1      -1.023  10.990  18.139  0.00  0.00    +0.000 A 
ATOM      4  C   UNL     1      -1.692   9.899  17.371  0.00  0.00    +0.000 C 
ATOM      5  N   UNL     1       0.158  10.859  18.885  0.00  0.00    +0.000 N 
ATOM      6  C   UNL     1       0.345  12.066  19.583  0.00  0.00    +0.000 A 
ATOM      7  C   UNL     1       1.514  12.377  20.464  0.00  0.00    +0.000 C 
ENDROOT
BRANCH   5   8
ATOM      8  C   UNL     1       0.980   9.680  18.938  0.00  0.00    +0.000 A 
ATOM      9  C   UNL     1       1.746   9.295  17.825  0.00  0.00    +0.000 A 
ATOM     10  C   UNL     1       2.528   8.131  17.851  0.00  0.00    +0.000 A 
ATOM     11  C   UNL     1       2.565   7.340  19.002  0.00  0.00    +0.000 A 
ATOM     12  C   UNL     1       1.833   7.731  20.127  0.00  0.00    +0.000 A 
ATOM     13  C   UNL     1       1.028   8.881  20.088  0.00  0.00    +0.000 A 
BRANCH  11  14
ATOM     14  C   UNL     1       3.402   6.120  19.093  0.00  0.00    +0.000 C 
ATOM     15  O   UNL     1       4.169   5.768  18.215  0.00  0.00    +0.000 OA
BRANCH  14  16
ATOM     16  O   UNL     1       3.269   5.451  20.263  0.00  0.00    +0.000 OA
ATOM     17  H   UNL     1       2.977   5.994  21.017  0.00  0.00    +0.000 HD
ENDBRANCH  14  16
ENDBRANCH  11  14
ENDBRANCH   5   8
BRANCH   1  19
ATOM     18  C   UNL     1      -2.199  14.468  20.568  0.00  0.00    +0.000 C 
ATOM     19  C   UNL     1      -1.049  14.146  19.934  0.00  0.00    +0.000 C 
BRANCH  18  21
ATOM     20  N   UNL     1      -4.456  13.490  20.176  0.00  0.00    +0.000 N 
ATOM     21  C   UNL     1      -3.260  13.428  20.884  0.00  0.00    +0.000 C 
ATOM     22  O   UNL     1      -3.070  12.631  21.800  0.00  0.00    +0.000 OA
ATOM     23  H   UNL     1      -4.628  14.270  19.557  0.00  0.00    +0.000 HD
BRANCH  20  30
ATOM     24  C   UNL     1      -5.052  11.356  18.191  0.00  0.00    +0.000 C 
ATOM     25  C   UNL     1      -5.865  11.599  19.432  0.00  0.00    +0.000 A 
ATOM     26  C   UNL     1      -6.982  10.759  19.646  0.00  0.00    +0.000 A 
ATOM     27  C   UNL     1      -7.804  10.912  20.760  0.00  0.00    +0.000 A 
ATOM     28  C   UNL     1      -7.500  11.879  21.701  0.00  0.00    +0.000 A 
ATOM     29  C   UNL     1      -6.387  12.702  21.514  0.00  0.00    +0.000 A 
ATOM     30  C   UNL     1      -5.564  12.603  20.378  0.00  0.00    +0.000 A 
ENDBRANCH  20  30
ENDBRANCH  18  21
BRANCH  18  31
ATOM     31  C   UNL     1      -2.355  15.832  21.220  0.00  0.00    +0.000 C 
ATOM     32  N   UNL     1      -2.482  16.965  21.761  0.00  0.00    +0.000 NA
ENDBRANCH  18  31
ENDBRANCH   1  19
TORSDOF 7
ENDMDL
MODEL 2
REMARK VINA RESULT:      -7.1      2.421      2.863
REMARK  Name = 
REMARK  10 active torsions:
REMARK  status: ('A' for Active; 'I' for Inactive)
REMARK    1  A    between atoms: C_1  and  C_2
REMARK    2  A    between atoms: C_7  and  N_8
REMARK    3  A    between atoms: C_9  and  C_11
REMARK    4  A    between atoms: C_11  and  C_12
REMARK    5  A    between atoms: C_14  and  C_15
REMARK    6  A    between atoms: C_17  and  C_18
REMARK    7  A    between atoms: N_19  and  C_20
REMARK    8  A    between atoms: C_23  and  C_24
REMARK    9  A    between atoms: C_24  and  O_26
REMARK   10  A    between atoms: C_29  and  C_30
REMARK                            x       y       z     vdW  Elec       q    Type
REMARK                         _______ _______ _______ _____ _____    ______ ____
ROOT
ATOM      1  C   UNL     1      -0.125  13.333  18.458  0.00  0.00    +0.000 A 
ATOM      2  C   UNL     1      -1.290  12.633  18.112  0.00  0.00    +0.000 A 
ATOM      3  C   UNL     1      -1.040  11.284  18.274  0.00  0.00    +0.000 A 
ATOM      4  C   UNL     1      -2.069  10.204  18.233  0.00  0.00    +0.000 C 
ATOM      5  N   UNL     1       0.303  11.120  18.646  0.00  0.00    +0.000 N 
ATOM      6  C   UNL     1       0.876  12.402  18.714  0.00  0.00    +0.000 A 
ATOM      7  C   UNL     1       2.310  12.688  19.029  0.00  0.00    +0.000 C 
ENDROOT
BRANCH   5   8
ATOM      8  C   UNL     1       0.936   9.862  18.939  0.00  0.00    +0.000 A 
ATOM      9  C   UNL     1       0.879   9.320  20.234  0.00  0.00    +0.000 A 
ATOM     10  C   UNL     1       1.519   8.110  20.541  0.00  0.00    +0.000 A 
ATOM     11  C   UNL     1       2.215   7.415  19.549  0.00  0.00    +0.000 A 
ATOM     12  C   UNL     1       2.250   7.928  18.249  0.00  0.00    +0.000 A 
ATOM     13  C   UNL     1       1.634   9.154  17.950  0.00  0.00    +0.000 A 
BRANCH  11  14
ATOM     14  C   UNL     1       2.877   6.116  19.814  0.00  0.00    +0.000 C 
ATOM     15  O   UNL     1       3.711   5.627  19.072  0.00  0.00    +0.000 OA
BRANCH  14  16
ATOM     16  O   UNL     1       2.504   5.539  20.980  0.00  0.00    +0.000 OA
ATOM     17  H   UNL     1       1.542   5.465  21.114  0.00  0.00    +0.000 HD
ENDBRANCH  14  16
ENDBRANCH  11  14
ENDBRANCH   5   8
BRANCH   1  19
ATOM     18  C   UNL     1      -0.454  15.509  19.611  0.00  0.00    +0.000 C 
ATOM     19  C   UNL     1      -0.031  14.759  18.568  0.00  0.00    +0.000 C 
BRANCH  18  21
ATOM     20  N   UNL     1      -2.234  14.444  20.991  0.00  0.00    +0.000 N 
ATOM     21  C   UNL     1      -0.916  14.882  20.915  0.00  0.00    +0.000 C 
ATOM     22  O   UNL     1      -0.152  14.861  21.878  0.00  0.00    +0.000 OA
ATOM     23  H   UNL     1      -2.868  14.643  20.229  0.00  0.00    +0.000 HD
BRANCH  20  30
ATOM     24  C   UNL     1      -1.506  11.684  21.827  0.00  0.00    +0.000 C 
ATOM     25  C   UNL     1      -2.503  12.545  22.551  0.00  0.00    +0.000 A 
ATOM     26  C   UNL     1      -3.129  11.988  23.689  0.00  0.00    +0.000 A 
ATOM     27  C   UNL     1      -4.075  12.703  24.421  0.00  0.00    +0.000 A 
ATOM     28  C   UNL     1      -4.380  14.000  24.053  0.00  0.00    +0.000 A 
ATOM     29  C   UNL     1      -3.754  14.571  22.943  0.00  0.00    +0.000 A 
ATOM     30  C   UNL     1      -2.829  13.861  22.157  0.00  0.00    +0.000 A 
ENDBRANCH  20  30
ENDBRANCH  18  21
BRANCH  18  31
ATOM     31  C   UNL     1      -0.235  17.012  19.608  0.00  0.00    +0.000 C 
ATOM     32  N   UNL     1      -0.052  18.261  19.605  0.00  0.00    +0.000 NA
ENDBRANCH  18  31
ENDBRANCH   1  19
TORSDOF 7
ENDMDL
MODEL 3
REMARK VINA RESULT:      -7.0      0.151      1.058
REMARK  Name = 
REMARK  10 active torsions:
REMARK  status: ('A' for Active; 'I' for Inactive)
REMARK    1  A    between atoms: C_1  and  C_2
REMARK    2  A    between atoms: C_7  and  N_8
REMARK    3  A    between atoms: C_9  and  C_11
REMARK    4  A    between atoms: C_11  and  C_12
REMARK    5  A    between atoms: C_14  and  C_15
REMARK    6  A    between atoms: C_17  and  C_18
REMARK    7  A    between atoms: N_19  and  C_20
REMARK    8  A    between atoms: C_23  and  C_24
REMARK    9  A    between atoms: C_24  and  O_26
REMARK   10  A    between atoms: C_29  and  C_30
REMARK                            x       y       z     vdW  Elec       q    Type
REMARK                         _______ _______ _______ _____ _____    ______ ____
ROOT
ATOM      1  C   UNL     1      -0.783  12.867  19.402  0.00  0.00    +0.000 A 
ATOM      2  C   UNL     1      -1.586  12.238  18.439  0.00  0.00    +0.000 A 
ATOM      3  C   UNL     1      -1.074  10.973  18.218  0.00  0.00    +0.000 A 
ATOM      4  C   UNL     1      -1.748   9.892  17.442  0.00  0.00    +0.000 C 
ATOM      5  N   UNL     1       0.095  10.826  18.980  0.00  0.00    +0.000 N 
ATOM      6  C   UNL     1       0.291  12.029  19.680  0.00  0.00    +0.000 A 
ATOM      7  C   UNL     1       1.452  12.324  20.577  0.00  0.00    +0.000 C 
ENDROOT
BRANCH   5   8
ATOM      8  C   UNL     1       0.899   9.634  19.045  0.00  0.00    +0.000 A 
ATOM      9  C   UNL     1       0.936   8.863  20.219  0.00  0.00    +0.000 A 
ATOM     10  C   UNL     1       1.740   7.717  20.307  0.00  0.00    +0.000 A 
ATOM     11  C   UNL     1       2.510   7.317  19.212  0.00  0.00    +0.000 A 
ATOM     12  C   UNL     1       2.455   8.058  18.028  0.00  0.00    +0.000 A 
ATOM     13  C   UNL     1       1.672   9.221  17.951  0.00  0.00    +0.000 A 
BRANCH  11  14
ATOM     14  C   UNL     1       3.348   6.095  19.243  0.00  0.00    +0.000 C 
ATOM     15  O   UNL     1       3.153   5.169  20.010  0.00  0.00    +0.000 OA
BRANCH  14  16
ATOM     16  O   UNL     1       4.329   6.081  18.309  0.00  0.00    +0.000 OA
ATOM     17  H   UNL     1       4.157   6.629  17.522  0.00  0.00    +0.000 HD
ENDBRANCH  14  16
ENDBRANCH  11  14
ENDBRANCH   5   8
BRANCH   1  19
ATOM     18  C   UNL     1      -2.227  14.467  20.638  0.00  0.00    +0.000 C 
ATOM     19  C   UNL     1      -1.077  14.131  20.010  0.00  0.00    +0.000 C 
BRANCH  18  21
ATOM     20  N   UNL     1      -4.489  13.508  20.232  0.00  0.00    +0.000 N 
ATOM     21  C   UNL     1      -3.300  13.440  20.951  0.00  0.00    +0.000 C 
ATOM     22  O   UNL     1      -3.127  12.647  21.875  0.00  0.00    +0.000 OA
ATOM     23  H   UNL     1      -4.648  14.286  19.606  0.00  0.00    +0.000 HD
BRANCH  20  30
ATOM     24  C   UNL     1      -5.097  11.377  18.248  0.00  0.00    +0.000 C 
ATOM     25  C   UNL     1      -5.914  11.631  19.485  0.00  0.00    +0.000 A 
ATOM     26  C   UNL     1      -7.041  10.803  19.694  0.00  0.00    +0.000 A 
ATOM     27  C   UNL     1      -7.867  10.967  20.803  0.00  0.00    +0.000 A 
ATOM     28  C   UNL     1      -7.557  11.932  21.744  0.00  0.00    +0.000 A 
ATOM     29  C   UNL     1      -6.435  12.743  21.562  0.00  0.00    +0.000 A 
ATOM     30  C   UNL     1      -5.608  12.633  20.430  0.00  0.00    +0.000 A 
ENDBRANCH  20  30
ENDBRANCH  18  21
BRANCH  18  31
ATOM     31  C   UNL     1      -2.370  15.834  21.285  0.00  0.00    +0.000 C 
ATOM     32  N   UNL     1      -2.488  16.970  21.823  0.00  0.00    +0.000 NA
ENDBRANCH  18  31
ENDBRANCH   1  19
TORSDOF 7
ENDMDL
MODEL 4
REMARK VINA RESULT:      -7.0      3.554      9.819
REMARK  Name = 
REMARK  10 active torsions:
REMARK  status: ('A' for Active; 'I' for Inactive)
REMARK    1  A    between atoms: C_1  and  C_2
REMARK    2  A    between atoms: C_7  and  N_8
REMARK    3  A    between atoms: C_9  and  C_11
REMARK    4  A    between atoms: C_11  and  C_12
REMARK    5  A    between atoms: C_14  and  C_15
REMARK    6  A    between atoms: C_17  and  C_18
REMARK    7  A    between atoms: N_19  and  C_20
REMARK    8  A    between atoms: C_23  and  C_24
REMARK    9  A    between atoms: C_24  and  O_26
REMARK   10  A    between atoms: C_29  and  C_30
REMARK                            x       y       z     vdW  Elec       q    Type
REMARK                         _______ _______ _______ _____ _____    ______ ____
ROOT
ATOM      1  C   UNL     1       1.336   7.626  20.423  0.00  0.00    +0.000 A 
ATOM      2  C   UNL     1       1.924   7.966  19.196  0.00  0.00    +0.000 A 
ATOM      3  C   UNL     1       1.631   9.291  18.936  0.00  0.00    +0.000 A 
ATOM      4  C   UNL     1       2.245  10.115  17.854  0.00  0.00    +0.000 C 
ATOM      5  N   UNL     1       0.795   9.772  19.954  0.00  0.00    +0.000 N 
ATOM      6  C   UNL     1       0.581   8.711  20.853  0.00  0.00    +0.000 A 
ATOM      7  C   UNL     1      -0.296   8.774  22.064  0.00  0.00    +0.000 C 
ENDROOT
BRANCH   5   8
ATOM      8  C   UNL     1       0.300  11.119  20.056  0.00  0.00    +0.000 A 
ATOM      9  C   UNL     1      -0.907  11.483  19.435  0.00  0.00    +0.000 A 
ATOM     10  C   UNL     1      -1.386  12.800  19.498  0.00  0.00    +0.000 A 
ATOM     11  C   UNL     1      -0.668  13.771  20.200  0.00  0.00    +0.000 A 
ATOM     12  C   UNL     1       0.517  13.413  20.850  0.00  0.00    +0.000 A 
ATOM     13  C   UNL     1       1.009  12.101  20.760  0.00  0.00    +0.000 A 
BRANCH  11  14
ATOM     14  C   UNL     1      -1.148  15.168  20.327  0.00  0.00    +0.000 C 
ATOM     15  O   UNL     1      -1.427  15.684  21.394  0.00  0.00    +0.000 OA
BRANCH  14  16
ATOM     16  O   UNL     1      -1.210  15.835  19.150  0.00  0.00    +0.000 OA
ATOM     17  H   UNL     1      -0.798  15.377  18.395  0.00  0.00    +0.000 HD
ENDBRANCH  14  16
ENDBRANCH  11  14
ENDBRANCH   5   8
BRANCH   1  19
ATOM     18  C   UNL     1       1.927   5.217  20.551  0.00  0.00    +0.000 C 
ATOM     19  C   UNL     1       1.540   6.386  21.111  0.00  0.00    +0.000 C 
BRANCH  18  21
ATOM     20  N   UNL     1       3.744   5.356  18.855  0.00  0.00    +0.000 N 
ATOM     21  C   UNL     1       2.395   5.134  19.109  0.00  0.00    +0.000 C 
ATOM     22  O   UNL     1       1.569   4.963  18.215  0.00  0.00    +0.000 OA
ATOM     23  H   UNL     1       4.348   5.664  19.605  0.00  0.00    +0.000 HD
BRANCH  20  30
ATOM     24  C   UNL     1       4.298   2.776  17.482  0.00  0.00    +0.000 C 
ATOM     25  C   UNL     1       4.619   4.124  16.897  0.00  0.00    +0.000 A 
ATOM     26  C   UNL     1       5.229   4.145  15.623  0.00  0.00    +0.000 A 
ATOM     27  C   UNL     1       5.575   5.343  15.002  0.00  0.00    +0.000 A 
ATOM     28  C   UNL     1       5.278   6.541  15.626  0.00  0.00    +0.000 A 
ATOM     29  C   UNL     1       4.656   6.537  16.876  0.00  0.00    +0.000 A 
ATOM     30  C   UNL     1       4.336   5.344  17.548  0.00  0.00    +0.000 A 
ENDBRANCH  20  30
ENDBRANCH  18  21
BRANCH  18  31
ATOM     31  C   UNL     1       2.155   3.993  21.423  0.00  0.00    +0.000 C 
ATOM     32  N   UNL     1       2.345   2.977  22.146  0.00  0.00    +0.000 NA
ENDBRANCH  18  31
ENDBRANCH   1  19
TORSDOF 7
ENDMDL
MODEL 5
REMARK VINA RESULT:      -7.0      2.427      2.789
REMARK  Name = 
REMARK  10 active torsions:
REMARK  status: ('A' for Active; 'I' for Inactive)
REMARK    1  A    between atoms: C_1  and  C_2
REMARK    2  A    between atoms: C_7  and  N_8
REMARK    3  A    between atoms: C_9  and  C_11
REMARK    4  A    between atoms: C_11  and  C_12
REMARK    5  A    between atoms: C_14  and  C_15
REMARK    6  A    between atoms: C_17  and  C_18
REMARK    7  A    between atoms: N_19  and  C_20
REMARK    8  A    between atoms: C_23  and  C_24
REMARK    9  A    between atoms: C_24  and  O_26
REMARK   10  A    between atoms: C_29  and  C_30
REMARK                            x       y       z     vdW  Elec       q    Type
REMARK                         _______ _______ _______ _____ _____    ______ ____
ROOT
ATOM      1  C   UNL     1      -0.098  13.335  18.467  0.00  0.00    +0.000 A 
ATOM      2  C   UNL     1      -1.260  12.630  18.121  0.00  0.00    +0.000 A 
ATOM      3  C   UNL     1      -1.004  11.281  18.280  0.00  0.00    +0.000 A 
ATOM      4  C   UNL     1      -2.029  10.197  18.238  0.00  0.00    +0.000 C 
ATOM      5  N   UNL     1       0.339  11.123  18.651  0.00  0.00    +0.000 N 
ATOM      6  C   UNL     1       0.907  12.408  18.721  0.00  0.00    +0.000 A 
ATOM      7  C   UNL     1       2.340  12.699  19.036  0.00  0.00    +0.000 C 
ENDROOT
BRANCH   5   8
ATOM      8  C   UNL     1       0.977   9.867  18.942  0.00  0.00    +0.000 A 
ATOM      9  C   UNL     1       1.661   9.165  17.935  0.00  0.00    +0.000 A 
ATOM     10  C   UNL     1       2.261   7.924  18.196  0.00  0.00    +0.000 A 
ATOM     11  C   UNL     1       2.197   7.373  19.478  0.00  0.00    +0.000 A 
ATOM     12  C   UNL     1       1.548   8.078  20.496  0.00  0.00    +0.000 A 
ATOM     13  C   UNL     1       0.923   9.306  20.225  0.00  0.00    +0.000 A 
BRANCH  11  14
ATOM     14  C   UNL     1       2.844   6.083  19.814  0.00  0.00    +0.000 C 
ATOM     15  O   UNL     1       2.362   5.275  20.588  0.00  0.00    +0.000 OA
BRANCH  14  16
ATOM     16  O   UNL     1       4.002   5.862  19.150  0.00  0.00    +0.000 OA
ATOM     17  H   UNL     1       4.563   5.157  19.522  0.00  0.00    +0.000 HD
ENDBRANCH  14  16
ENDBRANCH  11  14
ENDBRANCH   5   8
BRANCH   1  19
ATOM     18  C   UNL     1      -0.438  15.507  19.622  0.00  0.00    +0.000 C 
ATOM     19  C   UNL     1      -0.010  14.760  18.579  0.00  0.00    +0.000 C 
BRANCH  18  21
ATOM     20  N   UNL     1      -2.212  14.425  20.995  0.00  0.00    +0.000 N 
ATOM     21  C   UNL     1      -0.898  14.876  20.925  0.00  0.00    +0.000 C 
ATOM     22  O   UNL     1      -0.138  14.864  21.892  0.00  0.00    +0.000 OA
ATOM     23  H   UNL     1      -2.845  14.617  20.231  0.00  0.00    +0.000 HD
BRANCH  20  30
ATOM     24  C   UNL     1      -1.455  11.675  21.840  0.00  0.00    +0.000 C 
ATOM     25  C   UNL     1      -2.466  12.526  22.558  0.00  0.00    +0.000 A 
ATOM     26  C   UNL     1      -3.091  11.963  23.694  0.00  0.00    +0.000 A 
ATOM     27  C   UNL     1      -4.049  12.667  24.419  0.00  0.00    +0.000 A 
ATOM     28  C   UNL     1      -4.368  13.960  24.048  0.00  0.00    +0.000 A 
ATOM     29  C   UNL     1      -3.744  14.537  22.940  0.00  0.00    +0.000 A 
ATOM     30  C   UNL     1      -2.806  13.836  22.160  0.00  0.00    +0.000 A 
ENDBRANCH  20  30
ENDBRANCH  18  21
BRANCH  18  31
ATOM     31  C   UNL     1      -0.225  17.012  19.621  0.00  0.00    +0.000 C 
ATOM     32  N   UNL     1      -0.047  18.261  19.620  0.00  0.00    +0.000 NA
ENDBRANCH  18  31
ENDBRANCH   1  19
TORSDOF 7
ENDMDL
MODEL 6
REMARK VINA RESULT:      -6.9      2.432      3.101
REMARK  Name = 
REMARK  10 active torsions:
REMARK  status: ('A' for Active; 'I' for Inactive)
REMARK    1  A    between atoms: C_1  and  C_2
REMARK    2  A    between atoms: C_7  and  N_8
REMARK    3  A    between atoms: C_9  and  C_11
REMARK    4  A    between atoms: C_11  and  C_12
REMARK    5  A    between atoms: C_14  and  C_15
REMARK    6  A    between atoms: C_17  and  C_18
REMARK    7  A    between atoms: N_19  and  C_20
REMARK    8  A    between atoms: C_23  and  C_24
REMARK    9  A    between atoms: C_24  and  O_26
REMARK   10  A    between atoms: C_29  and  C_30
REMARK                            x       y       z     vdW  Elec       q    Type
REMARK                         _______ _______ _______ _____ _____    ______ ____
ROOT
ATOM      1  C   UNL     1      -0.113  13.296  18.453  0.00  0.00    +0.000 A 
ATOM      2  C   UNL     1      -1.280  12.593  18.119  0.00  0.00    +0.000 A 
ATOM      3  C   UNL     1      -1.024  11.244  18.273  0.00  0.00    +0.000 A 
ATOM      4  C   UNL     1      -2.050  10.161  18.242  0.00  0.00    +0.000 C 
ATOM      5  N   UNL     1       0.323  11.083  18.630  0.00  0.00    +0.000 N 
ATOM      6  C   UNL     1       0.893  12.367  18.694  0.00  0.00    +0.000 A 
ATOM      7  C   UNL     1       2.330  12.657  18.994  0.00  0.00    +0.000 C 
ENDROOT
BRANCH   5   8
ATOM      8  C   UNL     1       0.963   9.826  18.912  0.00  0.00    +0.000 A 
ATOM      9  C   UNL     1       0.922   9.280  20.206  0.00  0.00    +0.000 A 
ATOM     10  C   UNL     1       1.569   8.072  20.503  0.00  0.00    +0.000 A 
ATOM     11  C   UNL     1       2.257   7.382  19.501  0.00  0.00    +0.000 A 
ATOM     12  C   UNL     1       2.276   7.899  18.203  0.00  0.00    +0.000 A 
ATOM     13  C   UNL     1       1.653   9.124  17.914  0.00  0.00    +0.000 A 
BRANCH  11  14
ATOM     14  C   UNL     1       2.926   6.085  19.755  0.00  0.00    +0.000 C 
ATOM     15  O   UNL     1       3.775   5.615  19.018  0.00  0.00    +0.000 OA
BRANCH  14  16
ATOM     16  O   UNL     1       2.541   5.486  20.907  0.00  0.00    +0.000 OA
ATOM     17  H   UNL     1       3.249   5.364  21.565  0.00  0.00    +0.000 HD
ENDBRANCH  14  16
ENDBRANCH  11  14
ENDBRANCH   5   8
BRANCH   1  19
ATOM     18  C   UNL     1      -0.453  15.469  19.607  0.00  0.00    +0.000 C 
ATOM     19  C   UNL     1      -0.022  14.721  18.565  0.00  0.00    +0.000 C 
BRANCH  18  21
ATOM     20  N   UNL     1      -2.279  14.568  21.040  0.00  0.00    +0.000 N 
ATOM     21  C   UNL     1      -0.922  14.840  20.907  0.00  0.00    +0.000 C 
ATOM     22  O   UNL     1      -0.118  14.674  21.822  0.00  0.00    +0.000 OA
ATOM     23  H   UNL     1      -2.923  14.884  20.327  0.00  0.00    +0.000 HD
BRANCH  20  30
ATOM     24  C   UNL     1      -3.804  16.296  22.922  0.00  0.00    +0.000 C 
ATOM     25  C   UNL     1      -3.592  14.820  23.121  0.00  0.00    +0.000 A 
ATOM     26  C   UNL     1      -4.150  14.241  24.283  0.00  0.00    +0.000 A 
ATOM     27  C   UNL     1      -3.999  12.884  24.562  0.00  0.00    +0.000 A 
ATOM     28  C   UNL     1      -3.325  12.077  23.664  0.00  0.00    +0.000 A 
ATOM     29  C   UNL     1      -2.786  12.632  22.502  0.00  0.00    +0.000 A 
ATOM     30  C   UNL     1      -2.882  14.005  22.213  0.00  0.00    +0.000 A 
ENDBRANCH  20  30
ENDBRANCH  18  21
BRANCH  18  31
ATOM     31  C   UNL     1      -0.236  16.973  19.607  0.00  0.00    +0.000 C 
ATOM     32  N   UNL     1      -0.056  18.222  19.606  0.00  0.00    +0.000 NA
ENDBRANCH  18  31
ENDBRANCH   1  19
TORSDOF 7
ENDMDL
MODEL 7
REMARK VINA RESULT:      -6.8      1.458      1.969
REMARK  Name = 
REMARK  10 active torsions:
REMARK  status: ('A' for Active; 'I' for Inactive)
REMARK    1  A    between atoms: C_1  and  C_2
REMARK    2  A    between atoms: C_7  and  N_8
REMARK    3  A    between atoms: C_9  and  C_11
REMARK    4  A    between atoms: C_11  and  C_12
REMARK    5  A    between atoms: C_14  and  C_15
REMARK    6  A    between atoms: C_17  and  C_18
REMARK    7  A    between atoms: N_19  and  C_20
REMARK    8  A    between atoms: C_23  and  C_24
REMARK    9  A    between atoms: C_24  and  O_26
REMARK   10  A    between atoms: C_29  and  C_30
REMARK                            x       y       z     vdW  Elec       q    Type
REMARK                         _______ _______ _______ _____ _____    ______ ____
ROOT
ATOM      1  C   UNL     1      -0.131  13.327  18.580  0.00  0.00    +0.000 A 
ATOM      2  C   UNL     1      -1.265  12.617  18.157  0.00  0.00    +0.000 A 
ATOM      3  C   UNL     1      -0.983  11.267  18.257  0.00  0.00    +0.000 A 
ATOM      4  C   UNL     1      -1.981  10.165  18.124  0.00  0.00    +0.000 C 
ATOM      5  N   UNL     1       0.350  11.118  18.667  0.00  0.00    +0.000 N 
ATOM      6  C   UNL     1       0.885  12.409  18.822  0.00  0.00    +0.000 A 
ATOM      7  C   UNL     1       2.300  12.714  19.201  0.00  0.00    +0.000 C 
ENDROOT
BRANCH   5   8
ATOM      8  C   UNL     1       1.006   9.863  18.916  0.00  0.00    +0.000 A 
ATOM      9  C   UNL     1       1.716   9.214  17.891  0.00  0.00    +0.000 A 
ATOM     10  C   UNL     1       2.334   7.974  18.111  0.00  0.00    +0.000 A 
ATOM     11  C   UNL     1       2.263   7.371  19.369  0.00  0.00    +0.000 A 
ATOM     12  C   UNL     1       1.588   8.023  20.405  0.00  0.00    +0.000 A 
ATOM     13  C   UNL     1       0.944   9.249  20.175  0.00  0.00    +0.000 A 
BRANCH  11  14
ATOM     14  C   UNL     1       2.928   6.079  19.662  0.00  0.00    +0.000 C 
ATOM     15  O   UNL     1       3.717   5.546  18.902  0.00  0.00    +0.000 OA
BRANCH  14  16
ATOM     16  O   UNL     1       2.612   5.563  20.873  0.00  0.00    +0.000 OA
ATOM     17  H   UNL     1       3.290   4.981  21.262  0.00  0.00    +0.000 HD
ENDBRANCH  14  16
ENDBRANCH  11  14
ENDBRANCH   5   8
BRANCH   1  19
ATOM     18  C   UNL     1      -0.840  15.467  19.623  0.00  0.00    +0.000 C 
ATOM     19  C   UNL     1      -0.079  14.747  18.767  0.00  0.00    +0.000 C 
BRANCH  18  21
ATOM     20  N   UNL     1      -3.104  14.972  20.534  0.00  0.00    +0.000 N 
ATOM     21  C   UNL     1      -1.729  14.804  20.660  0.00  0.00    +0.000 C 
ATOM     22  O   UNL     1      -1.215  14.223  21.613  0.00  0.00    +0.000 OA
ATOM     23  H   UNL     1      -3.466  15.603  19.832  0.00  0.00    +0.000 HD
BRANCH  20  30
ATOM     24  C   UNL     1      -4.615  12.504  19.842  0.00  0.00    +0.000 C 
ATOM     25  C   UNL     1      -4.807  13.277  21.117  0.00  0.00    +0.000 A 
ATOM     26  C   UNL     1      -5.776  12.791  22.025  0.00  0.00    +0.000 A 
ATOM     27  C   UNL     1      -6.036  13.443  23.228  0.00  0.00    +0.000 A 
ATOM     28  C   UNL     1      -5.303  14.567  23.564  0.00  0.00    +0.000 A 
ATOM     29  C   UNL     1      -4.328  15.046  22.687  0.00  0.00    +0.000 A 
ATOM     30  C   UNL     1      -4.073  14.437  21.445  0.00  0.00    +0.000 A 
ENDBRANCH  20  30
ENDBRANCH  18  21
BRANCH  18  31
ATOM     31  C   UNL     1      -0.631  16.967  19.750  0.00  0.00    +0.000 C 
ATOM     32  N   UNL     1      -0.457  18.212  19.857  0.00  0.00    +0.000 NA
ENDBRANCH  18  31
ENDBRANCH   1  19
TORSDOF 7
ENDMDL
MODEL 8
REMARK VINA RESULT:      -6.8      0.377      1.301
REMARK  Name = 
REMARK  10 active torsions:
REMARK  status: ('A' for Active; 'I' for Inactive)
REMARK    1  A    between atoms: C_1  and  C_2
REMARK    2  A    between atoms: C_7  and  N_8
REMARK    3  A    between atoms: C_9  and  C_11
REMARK    4  A    between atoms: C_11  and  C_12
REMARK    5  A    between atoms: C_14  and  C_15
REMARK    6  A    between atoms: C_17  and  C_18
REMARK    7  A    between atoms: N_19  and  C_20
REMARK    8  A    between atoms: C_23  and  C_24
REMARK    9  A    between atoms: C_24  and  O_26
REMARK   10  A    between atoms: C_29  and  C_30
REMARK                            x       y       z     vdW  Elec       q    Type
REMARK                         _______ _______ _______ _____ _____    ______ ____
ROOT
ATOM      1  C   UNL     1      -0.713  12.961  19.417  0.00  0.00    +0.000 A 
ATOM      2  C   UNL     1      -1.527  12.377  18.435  0.00  0.00    +0.000 A 
ATOM      3  C   UNL     1      -1.023  11.122  18.154  0.00  0.00    +0.000 A 
ATOM      4  C   UNL     1      -1.709  10.078  17.339  0.00  0.00    +0.000 C 
ATOM      5  N   UNL     1       0.153  10.937  18.896  0.00  0.00    +0.000 N 
ATOM      6  C   UNL     1       0.362  12.108  19.646  0.00  0.00    +0.000 A 
ATOM      7  C   UNL     1       1.533  12.360  20.542  0.00  0.00    +0.000 C 
ENDROOT
BRANCH   5   8
ATOM      8  C   UNL     1       0.953   9.741  18.900  0.00  0.00    +0.000 A 
ATOM      9  C   UNL     1       1.743   9.409  17.787  0.00  0.00    +0.000 A 
ATOM     10  C   UNL     1       2.503   8.230  17.764  0.00  0.00    +0.000 A 
ATOM     11  C   UNL     1       2.495   7.372  18.866  0.00  0.00    +0.000 A 
ATOM     12  C   UNL     1       1.739   7.709  19.993  0.00  0.00    +0.000 A 
ATOM     13  C   UNL     1       0.956   8.875  20.002  0.00  0.00    +0.000 A 
BRANCH  11  14
ATOM     14  C   UNL     1       3.307   6.133  18.906  0.00  0.00    +0.000 C 
ATOM     15  O   UNL     1       3.629   5.512  17.909  0.00  0.00    +0.000 OA
BRANCH  14  16
ATOM     16  O   UNL     1       3.698   5.774  20.152  0.00  0.00    +0.000 OA
ATOM     17  H   UNL     1       3.621   6.474  20.826  0.00  0.00    +0.000 HD
ENDBRANCH  14  16
ENDBRANCH  11  14
ENDBRANCH   5   8
BRANCH   1  19
ATOM     18  C   UNL     1      -2.148  14.521  20.711  0.00  0.00    +0.000 C 
ATOM     19  C   UNL     1      -0.995  14.198  20.083  0.00  0.00    +0.000 C 
BRANCH  18  21
ATOM     20  N   UNL     1      -4.407  13.602  20.209  0.00  0.00    +0.000 N 
ATOM     21  C   UNL     1      -3.241  13.497  20.960  0.00  0.00    +0.000 C 
ATOM     22  O   UNL     1      -3.103  12.674  21.862  0.00  0.00    +0.000 OA
ATOM     23  H   UNL     1      -4.539  14.401  19.604  0.00  0.00    +0.000 HD
BRANCH  20  30
ATOM     24  C   UNL     1      -6.486  14.159  22.263  0.00  0.00    +0.000 C 
ATOM     25  C   UNL     1      -6.522  12.980  21.329  0.00  0.00    +0.000 A 
ATOM     26  C   UNL     1      -7.612  12.090  21.458  0.00  0.00    +0.000 A 
ATOM     27  C   UNL     1      -7.730  10.964  20.647  0.00  0.00    +0.000 A 
ATOM     28  C   UNL     1      -6.783  10.731  19.666  0.00  0.00    +0.000 A 
ATOM     29  C   UNL     1      -5.711  11.613  19.514  0.00  0.00    +0.000 A 
ATOM     30  C   UNL     1      -5.541  12.734  20.346  0.00  0.00    +0.000 A 
ENDBRANCH  20  30
ENDBRANCH  18  21
BRANCH  18  31
ATOM     31  C   UNL     1      -2.279  15.857  21.423  0.00  0.00    +0.000 C 
ATOM     32  N   UNL     1      -2.388  16.966  22.016  0.00  0.00    +0.000 NA
ENDBRANCH  18  31
ENDBRANCH   1  19
TORSDOF 7
ENDMDL
MODEL 9
REMARK VINA RESULT:      -6.7      2.405      3.069
REMARK  Name = 
REMARK  10 active torsions:
REMARK  status: ('A' for Active; 'I' for Inactive)
REMARK    1  A    between atoms: C_1  and  C_2
REMARK    2  A    between atoms: C_7  and  N_8
REMARK    3  A    between atoms: C_9  and  C_11
REMARK    4  A    between atoms: C_11  and  C_12
REMARK    5  A    between atoms: C_14  and  C_15
REMARK    6  A    between atoms: C_17  and  C_18
REMARK    7  A    between atoms: N_19  and  C_20
REMARK    8  A    between atoms: C_23  and  C_24
REMARK    9  A    between atoms: C_24  and  O_26
REMARK   10  A    between atoms: C_29  and  C_30
REMARK                            x       y       z     vdW  Elec       q    Type
REMARK                         _______ _______ _______ _____ _____    ______ ____
ROOT
ATOM      1  C   UNL     1      -0.134  13.318  18.461  0.00  0.00    +0.000 A 
ATOM      2  C   UNL     1      -1.301  12.604  18.151  0.00  0.00    +0.000 A 
ATOM      3  C   UNL     1      -1.029  11.258  18.300  0.00  0.00    +0.000 A 
ATOM      4  C   UNL     1      -2.046  10.165  18.289  0.00  0.00    +0.000 C 
ATOM      5  N   UNL     1       0.326  11.109  18.629  0.00  0.00    +0.000 N 
ATOM      6  C   UNL     1       0.885  12.399  18.682  0.00  0.00    +0.000 A 
ATOM      7  C   UNL     1       2.325  12.702  18.952  0.00  0.00    +0.000 C 
ENDROOT
BRANCH   5   8
ATOM      8  C   UNL     1       0.984   9.858  18.898  0.00  0.00    +0.000 A 
ATOM      9  C   UNL     1       1.676   9.184  17.878  0.00  0.00    +0.000 A 
ATOM     10  C   UNL     1       2.295   7.948  18.118  0.00  0.00    +0.000 A 
ATOM     11  C   UNL     1       2.241   7.375  19.391  0.00  0.00    +0.000 A 
ATOM     12  C   UNL     1       1.583   8.053  20.421  0.00  0.00    +0.000 A 
ATOM     13  C   UNL     1       0.939   9.275  20.172  0.00  0.00    +0.000 A 
BRANCH  11  14
ATOM     14  C   UNL     1       2.907   6.088  19.705  0.00  0.00    +0.000 C 
ATOM     15  O   UNL     1       2.482   5.299  20.529  0.00  0.00    +0.000 OA
BRANCH  14  16
ATOM     16  O   UNL     1       4.012   5.848  18.960  0.00  0.00    +0.000 OA
ATOM     17  H   UNL     1       4.783   6.404  19.174  0.00  0.00    +0.000 HD
ENDBRANCH  14  16
ENDBRANCH  11  14
ENDBRANCH   5   8
BRANCH   1  19
ATOM     18  C   UNL     1      -0.481  15.489  19.617  0.00  0.00    +0.000 C 
ATOM     19  C   UNL     1      -0.054  14.744  18.572  0.00  0.00    +0.000 C 
BRANCH  18  21
ATOM     20  N   UNL     1      -2.291  14.610  21.086  0.00  0.00    +0.000 N 
ATOM     21  C   UNL     1      -0.932  14.856  20.923  0.00  0.00    +0.000 C 
ATOM     22  O   UNL     1      -0.109  14.666  21.817  0.00  0.00    +0.000 OA
ATOM     23  H   UNL     1      -2.944  14.945  20.391  0.00  0.00    +0.000 HD
BRANCH  20  30
ATOM     24  C   UNL     1      -3.522  16.377  23.138  0.00  0.00    +0.000 C 
ATOM     25  C   UNL     1      -3.447  14.879  23.255  0.00  0.00    +0.000 A 
ATOM     26  C   UNL     1      -3.991  14.296  24.422  0.00  0.00    +0.000 A 
ATOM     27  C   UNL     1      -3.960  12.919  24.628  0.00  0.00    +0.000 A 
ATOM     28  C   UNL     1      -3.423  12.098  23.653  0.00  0.00    +0.000 A 
ATOM     29  C   UNL     1      -2.901  12.658  22.486  0.00  0.00    +0.000 A 
ATOM     30  C   UNL     1      -2.877  14.048  22.268  0.00  0.00    +0.000 A 
ENDBRANCH  20  30
ENDBRANCH  18  21
BRANCH  18  31
ATOM     31  C   UNL     1      -0.277  16.995  19.615  0.00  0.00    +0.000 C 
ATOM     32  N   UNL     1      -0.108  18.245  19.613  0.00  0.00    +0.000 NA
ENDBRANCH  18  31
ENDBRANCH   1  19
TORSDOF 7
ENDMDL
