MODEL 1
REMARK VINA RESULT:      -8.8      0.000      0.000
REMARK  Name = 
REMARK  5 active torsions:
REMARK  status: ('A' for Active; 'I' for Inactive)
REMARK    1  A    between atoms: C_1  and  N_2
REMARK    2  A    between atoms: N_2  and  C_3
REMARK    3  A    between atoms: N_2  and  C_9
REMARK    4  A    between atoms: N_13  and  C_14
REMARK    5  A    between atoms: C_14  and  C_15
REMARK                            x       y       z     vdW  Elec       q    Type
REMARK                         _______ _______ _______ _____ _____    ______ ____
ROOT
ATOM      1  C   UNL     1       3.129   4.982  18.320  0.00  0.00    +0.000 A 
ATOM      2  C   UNL     1       2.831   6.294  18.198  0.00  0.00    +0.000 A 
ATOM      3  N   UNL     1       2.251   7.100  19.168  0.00  0.00    +0.000 NA
ATOM      4  C   UNL     1       1.927   6.570  20.312  0.00  0.00    +0.000 A 
ATOM      5  N   UNL     1       1.307   7.271  21.336  0.00  0.00    +0.000 N 
ATOM      6  N   UNL     1       2.226   5.217  20.528  0.00  0.00    +0.000 N 
ATOM      7  C   UNL     1       2.057   4.437  21.627  0.00  0.00    +0.000 A 
ATOM      8  N   UNL     1       2.492   3.222  21.383  0.00  0.00    +0.000 NA
ATOM      9  N   UNL     1       2.958   3.202  20.090  0.00  0.00    +0.000 NA
ATOM     10  C   UNL     1       2.822   4.404  19.585  0.00  0.00    +0.000 A 
ATOM     11  H   UNL     1       1.188   6.815  22.232  0.00  0.00    +0.000 HD
ENDROOT
BRANCH   1  13
ATOM     12  C   UNL     1       2.871   3.040  16.795  0.00  0.00    +0.000 C 
ATOM     13  N   UNL     1       3.618   4.222  17.242  0.00  0.00    +0.000 N 
BRANCH  13  14
ATOM     14  C   UNL     1       4.897   4.406  16.657  0.00  0.00    +0.000 A 
ATOM     15  C   UNL     1       6.057   4.514  17.450  0.00  0.00    +0.000 A 
ATOM     16  C   UNL     1       7.321   4.723  16.887  0.00  0.00    +0.000 A 
ATOM     17  C   UNL     1       7.459   4.823  15.509  0.00  0.00    +0.000 A 
ATOM     18  C   UNL     1       6.335   4.704  14.697  0.00  0.00    +0.000 A 
ATOM     19  C   UNL     1       5.071   4.489  15.266  0.00  0.00    +0.000 A 
ENDBRANCH  13  14
ENDBRANCH   1  13
BRANCH   5  20
ATOM     20  C   UNL     1       1.495   8.699  21.474  0.00  0.00    +0.000 C 
BRANCH  20  21
ATOM     21  C   UNL     1       0.197   9.481  21.551  0.00  0.00    +0.000 A 
ATOM     22  C   UNL     1      -0.285   9.838  22.824  0.00  0.00    +0.000 A 
ATOM     23  F   UNL     1       0.151   9.171  23.902  0.00  0.00    +0.000 F 
ATOM     24  C   UNL     1      -1.130  10.939  23.028  0.00  0.00    +0.000 A 
ATOM     25  C   UNL     1      -1.400  11.801  21.970  0.00  0.00    +0.000 A 
ATOM     26  C   UNL     1      -0.937  11.423  20.729  0.00  0.00    +0.000 A 
ATOM     27  C   UNL     1      -0.324  10.193  20.484  0.00  0.00    +0.000 A 
ATOM     28  C   UNL     1      -0.199  10.090  19.007  0.00  0.00    +0.000 C 
ATOM     29  C   UNL     1       0.118  11.556  18.799  0.00  0.00    +0.000 C 
ATOM     30  O   UNL     1      -0.847  12.264  19.634  0.00  0.00    +0.000 OA
ENDBRANCH  20  21
ENDBRANCH   5  20
TORSDOF 4
ENDMDL
MODEL 2
REMARK VINA RESULT:      -8.7      3.650      8.257
REMARK  Name = 
REMARK  5 active torsions:
REMARK  status: ('A' for Active; 'I' for Inactive)
REMARK    1  A    between atoms: C_1  and  N_2
REMARK    2  A    between atoms: N_2  and  C_3
REMARK    3  A    between atoms: N_2  and  C_9
REMARK    4  A    between atoms: N_13  and  C_14
REMARK    5  A    between atoms: C_14  and  C_15
REMARK                            x       y       z     vdW  Elec       q    Type
REMARK                         _______ _______ _______ _____ _____    ______ ____
ROOT
ATOM      1  C   UNL     1       0.488   9.994  18.743  0.00  0.00    +0.000 A 
ATOM      2  C   UNL     1       1.414   9.458  17.918  0.00  0.00    +0.000 A 
ATOM      3  N   UNL     1       2.284   8.418  18.221  0.00  0.00    +0.000 NA
ATOM      4  C   UNL     1       2.250   7.900  19.414  0.00  0.00    +0.000 A 
ATOM      5  N   UNL     1       3.098   6.887  19.837  0.00  0.00    +0.000 N 
ATOM      6  N   UNL     1       1.298   8.384  20.324  0.00  0.00    +0.000 N 
ATOM      7  C   UNL     1       1.006   7.993  21.591  0.00  0.00    +0.000 A 
ATOM      8  N   UNL     1       0.025   8.725  22.069  0.00  0.00    +0.000 NA
ATOM      9  N   UNL     1      -0.335   9.621  21.092  0.00  0.00    +0.000 NA
ATOM     10  C   UNL     1       0.410   9.401  20.036  0.00  0.00    +0.000 A 
ATOM     11  H   UNL     1       2.935   6.464  20.742  0.00  0.00    +0.000 HD
ENDROOT
BRANCH   1  13
ATOM     12  C   UNL     1       0.280  12.462  18.581  0.00  0.00    +0.000 C 
ATOM     13  N   UNL     1      -0.276  11.119  18.382  0.00  0.00    +0.000 N 
BRANCH  13  14
ATOM     14  C   UNL     1      -1.640  11.061  18.001  0.00  0.00    +0.000 A 
ATOM     15  C   UNL     1      -2.057  10.322  16.876  0.00  0.00    +0.000 A 
ATOM     16  C   UNL     1      -3.397  10.278  16.473  0.00  0.00    +0.000 A 
ATOM     17  C   UNL     1      -4.361  10.970  17.195  0.00  0.00    +0.000 A 
ATOM     18  C   UNL     1      -3.984  11.696  18.321  0.00  0.00    +0.000 A 
ATOM     19  C   UNL     1      -2.641  11.732  18.723  0.00  0.00    +0.000 A 
ENDBRANCH  13  14
ENDBRANCH   1  13
BRANCH   5  20
ATOM     20  C   UNL     1       3.654   5.945  18.890  0.00  0.00    +0.000 C 
BRANCH  20  21
ATOM     21  C   UNL     1       2.753   4.756  18.613  0.00  0.00    +0.000 A 
ATOM     22  C   UNL     1       2.994   4.002  17.449  0.00  0.00    +0.000 A 
ATOM     23  F   UNL     1       3.696   4.548  16.446  0.00  0.00    +0.000 F 
ATOM     24  C   UNL     1       2.616   2.655  17.331  0.00  0.00    +0.000 A 
ATOM     25  C   UNL     1       2.111   1.986  18.442  0.00  0.00    +0.000 A 
ATOM     26  C   UNL     1       1.865   2.747  19.564  0.00  0.00    +0.000 A 
ATOM     27  C   UNL     1       1.993   4.137  19.590  0.00  0.00    +0.000 A 
ATOM     28  C   UNL     1       1.414   4.572  20.886  0.00  0.00    +0.000 C 
ATOM     29  C   UNL     1       1.938   3.389  21.671  0.00  0.00    +0.000 C 
ATOM     30  O   UNL     1       1.648   2.232  20.830  0.00  0.00    +0.000 OA
ENDBRANCH  20  21
ENDBRANCH   5  20
TORSDOF 4
ENDMDL
MODEL 3
REMARK VINA RESULT:      -8.6      3.425      8.452
REMARK  Name = 
REMARK  5 active torsions:
REMARK  status: ('A' for Active; 'I' for Inactive)
REMARK    1  A    between atoms: C_1  and  N_2
REMARK    2  A    between atoms: N_2  and  C_3
REMARK    3  A    between atoms: N_2  and  C_9
REMARK    4  A    between atoms: N_13  and  C_14
REMARK    5  A    between atoms: C_14  and  C_15
REMARK                            x       y       z     vdW  Elec       q    Type
REMARK                         _______ _______ _______ _____ _____    ______ ____
ROOT
ATOM      1  C   UNL     1      -0.083  10.494  18.834  0.00  0.00    +0.000 A 
ATOM      2  C   UNL     1       0.687   9.790  17.977  0.00  0.00    +0.000 A 
ATOM      3  N   UNL     1       1.542   8.745  18.305  0.00  0.00    +0.000 NA
ATOM      4  C   UNL     1       1.656   8.398  19.555  0.00  0.00    +0.000 A 
ATOM      5  N   UNL     1       2.508   7.398  20.000  0.00  0.00    +0.000 N 
ATOM      6  N   UNL     1       0.870   9.065  20.507  0.00  0.00    +0.000 N 
ATOM      7  C   UNL     1       0.746   8.872  21.845  0.00  0.00    +0.000 A 
ATOM      8  N   UNL     1      -0.120   9.727  22.341  0.00  0.00    +0.000 NA
ATOM      9  N   UNL     1      -0.574  10.503  21.302  0.00  0.00    +0.000 NA
ATOM     10  C   UNL     1      -0.001  10.091  20.198  0.00  0.00    +0.000 A 
ATOM     11  H   UNL     1       2.457   7.115  20.971  0.00  0.00    +0.000 HD
ENDROOT
BRANCH   1  13
ATOM     12  C   UNL     1      -0.293  12.958  18.610  0.00  0.00    +0.000 C 
ATOM     13  N   UNL     1      -0.837  11.608  18.421  0.00  0.00    +0.000 N 
BRANCH  13  14
ATOM     14  C   UNL     1      -2.187  11.537  17.993  0.00  0.00    +0.000 A 
ATOM     15  C   UNL     1      -2.520  11.154  16.678  0.00  0.00    +0.000 A 
ATOM     16  C   UNL     1      -3.847  11.105  16.234  0.00  0.00    +0.000 A 
ATOM     17  C   UNL     1      -4.881  11.432  17.103  0.00  0.00    +0.000 A 
ATOM     18  C   UNL     1      -4.586  11.798  18.412  0.00  0.00    +0.000 A 
ATOM     19  C   UNL     1      -3.255  11.840  18.853  0.00  0.00    +0.000 A 
ENDBRANCH  13  14
ENDBRANCH   1  13
BRANCH   5  20
ATOM     20  C   UNL     1       2.875   6.299  19.133  0.00  0.00    +0.000 C 
BRANCH  20  21
ATOM     21  C   UNL     1       2.723   4.935  19.779  0.00  0.00    +0.000 A 
ATOM     22  C   UNL     1       1.549   4.679  20.512  0.00  0.00    +0.000 A 
ATOM     23  F   UNL     1       0.815   5.708  20.958  0.00  0.00    +0.000 F 
ATOM     24  C   UNL     1       1.052   3.381  20.710  0.00  0.00    +0.000 A 
ATOM     25  C   UNL     1       1.649   2.311  20.051  0.00  0.00    +0.000 A 
ATOM     26  C   UNL     1       2.808   2.580  19.356  0.00  0.00    +0.000 A 
ATOM     27  C   UNL     1       3.444   3.823  19.381  0.00  0.00    +0.000 A 
ATOM     28  C   UNL     1       4.755   3.620  18.712  0.00  0.00    +0.000 C 
ATOM     29  C   UNL     1       4.224   2.659  17.669  0.00  0.00    +0.000 C 
ATOM     30  O   UNL     1       3.374   1.737  18.416  0.00  0.00    +0.000 OA
ENDBRANCH  20  21
ENDBRANCH   5  20
TORSDOF 4
ENDMDL
MODEL 4
REMARK VINA RESULT:      -8.5      1.796      2.774
REMARK  Name = 
REMARK  5 active torsions:
REMARK  status: ('A' for Active; 'I' for Inactive)
REMARK    1  A    between atoms: C_1  and  N_2
REMARK    2  A    between atoms: N_2  and  C_3
REMARK    3  A    between atoms: N_2  and  C_9
REMARK    4  A    between atoms: N_13  and  C_14
REMARK    5  A    between atoms: C_14  and  C_15
REMARK                            x       y       z     vdW  Elec       q    Type
REMARK                         _______ _______ _______ _____ _____    ______ ____
ROOT
ATOM      1  C   UNL     1       5.248   5.471  16.877  0.00  0.00    +0.000 A 
ATOM      2  C   UNL     1       5.170   6.817  16.953  0.00  0.00    +0.000 A 
ATOM      3  N   UNL     1       4.081   7.555  17.399  0.00  0.00    +0.000 NA
ATOM      4  C   UNL     1       3.004   6.923  17.767  0.00  0.00    +0.000 A 
ATOM      5  N   UNL     1       1.847   7.559  18.191  0.00  0.00    +0.000 N 
ATOM      6  N   UNL     1       3.013   5.520  17.742  0.00  0.00    +0.000 N 
ATOM      7  C   UNL     1       2.068   4.622  18.120  0.00  0.00    +0.000 A 
ATOM      8  N   UNL     1       2.511   3.400  17.930  0.00  0.00    +0.000 NA
ATOM      9  N   UNL     1       3.780   3.499  17.412  0.00  0.00    +0.000 NA
ATOM     10  C   UNL     1       4.092   4.769  17.322  0.00  0.00    +0.000 A 
ATOM     11  H   UNL     1       1.093   6.995  18.564  0.00  0.00    +0.000 HD
ENDROOT
BRANCH   1  13
ATOM     12  C   UNL     1       7.501   4.465  17.159  0.00  0.00    +0.000 C 
ATOM     13  N   UNL     1       6.357   4.816  16.309  0.00  0.00    +0.000 N 
BRANCH  13  14
ATOM     14  C   UNL     1       6.536   4.625  14.916  0.00  0.00    +0.000 A 
ATOM     15  C   UNL     1       5.708   3.752  14.183  0.00  0.00    +0.000 A 
ATOM     16  C   UNL     1       5.891   3.534  12.812  0.00  0.00    +0.000 A 
ATOM     17  C   UNL     1       6.908   4.195  12.134  0.00  0.00    +0.000 A 
ATOM     18  C   UNL     1       7.732   5.076  12.826  0.00  0.00    +0.000 A 
ATOM     19  C   UNL     1       7.540   5.295  14.198  0.00  0.00    +0.000 A 
ENDBRANCH  13  14
ENDBRANCH   1  13
BRANCH   5  20
ATOM     20  C   UNL     1       1.905   8.865  18.812  0.00  0.00    +0.000 C 
BRANCH  20  21
ATOM     21  C   UNL     1       0.776   9.127  19.790  0.00  0.00    +0.000 A 
ATOM     22  C   UNL     1       0.881   8.576  21.082  0.00  0.00    +0.000 A 
ATOM     23  F   UNL     1       1.714   7.548  21.292  0.00  0.00    +0.000 F 
ATOM     24  C   UNL     1       0.223   9.128  22.192  0.00  0.00    +0.000 A 
ATOM     25  C   UNL     1      -0.447  10.340  22.058  0.00  0.00    +0.000 A 
ATOM     26  C   UNL     1      -0.556  10.851  20.783  0.00  0.00    +0.000 A 
ATOM     27  C   UNL     1      -0.129  10.164  19.645  0.00  0.00    +0.000 A 
ATOM     28  C   UNL     1      -0.637  10.943  18.488  0.00  0.00    +0.000 C 
ATOM     29  C   UNL     1      -0.406  12.296  19.126  0.00  0.00    +0.000 C 
ATOM     30  O   UNL     1      -0.916  12.153  20.486  0.00  0.00    +0.000 OA
ENDBRANCH  20  21
ENDBRANCH   5  20
TORSDOF 4
ENDMDL
MODEL 5
REMARK VINA RESULT:      -8.5      3.333      8.588
REMARK  Name = 
REMARK  5 active torsions:
REMARK  status: ('A' for Active; 'I' for Inactive)
REMARK    1  A    between atoms: C_1  and  N_2
REMARK    2  A    between atoms: N_2  and  C_3
REMARK    3  A    between atoms: N_2  and  C_9
REMARK    4  A    between atoms: N_13  and  C_14
REMARK    5  A    between atoms: C_14  and  C_15
REMARK                            x       y       z     vdW  Elec       q    Type
REMARK                         _______ _______ _______ _____ _____    ______ ____
ROOT
ATOM      1  C   UNL     1      -0.006  10.714  19.178  0.00  0.00    +0.000 A 
ATOM      2  C   UNL     1       0.568   9.968  18.210  0.00  0.00    +0.000 A 
ATOM      3  N   UNL     1       1.392   8.865  18.400  0.00  0.00    +0.000 NA
ATOM      4  C   UNL     1       1.679   8.500  19.616  0.00  0.00    +0.000 A 
ATOM      5  N   UNL     1       2.522   7.440  19.921  0.00  0.00    +0.000 N 
ATOM      6  N   UNL     1       1.102   9.209  20.679  0.00  0.00    +0.000 N 
ATOM      7  C   UNL     1       1.178   9.012  22.020  0.00  0.00    +0.000 A 
ATOM      8  N   UNL     1       0.463   9.918  22.647  0.00  0.00    +0.000 NA
ATOM      9  N   UNL     1      -0.098  10.732  21.692  0.00  0.00    +0.000 NA
ATOM     10  C   UNL     1       0.264  10.293  20.511  0.00  0.00    +0.000 A 
ATOM     11  H   UNL     1       2.607   7.153  20.888  0.00  0.00    +0.000 HD
ENDROOT
BRANCH   1  13
ATOM     12  C   UNL     1      -0.060  13.181  18.901  0.00  0.00    +0.000 C 
ATOM     13  N   UNL     1      -0.739  11.880  18.888  0.00  0.00    +0.000 N 
BRANCH  13  14
ATOM     14  C   UNL     1      -2.151  11.917  18.760  0.00  0.00    +0.000 A 
ATOM     15  C   UNL     1      -2.967  12.428  19.790  0.00  0.00    +0.000 A 
ATOM     16  C   UNL     1      -4.363  12.445  19.687  0.00  0.00    +0.000 A 
ATOM     17  C   UNL     1      -4.981  11.957  18.543  0.00  0.00    +0.000 A 
ATOM     18  C   UNL     1      -4.202  11.462  17.502  0.00  0.00    +0.000 A 
ATOM     19  C   UNL     1      -2.803  11.452  17.607  0.00  0.00    +0.000 A 
ENDBRANCH  13  14
ENDBRANCH   1  13
BRANCH   5  20
ATOM     20  C   UNL     1       2.672   6.328  19.008  0.00  0.00    +0.000 C 
BRANCH  20  21
ATOM     21  C   UNL     1       2.622   4.972  19.686  0.00  0.00    +0.000 A 
ATOM     22  C   UNL     1       1.497   4.669  20.476  0.00  0.00    +0.000 A 
ATOM     23  F   UNL     1       0.729   5.667  20.935  0.00  0.00    +0.000 F 
ATOM     24  C   UNL     1       1.080   3.352  20.721  0.00  0.00    +0.000 A 
ATOM     25  C   UNL     1       1.704   2.301  20.056  0.00  0.00    +0.000 A 
ATOM     26  C   UNL     1       2.815   2.616  19.304  0.00  0.00    +0.000 A 
ATOM     27  C   UNL     1       3.384   3.891  19.277  0.00  0.00    +0.000 A 
ATOM     28  C   UNL     1       4.672   3.743  18.553  0.00  0.00    +0.000 C 
ATOM     29  C   UNL     1       4.149   2.734  17.554  0.00  0.00    +0.000 C 
ATOM     30  O   UNL     1       3.384   1.785  18.356  0.00  0.00    +0.000 OA
ENDBRANCH  20  21
ENDBRANCH   5  20
TORSDOF 4
ENDMDL
MODEL 6
REMARK VINA RESULT:      -8.5      3.466      8.874
REMARK  Name = 
REMARK  5 active torsions:
REMARK  status: ('A' for Active; 'I' for Inactive)
REMARK    1  A    between atoms: C_1  and  N_2
REMARK    2  A    between atoms: N_2  and  C_3
REMARK    3  A    between atoms: N_2  and  C_9
REMARK    4  A    between atoms: N_13  and  C_14
REMARK    5  A    between atoms: C_14  and  C_15
REMARK                            x       y       z     vdW  Elec       q    Type
REMARK                         _______ _______ _______ _____ _____    ______ ____
ROOT
ATOM      1  C   UNL     1      -0.561  11.022  19.801  0.00  0.00    +0.000 A 
ATOM      2  C   UNL     1       0.043  10.358  18.792  0.00  0.00    +0.000 A 
ATOM      3  N   UNL     1       0.922   9.290  18.918  0.00  0.00    +0.000 NA
ATOM      4  C   UNL     1       1.237   8.874  20.111  0.00  0.00    +0.000 A 
ATOM      5  N   UNL     1       2.133   7.844  20.354  0.00  0.00    +0.000 N 
ATOM      6  N   UNL     1       0.632   9.496  21.214  0.00  0.00    +0.000 N 
ATOM      7  C   UNL     1       0.729   9.231  22.542  0.00  0.00    +0.000 A 
ATOM      8  N   UNL     1      -0.026  10.065  23.220  0.00  0.00    +0.000 NA
ATOM      9  N   UNL     1      -0.634  10.900  22.314  0.00  0.00    +0.000 NA
ATOM     10  C   UNL     1      -0.260  10.544  21.109  0.00  0.00    +0.000 A 
ATOM     11  H   UNL     1       2.239   7.509  21.304  0.00  0.00    +0.000 HD
ENDROOT
BRANCH   1  13
ATOM     12  C   UNL     1      -0.789  13.494  19.833  0.00  0.00    +0.000 C 
ATOM     13  N   UNL     1      -1.354  12.163  19.579  0.00  0.00    +0.000 N 
BRANCH  13  14
ATOM     14  C   UNL     1      -2.742  12.121  19.296  0.00  0.00    +0.000 A 
ATOM     15  C   UNL     1      -3.233  11.510  18.125  0.00  0.00    +0.000 A 
ATOM     16  C   UNL     1      -4.599  11.485  17.820  0.00  0.00    +0.000 A 
ATOM     17  C   UNL     1      -5.515  12.066  18.689  0.00  0.00    +0.000 A 
ATOM     18  C   UNL     1      -5.063  12.662  19.862  0.00  0.00    +0.000 A 
ATOM     19  C   UNL     1      -3.694  12.679  20.165  0.00  0.00    +0.000 A 
ENDBRANCH  13  14
ENDBRANCH   1  13
BRANCH   5  20
ATOM     20  C   UNL     1       2.331   6.791  19.382  0.00  0.00    +0.000 C 
BRANCH  20  21
ATOM     21  C   UNL     1       2.749   5.467  19.993  0.00  0.00    +0.000 A 
ATOM     22  C   UNL     1       1.738   4.610  20.468  0.00  0.00    +0.000 A 
ATOM     23  F   UNL     1       0.526   5.113  20.742  0.00  0.00    +0.000 F 
ATOM     24  C   UNL     1       1.913   3.222  20.569  0.00  0.00    +0.000 A 
ATOM     25  C   UNL     1       3.068   2.638  20.058  0.00  0.00    +0.000 A 
ATOM     26  C   UNL     1       4.053   3.495  19.617  0.00  0.00    +0.000 A 
ATOM     27  C   UNL     1       3.982   4.881  19.764  0.00  0.00    +0.000 A 
ATOM     28  C   UNL     1       5.322   5.397  19.385  0.00  0.00    +0.000 C 
ATOM     29  C   UNL     1       5.534   4.404  18.262  0.00  0.00    +0.000 C 
ATOM     30  O   UNL     1       5.122   3.121  18.823  0.00  0.00    +0.000 OA
ENDBRANCH  20  21
ENDBRANCH   5  20
TORSDOF 4
ENDMDL
MODEL 7
REMARK VINA RESULT:      -8.3      3.433      8.106
REMARK  Name = 
REMARK  5 active torsions:
REMARK  status: ('A' for Active; 'I' for Inactive)
REMARK    1  A    between atoms: C_1  and  N_2
REMARK    2  A    between atoms: N_2  and  C_3
REMARK    3  A    between atoms: N_2  and  C_9
REMARK    4  A    between atoms: N_13  and  C_14
REMARK    5  A    between atoms: C_14  and  C_15
REMARK                            x       y       z     vdW  Elec       q    Type
REMARK                         _______ _______ _______ _____ _____    ______ ____
ROOT
ATOM      1  C   UNL     1       0.701  10.988  19.504  0.00  0.00    +0.000 A 
ATOM      2  C   UNL     1       1.145  10.025  18.668  0.00  0.00    +0.000 A 
ATOM      3  N   UNL     1       1.509   8.731  19.021  0.00  0.00    +0.000 NA
ATOM      4  C   UNL     1       1.453   8.384  20.275  0.00  0.00    +0.000 A 
ATOM      5  N   UNL     1       1.831   7.135  20.744  0.00  0.00    +0.000 N 
ATOM      6  N   UNL     1       0.978   9.321  21.205  0.00  0.00    +0.000 N 
ATOM      7  C   UNL     1       0.762   9.211  22.541  0.00  0.00    +0.000 A 
ATOM      8  N   UNL     1       0.296  10.345  23.013  0.00  0.00    +0.000 NA
ATOM      9  N   UNL     1       0.206  11.223  21.960  0.00  0.00    +0.000 NA
ATOM     10  C   UNL     1       0.590  10.603  20.871  0.00  0.00    +0.000 A 
ATOM     11  H   UNL     1       1.653   6.908  21.714  0.00  0.00    +0.000 HD
ENDROOT
BRANCH   1  13
ATOM     12  C   UNL     1      -0.804  12.616  18.386  0.00  0.00    +0.000 C 
ATOM     13  N   UNL     1       0.457  12.304  19.069  0.00  0.00    +0.000 N 
BRANCH  13  14
ATOM     14  C   UNL     1       1.431  13.334  19.078  0.00  0.00    +0.000 A 
ATOM     15  C   UNL     1       1.288  14.471  19.898  0.00  0.00    +0.000 A 
ATOM     16  C   UNL     1       2.228  15.508  19.897  0.00  0.00    +0.000 A 
ATOM     17  C   UNL     1       3.346  15.430  19.075  0.00  0.00    +0.000 A 
ATOM     18  C   UNL     1       3.524  14.312  18.265  0.00  0.00    +0.000 A 
ATOM     19  C   UNL     1       2.582  13.273  18.275  0.00  0.00    +0.000 A 
ENDBRANCH  13  14
ENDBRANCH   1  13
BRANCH   5  20
ATOM     20  C   UNL     1       1.749   5.969  19.891  0.00  0.00    +0.000 C 
BRANCH  20  21
ATOM     21  C   UNL     1       2.879   4.979  20.101  0.00  0.00    +0.000 A 
ATOM     22  C   UNL     1       2.601   3.803  20.824  0.00  0.00    +0.000 A 
ATOM     23  F   UNL     1       1.528   3.764  21.626  0.00  0.00    +0.000 F 
ATOM     24  C   UNL     1       3.346   2.625  20.661  0.00  0.00    +0.000 A 
ATOM     25  C   UNL     1       4.306   2.554  19.657  0.00  0.00    +0.000 A 
ATOM     26  C   UNL     1       4.576   3.721  18.976  0.00  0.00    +0.000 A 
ATOM     27  C   UNL     1       4.022   4.955  19.321  0.00  0.00    +0.000 A 
ATOM     28  C   UNL     1       4.745   5.964  18.507  0.00  0.00    +0.000 C 
ATOM     29  C   UNL     1       4.847   5.093  17.273  0.00  0.00    +0.000 C 
ATOM     30  O   UNL     1       5.264   3.789  17.777  0.00  0.00    +0.000 OA
ENDBRANCH  20  21
ENDBRANCH   5  20
TORSDOF 4
ENDMDL
MODEL 8
REMARK VINA RESULT:      -8.3      3.272      9.104
REMARK  Name = 
REMARK  5 active torsions:
REMARK  status: ('A' for Active; 'I' for Inactive)
REMARK    1  A    between atoms: C_1  and  N_2
REMARK    2  A    between atoms: N_2  and  C_3
REMARK    3  A    between atoms: N_2  and  C_9
REMARK    4  A    between atoms: N_13  and  C_14
REMARK    5  A    between atoms: C_14  and  C_15
REMARK                            x       y       z     vdW  Elec       q    Type
REMARK                         _______ _______ _______ _____ _____    ______ ____
ROOT
ATOM      1  C   UNL     1      -0.391  11.338  20.161  0.00  0.00    +0.000 A 
ATOM      2  C   UNL     1      -0.052  10.881  18.936  0.00  0.00    +0.000 A 
ATOM      3  N   UNL     1       0.755   9.783  18.661  0.00  0.00    +0.000 NA
ATOM      4  C   UNL     1       1.272   9.121  19.656  0.00  0.00    +0.000 A 
ATOM      5  N   UNL     1       2.122   8.036  19.497  0.00  0.00    +0.000 N 
ATOM      6  N   UNL     1       0.948   9.518  20.962  0.00  0.00    +0.000 N 
ATOM      7  C   UNL     1       1.290   8.981  22.161  0.00  0.00    +0.000 A 
ATOM      8  N   UNL     1       0.748   9.679  23.133  0.00  0.00    +0.000 NA
ATOM      9  N   UNL     1       0.033  10.701  22.558  0.00  0.00    +0.000 NA
ATOM     10  C   UNL     1       0.131  10.591  21.255  0.00  0.00    +0.000 A 
ATOM     11  H   UNL     1       2.392   7.509  20.318  0.00  0.00    +0.000 HD
ENDROOT
BRANCH   1  13
ATOM     12  C   UNL     1      -0.418  13.805  20.443  0.00  0.00    +0.000 C 
ATOM     13  N   UNL     1      -1.127  12.524  20.340  0.00  0.00    +0.000 N 
BRANCH  13  14
ATOM     14  C   UNL     1      -2.518  12.560  20.614  0.00  0.00    +0.000 A 
ATOM     15  C   UNL     1      -3.002  12.775  21.920  0.00  0.00    +0.000 A 
ATOM     16  C   UNL     1      -4.371  12.786  22.209  0.00  0.00    +0.000 A 
ATOM     17  C   UNL     1      -5.297  12.588  21.192  0.00  0.00    +0.000 A 
ATOM     18  C   UNL     1      -4.851  12.390  19.889  0.00  0.00    +0.000 A 
ATOM     19  C   UNL     1      -3.478  12.386  19.604  0.00  0.00    +0.000 A 
ENDBRANCH  13  14
ENDBRANCH   1  13
BRANCH   5  20
ATOM     20  C   UNL     1       2.044   7.202  18.317  0.00  0.00    +0.000 C 
BRANCH  20  21
ATOM     21  C   UNL     1       2.917   5.964  18.387  0.00  0.00    +0.000 A 
ATOM     22  C   UNL     1       2.320   4.756  18.795  0.00  0.00    +0.000 A 
ATOM     23  F   UNL     1       1.166   4.792  19.476  0.00  0.00    +0.000 F 
ATOM     24  C   UNL     1       2.829   3.501  18.428  0.00  0.00    +0.000 A 
ATOM     25  C   UNL     1       3.878   3.428  17.517  0.00  0.00    +0.000 A 
ATOM     26  C   UNL     1       4.461   4.619  17.146  0.00  0.00    +0.000 A 
ATOM     27  C   UNL     1       4.124   5.847  17.718  0.00  0.00    +0.000 A 
ATOM     28  C   UNL     1       5.132   6.817  17.220  0.00  0.00    +0.000 C 
ATOM     29  C   UNL     1       5.217   6.219  15.832  0.00  0.00    +0.000 C 
ATOM     30  O   UNL     1       5.298   4.779  16.056  0.00  0.00    +0.000 OA
ENDBRANCH  20  21
ENDBRANCH   5  20
TORSDOF 4
ENDMDL
MODEL 9
REMARK VINA RESULT:      -8.3      3.669      8.139
REMARK  Name = 
REMARK  5 active torsions:
REMARK  status: ('A' for Active; 'I' for Inactive)
REMARK    1  A    between atoms: C_1  and  N_2
REMARK    2  A    between atoms: N_2  and  C_3
REMARK    3  A    between atoms: N_2  and  C_9
REMARK    4  A    between atoms: N_13  and  C_14
REMARK    5  A    between atoms: C_14  and  C_15
REMARK                            x       y       z     vdW  Elec       q    Type
REMARK                         _______ _______ _______ _____ _____    ______ ____
ROOT
ATOM      1  C   UNL     1       1.230  10.600  18.989  0.00  0.00    +0.000 A 
ATOM      2  C   UNL     1       1.843   9.989  17.953  0.00  0.00    +0.000 A 
ATOM      3  N   UNL     1       2.276   8.669  17.914  0.00  0.00    +0.000 NA
ATOM      4  C   UNL     1       2.112   7.924  18.970  0.00  0.00    +0.000 A 
ATOM      5  N   UNL     1       2.541   6.608  19.055  0.00  0.00    +0.000 N 
ATOM      6  N   UNL     1       1.459   8.478  20.081  0.00  0.00    +0.000 N 
ATOM      7  C   UNL     1       1.108   7.923  21.269  0.00  0.00    +0.000 A 
ATOM      8  N   UNL     1       0.499   8.814  22.017  0.00  0.00    +0.000 NA
ATOM      9  N   UNL     1       0.450   9.987  21.302  0.00  0.00    +0.000 NA
ATOM     10  C   UNL     1       1.003   9.780  20.132  0.00  0.00    +0.000 A 
ATOM     11  H   UNL     1       2.278   6.065  19.869  0.00  0.00    +0.000 HD
ENDROOT
BRANCH   1  13
ATOM     12  C   UNL     1      -0.415  12.410  18.562  0.00  0.00    +0.000 C 
ATOM     13  N   UNL     1       0.924  11.974  18.974  0.00  0.00    +0.000 N 
BRANCH  13  14
ATOM     14  C   UNL     1       1.884  13.001  19.156  0.00  0.00    +0.000 A 
ATOM     15  C   UNL     1       2.305  13.391  20.443  0.00  0.00    +0.000 A 
ATOM     16  C   UNL     1       3.232  14.422  20.638  0.00  0.00    +0.000 A 
ATOM     17  C   UNL     1       3.771  15.087  19.543  0.00  0.00    +0.000 A 
ATOM     18  C   UNL     1       3.388  14.713  18.259  0.00  0.00    +0.000 A 
ATOM     19  C   UNL     1       2.463  13.676  18.069  0.00  0.00    +0.000 A 
ENDBRANCH  13  14
ENDBRANCH   1  13
BRANCH   5  20
ATOM     20  C   UNL     1       2.654   5.788  17.869  0.00  0.00    +0.000 C 
BRANCH  20  21
ATOM     21  C   UNL     1       2.572   4.299  18.146  0.00  0.00    +0.000 A 
ATOM     22  C   UNL     1       3.381   3.439  17.380  0.00  0.00    +0.000 A 
ATOM     23  F   UNL     1       3.869   3.868  16.207  0.00  0.00    +0.000 F 
ATOM     24  C   UNL     1       3.787   2.177  17.840  0.00  0.00    +0.000 A 
ATOM     25  C   UNL     1       3.508   1.804  19.151  0.00  0.00    +0.000 A 
ATOM     26  C   UNL     1       2.699   2.649  19.877  0.00  0.00    +0.000 A 
ATOM     27  C   UNL     1       2.078   3.773  19.328  0.00  0.00    +0.000 A 
ATOM     28  C   UNL     1       1.128   4.256  20.362  0.00  0.00    +0.000 C 
ATOM     29  C   UNL     1       2.035   3.943  21.533  0.00  0.00    +0.000 C 
ATOM     30  O   UNL     1       2.551   2.607  21.252  0.00  0.00    +0.000 OA
ENDBRANCH  20  21
ENDBRANCH   5  20
TORSDOF 4
ENDMDL
