MODEL 1
REMARK VINA RESULT:      -7.9      0.000      0.000
REMARK  Name = 
REMARK  10 active torsions:
REMARK  status: ('A' for Active; 'I' for Inactive)
REMARK    1  A    between atoms: C_1  and  C_2
REMARK    2  A    between atoms: C_4  and  C_5
REMARK    3  A    between atoms: C_5  and  C_6
REMARK    4  A    between atoms: C_6  and  C_7
REMARK    5  A    between atoms: C_7  and  C_8
REMARK    6  A    between atoms: C_8  and  C_9
REMARK    7  A    between atoms: C_9  and  O_10
REMARK    8  A    between atoms: O_10  and  C_11
REMARK    9  A    between atoms: C_14  and  C_15
REMARK   10  A    between atoms: C_21  and  C_22
REMARK                            x       y       z     vdW  Elec       q    Type
REMARK                         _______ _______ _______ _____ _____    ______ ____
ROOT
ATOM      1  C   UNL     1       6.149   5.560  17.562  0.00  0.00    +0.000 A 
ATOM      2  C   UNL     1       5.633   5.620  18.864  0.00  0.00    +0.000 A 
ATOM      3  C   UNL     1       4.485   4.917  19.216  0.00  0.00    +0.000 A 
ATOM      4  C   UNL     1       3.817   4.156  18.263  0.00  0.00    +0.000 A 
ATOM      5  C   UNL     1       4.304   4.108  16.953  0.00  0.00    +0.000 A 
ATOM      6  C   UNL     1       5.470   4.818  16.583  0.00  0.00    +0.000 A 
ENDROOT
BRANCH   4   7
ATOM      7  C   UNL     1       2.597   3.451  18.680  0.00  0.00    +0.000 C 
ATOM      8  N   UNL     1       1.591   3.173  17.911  0.00  0.00    +0.000 NA
ATOM      9  C   UNL     1       0.649   2.489  18.797  0.00  0.00    +0.000 C 
ATOM     10  C   UNL     1       1.380   2.316  20.110  0.00  0.00    +0.000 C 
ATOM     11  O   UNL     1       2.570   3.075  19.977  0.00  0.00    +0.000 OA
ENDBRANCH   4   7
BRANCH   6  12
ATOM     12  C   UNL     1       5.924   4.710  15.145  0.00  0.00    +0.000 C 
ATOM     13  F   UNL     1       5.207   3.879  14.345  0.00  0.00    +0.000 F 
ATOM     14  F   UNL     1       5.907   5.925  14.520  0.00  0.00    +0.000 F 
ATOM     15  F   UNL     1       7.216   4.281  15.053  0.00  0.00    +0.000 F 
ENDBRANCH   6  12
BRANCH   1  16
ATOM     16  O   UNL     1       7.277   6.246  17.194  0.00  0.00    +0.000 OA
BRANCH  16  17
ATOM     17  C   UNL     1       7.852   7.061  18.221  0.00  0.00    +0.000 C 
BRANCH  17  18
ATOM     18  C   UNL     1       7.932   8.500  17.738  0.00  0.00    +0.000 C 
BRANCH  18  19
ATOM     19  C   UNL     1       8.731   9.356  18.720  0.00  0.00    +0.000 C 
BRANCH  19  20
ATOM     20  C   UNL     1       8.883  10.776  18.192  0.00  0.00    +0.000 C 
BRANCH  20  21
ATOM     21  C   UNL     1      10.342  11.137  17.915  0.00  0.00    +0.000 C 
BRANCH  21  25
ATOM     22  C   UNL     1      10.099  16.217  17.534  0.00  0.00    +0.000 C 
ATOM     23  C   UNL     1      10.437  14.778  17.468  0.00  0.00    +0.000 A 
ATOM     24  C   UNL     1       9.700  13.682  17.967  0.00  0.00    +0.000 A 
ATOM     25  C   UNL     1      10.469  12.588  17.654  0.00  0.00    +0.000 A 
ATOM     26  O   UNL     1      11.591  12.999  17.004  0.00  0.00    +0.000 OA
ATOM     27  N   UNL     1      11.573  14.378  16.884  0.00  0.00    +0.000 NA
ENDBRANCH  21  25
ENDBRANCH  20  21
ENDBRANCH  19  20
ENDBRANCH  18  19
ENDBRANCH  17  18
ENDBRANCH  16  17
ENDBRANCH   1  16
TORSDOF 9
ENDMDL
MODEL 2
REMARK VINA RESULT:      -7.9      1.437      1.629
REMARK  Name = 
REMARK  10 active torsions:
REMARK  status: ('A' for Active; 'I' for Inactive)
REMARK    1  A    between atoms: C_1  and  C_2
REMARK    2  A    between atoms: C_4  and  C_5
REMARK    3  A    between atoms: C_5  and  C_6
REMARK    4  A    between atoms: C_6  and  C_7
REMARK    5  A    between atoms: C_7  and  C_8
REMARK    6  A    between atoms: C_8  and  C_9
REMARK    7  A    between atoms: C_9  and  O_10
REMARK    8  A    between atoms: O_10  and  C_11
REMARK    9  A    between atoms: C_14  and  C_15
REMARK   10  A    between atoms: C_21  and  C_22
REMARK                            x       y       z     vdW  Elec       q    Type
REMARK                         _______ _______ _______ _____ _____    ______ ____
ROOT
ATOM      1  C   UNL     1       5.415   6.381  17.078  0.00  0.00    +0.000 A 
ATOM      2  C   UNL     1       4.418   6.832  17.955  0.00  0.00    +0.000 A 
ATOM      3  C   UNL     1       3.405   5.983  18.389  0.00  0.00    +0.000 A 
ATOM      4  C   UNL     1       3.357   4.669  17.936  0.00  0.00    +0.000 A 
ATOM      5  C   UNL     1       4.329   4.212  17.039  0.00  0.00    +0.000 A 
ATOM      6  C   UNL     1       5.364   5.066  16.590  0.00  0.00    +0.000 A 
ENDROOT
BRANCH   4   7
ATOM      7  C   UNL     1       2.254   3.820  18.407  0.00  0.00    +0.000 C 
ATOM      8  N   UNL     1       1.842   2.736  17.829  0.00  0.00    +0.000 NA
ATOM      9  C   UNL     1       0.735   2.285  18.673  0.00  0.00    +0.000 C 
ATOM     10  C   UNL     1       0.729   3.216  19.865  0.00  0.00    +0.000 C 
ATOM     11  O   UNL     1       1.655   4.241  19.542  0.00  0.00    +0.000 OA
ENDBRANCH   4   7
BRANCH   6  12
ATOM     12  C   UNL     1       6.370   4.489  15.621  0.00  0.00    +0.000 C 
ATOM     13  F   UNL     1       7.666   4.485  16.024  0.00  0.00    +0.000 F 
ATOM     14  F   UNL     1       6.079   3.190  15.309  0.00  0.00    +0.000 F 
ATOM     15  F   UNL     1       6.360   5.151  14.428  0.00  0.00    +0.000 F 
ENDBRANCH   6  12
BRANCH   1  16
ATOM     16  O   UNL     1       6.421   7.201  16.636  0.00  0.00    +0.000 OA
BRANCH  16  17
ATOM     17  C   UNL     1       7.531   7.332  17.529  0.00  0.00    +0.000 C 
BRANCH  17  18
ATOM     18  C   UNL     1       8.113   8.731  17.410  0.00  0.00    +0.000 C 
BRANCH  18  19
ATOM     19  C   UNL     1       8.669   9.202  18.754  0.00  0.00    +0.000 C 
BRANCH  19  20
ATOM     20  C   UNL     1       9.166  10.638  18.654  0.00  0.00    +0.000 C 
BRANCH  20  21
ATOM     21  C   UNL     1      10.068  11.020  19.827  0.00  0.00    +0.000 C 
BRANCH  21  25
ATOM     22  C   UNL     1      12.325  15.592  19.756  0.00  0.00    +0.000 C 
ATOM     23  C   UNL     1      11.733  14.270  19.461  0.00  0.00    +0.000 A 
ATOM     24  C   UNL     1      11.050  13.400  20.339  0.00  0.00    +0.000 A 
ATOM     25  C   UNL     1      10.731  12.315  19.560  0.00  0.00    +0.000 A 
ATOM     26  O   UNL     1      11.186  12.522  18.295  0.00  0.00    +0.000 OA
ATOM     27  N   UNL     1      11.816  13.753  18.228  0.00  0.00    +0.000 NA
ENDBRANCH  21  25
ENDBRANCH  20  21
ENDBRANCH  19  20
ENDBRANCH  18  19
ENDBRANCH  17  18
ENDBRANCH  16  17
ENDBRANCH   1  16
TORSDOF 9
ENDMDL
MODEL 3
REMARK VINA RESULT:      -7.8      1.067      1.229
REMARK  Name = 
REMARK  10 active torsions:
REMARK  status: ('A' for Active; 'I' for Inactive)
REMARK    1  A    between atoms: C_1  and  C_2
REMARK    2  A    between atoms: C_4  and  C_5
REMARK    3  A    between atoms: C_5  and  C_6
REMARK    4  A    between atoms: C_6  and  C_7
REMARK    5  A    between atoms: C_7  and  C_8
REMARK    6  A    between atoms: C_8  and  C_9
REMARK    7  A    between atoms: C_9  and  O_10
REMARK    8  A    between atoms: O_10  and  C_11
REMARK    9  A    between atoms: C_14  and  C_15
REMARK   10  A    between atoms: C_21  and  C_22
REMARK                            x       y       z     vdW  Elec       q    Type
REMARK                         _______ _______ _______ _____ _____    ______ ____
ROOT
ATOM      1  C   UNL     1       5.782   6.189  17.109  0.00  0.00    +0.000 A 
ATOM      2  C   UNL     1       4.923   6.570  18.150  0.00  0.00    +0.000 A 
ATOM      3  C   UNL     1       3.908   5.725  18.588  0.00  0.00    +0.000 A 
ATOM      4  C   UNL     1       3.718   4.490  17.977  0.00  0.00    +0.000 A 
ATOM      5  C   UNL     1       4.550   4.109  16.919  0.00  0.00    +0.000 A 
ATOM      6  C   UNL     1       5.586   4.958  16.465  0.00  0.00    +0.000 A 
ENDROOT
BRANCH   4   7
ATOM      7  C   UNL     1       2.618   3.646  18.462  0.00  0.00    +0.000 C 
ATOM      8  N   UNL     1       1.684   3.133  17.724  0.00  0.00    +0.000 NA
ATOM      9  C   UNL     1       0.845   2.402  18.674  0.00  0.00    +0.000 C 
ATOM     10  C   UNL     1       1.568   2.484  20.000  0.00  0.00    +0.000 C 
ATOM     11  O   UNL     1       2.626   3.407  19.791  0.00  0.00    +0.000 OA
ENDBRANCH   4   7
BRANCH   6  12
ATOM     12  C   UNL     1       6.436   4.466  15.316  0.00  0.00    +0.000 C 
ATOM     13  F   UNL     1       6.404   5.206  14.178  0.00  0.00    +0.000 F 
ATOM     14  F   UNL     1       7.754   4.385  15.665  0.00  0.00    +0.000 F 
ATOM     15  F   UNL     1       6.090   3.201  14.938  0.00  0.00    +0.000 F 
ENDBRANCH   6  12
BRANCH   1  16
ATOM     16  O   UNL     1       6.787   7.007  16.661  0.00  0.00    +0.000 OA
BRANCH  16  17
ATOM     17  C   UNL     1       7.683   7.477  17.674  0.00  0.00    +0.000 C 
BRANCH  17  18
ATOM     18  C   UNL     1       7.679   8.997  17.686  0.00  0.00    +0.000 C 
BRANCH  18  19
ATOM     19  C   UNL     1       8.788   9.533  18.591  0.00  0.00    +0.000 C 
BRANCH  19  20
ATOM     20  C   UNL     1       9.449  10.752  17.962  0.00  0.00    +0.000 C 
BRANCH  20  21
ATOM     21  C   UNL     1      10.431  11.433  18.915  0.00  0.00    +0.000 C 
BRANCH  21  25
ATOM     22  C   UNL     1      11.170  16.033  16.841  0.00  0.00    +0.000 C 
ATOM     23  C   UNL     1      10.882  14.868  17.707  0.00  0.00    +0.000 A 
ATOM     24  C   UNL     1      11.016  13.496  17.401  0.00  0.00    +0.000 A 
ATOM     25  C   UNL     1      10.602  12.854  18.543  0.00  0.00    +0.000 A 
ATOM     26  O   UNL     1      10.250  13.780  19.476  0.00  0.00    +0.000 OA
ATOM     27  N   UNL     1      10.427  15.049  18.953  0.00  0.00    +0.000 NA
ENDBRANCH  21  25
ENDBRANCH  20  21
ENDBRANCH  19  20
ENDBRANCH  18  19
ENDBRANCH  17  18
ENDBRANCH  16  17
ENDBRANCH   1  16
TORSDOF 9
ENDMDL
MODEL 4
REMARK VINA RESULT:      -7.7      1.084      1.357
REMARK  Name = 
REMARK  10 active torsions:
REMARK  status: ('A' for Active; 'I' for Inactive)
REMARK    1  A    between atoms: C_1  and  C_2
REMARK    2  A    between atoms: C_4  and  C_5
REMARK    3  A    between atoms: C_5  and  C_6
REMARK    4  A    between atoms: C_6  and  C_7
REMARK    5  A    between atoms: C_7  and  C_8
REMARK    6  A    between atoms: C_8  and  C_9
REMARK    7  A    between atoms: C_9  and  O_10
REMARK    8  A    between atoms: O_10  and  C_11
REMARK    9  A    between atoms: C_14  and  C_15
REMARK   10  A    between atoms: C_21  and  C_22
REMARK                            x       y       z     vdW  Elec       q    Type
REMARK                         _______ _______ _______ _____ _____    ______ ____
ROOT
ATOM      1  C   UNL     1       5.537   6.307  16.996  0.00  0.00    +0.000 A 
ATOM      2  C   UNL     1       4.569   6.629  17.958  0.00  0.00    +0.000 A 
ATOM      3  C   UNL     1       3.634   5.689  18.379  0.00  0.00    +0.000 A 
ATOM      4  C   UNL     1       3.634   4.412  17.827  0.00  0.00    +0.000 A 
ATOM      5  C   UNL     1       4.577   4.085  16.846  0.00  0.00    +0.000 A 
ATOM      6  C   UNL     1       5.534   5.032  16.411  0.00  0.00    +0.000 A 
ENDROOT
BRANCH   4   7
ATOM      7  C   UNL     1       2.611   3.464  18.289  0.00  0.00    +0.000 C 
ATOM      8  N   UNL     1       2.847   2.306  18.821  0.00  0.00    +0.000 NA
ATOM      9  C   UNL     1       1.515   1.763  19.088  0.00  0.00    +0.000 C 
ATOM     10  C   UNL     1       0.549   2.877  18.753  0.00  0.00    +0.000 C 
ATOM     11  O   UNL     1       1.336   3.879  18.130  0.00  0.00    +0.000 OA
ENDBRANCH   4   7
BRANCH   6  12
ATOM     12  C   UNL     1       6.513   4.592  15.346  0.00  0.00    +0.000 C 
ATOM     13  F   UNL     1       7.818   4.530  15.713  0.00  0.00    +0.000 F 
ATOM     14  F   UNL     1       6.207   3.349  14.866  0.00  0.00    +0.000 F 
ATOM     15  F   UNL     1       6.478   5.413  14.257  0.00  0.00    +0.000 F 
ENDBRANCH   6  12
BRANCH   1  16
ATOM     16  O   UNL     1       6.467   7.218  16.566  0.00  0.00    +0.000 OA
BRANCH  16  17
ATOM     17  C   UNL     1       7.589   7.395  17.437  0.00  0.00    +0.000 C 
BRANCH  17  18
ATOM     18  C   UNL     1       7.852   8.880  17.627  0.00  0.00    +0.000 C 
BRANCH  18  19
ATOM     19  C   UNL     1       8.828   9.113  18.780  0.00  0.00    +0.000 C 
BRANCH  19  20
ATOM     20  C   UNL     1       9.094  10.601  18.964  0.00  0.00    +0.000 C 
BRANCH  20  21
ATOM     21  C   UNL     1      10.030  11.158  17.892  0.00  0.00    +0.000 C 
BRANCH  21  25
ATOM     22  C   UNL     1       9.674  16.229  18.287  0.00  0.00    +0.000 C 
ATOM     23  C   UNL     1      10.084  14.808  18.257  0.00  0.00    +0.000 A 
ATOM     24  C   UNL     1       9.321  13.685  17.870  0.00  0.00    +0.000 A 
ATOM     25  C   UNL     1      10.172  12.622  18.047  0.00  0.00    +0.000 A 
ATOM     26  O   UNL     1      11.369  13.077  18.504  0.00  0.00    +0.000 OA
ATOM     27  N   UNL     1      11.318  14.454  18.636  0.00  0.00    +0.000 NA
ENDBRANCH  21  25
ENDBRANCH  20  21
ENDBRANCH  19  20
ENDBRANCH  18  19
ENDBRANCH  17  18
ENDBRANCH  16  17
ENDBRANCH   1  16
TORSDOF 9
ENDMDL
MODEL 5
REMARK VINA RESULT:      -7.7      5.698      7.846
REMARK  Name = 
REMARK  10 active torsions:
REMARK  status: ('A' for Active; 'I' for Inactive)
REMARK    1  A    between atoms: C_1  and  C_2
REMARK    2  A    between atoms: C_4  and  C_5
REMARK    3  A    between atoms: C_5  and  C_6
REMARK    4  A    between atoms: C_6  and  C_7
REMARK    5  A    between atoms: C_7  and  C_8
REMARK    6  A    between atoms: C_8  and  C_9
REMARK    7  A    between atoms: C_9  and  O_10
REMARK    8  A    between atoms: O_10  and  C_11
REMARK    9  A    between atoms: C_14  and  C_15
REMARK   10  A    between atoms: C_21  and  C_22
REMARK                            x       y       z     vdW  Elec       q    Type
REMARK                         _______ _______ _______ _____ _____    ______ ____
ROOT
ATOM      1  C   UNL     1       4.428   5.287  18.162  0.00  0.00    +0.000 A 
ATOM      2  C   UNL     1       5.168   6.293  17.526  0.00  0.00    +0.000 A 
ATOM      3  C   UNL     1       5.783   6.067  16.299  0.00  0.00    +0.000 A 
ATOM      4  C   UNL     1       5.687   4.819  15.693  0.00  0.00    +0.000 A 
ATOM      5  C   UNL     1       4.975   3.796  16.328  0.00  0.00    +0.000 A 
ATOM      6  C   UNL     1       4.345   4.014  17.577  0.00  0.00    +0.000 A 
ENDROOT
BRANCH   4   7
ATOM      7  C   UNL     1       6.373   4.625  14.408  0.00  0.00    +0.000 C 
ATOM      8  N   UNL     1       5.971   3.846  13.453  0.00  0.00    +0.000 NA
ATOM      9  C   UNL     1       6.994   4.001  12.418  0.00  0.00    +0.000 C 
ATOM     10  C   UNL     1       7.912   5.095  12.916  0.00  0.00    +0.000 C 
ATOM     11  O   UNL     1       7.507   5.342  14.253  0.00  0.00    +0.000 OA
ENDBRANCH   4   7
BRANCH   6  12
ATOM     12  C   UNL     1       3.599   2.852  18.191  0.00  0.00    +0.000 C 
ATOM     13  F   UNL     1       2.245   2.947  18.214  0.00  0.00    +0.000 F 
ATOM     14  F   UNL     1       3.874   1.680  17.544  0.00  0.00    +0.000 F 
ATOM     15  F   UNL     1       3.972   2.640  19.486  0.00  0.00    +0.000 F 
ENDBRANCH   6  12
BRANCH   1  16
ATOM     16  O   UNL     1       3.817   5.488  19.373  0.00  0.00    +0.000 OA
BRANCH  16  17
ATOM     17  C   UNL     1       2.466   5.956  19.298  0.00  0.00    +0.000 C 
BRANCH  17  18
ATOM     18  C   UNL     1       2.456   7.476  19.334  0.00  0.00    +0.000 C 
BRANCH  18  19
ATOM     19  C   UNL     1       1.899   8.043  18.029  0.00  0.00    +0.000 C 
BRANCH  19  20
ATOM     20  C   UNL     1       1.706   9.550  18.140  0.00  0.00    +0.000 C 
BRANCH  20  21
ATOM     21  C   UNL     1       0.231   9.940  18.216  0.00  0.00    +0.000 C 
BRANCH  21  25
ATOM     22  C   UNL     1      -0.828  10.370  23.185  0.00  0.00    +0.000 C 
ATOM     23  C   UNL     1      -0.579  10.562  21.740  0.00  0.00    +0.000 A 
ATOM     24  C   UNL     1      -0.287   9.584  20.764  0.00  0.00    +0.000 A 
ATOM     25  C   UNL     1      -0.131  10.301  19.604  0.00  0.00    +0.000 A 
ATOM     26  O   UNL     1      -0.324  11.623  19.863  0.00  0.00    +0.000 OA
ATOM     27  N   UNL     1      -0.608  11.790  21.207  0.00  0.00    +0.000 NA
ENDBRANCH  21  25
ENDBRANCH  20  21
ENDBRANCH  19  20
ENDBRANCH  18  19
ENDBRANCH  17  18
ENDBRANCH  16  17
ENDBRANCH   1  16
TORSDOF 9
ENDMDL
MODEL 6
REMARK VINA RESULT:      -7.7      5.648      7.447
REMARK  Name = 
REMARK  10 active torsions:
REMARK  status: ('A' for Active; 'I' for Inactive)
REMARK    1  A    between atoms: C_1  and  C_2
REMARK    2  A    between atoms: C_4  and  C_5
REMARK    3  A    between atoms: C_5  and  C_6
REMARK    4  A    between atoms: C_6  and  C_7
REMARK    5  A    between atoms: C_7  and  C_8
REMARK    6  A    between atoms: C_8  and  C_9
REMARK    7  A    between atoms: C_9  and  O_10
REMARK    8  A    between atoms: O_10  and  C_11
REMARK    9  A    between atoms: C_14  and  C_15
REMARK   10  A    between atoms: C_21  and  C_22
REMARK                            x       y       z     vdW  Elec       q    Type
REMARK                         _______ _______ _______ _____ _____    ______ ____
ROOT
ATOM      1  C   UNL     1       2.902   4.619  18.833  0.00  0.00    +0.000 A 
ATOM      2  C   UNL     1       2.958   5.838  18.141  0.00  0.00    +0.000 A 
ATOM      3  C   UNL     1       2.492   7.014  18.719  0.00  0.00    +0.000 A 
ATOM      4  C   UNL     1       1.938   6.990  19.995  0.00  0.00    +0.000 A 
ATOM      5  C   UNL     1       1.850   5.777  20.686  0.00  0.00    +0.000 A 
ATOM      6  C   UNL     1       2.321   4.575  20.109  0.00  0.00    +0.000 A 
ENDROOT
BRANCH   4   7
ATOM      7  C   UNL     1       1.440   8.256  20.552  0.00  0.00    +0.000 C 
ATOM      8  N   UNL     1       1.321   8.526  21.813  0.00  0.00    +0.000 NA
ATOM      9  C   UNL     1       0.779   9.885  21.834  0.00  0.00    +0.000 C 
ATOM     10  C   UNL     1       0.775  10.341  20.392  0.00  0.00    +0.000 C 
ATOM     11  O   UNL     1       1.096   9.186  19.634  0.00  0.00    +0.000 OA
ENDBRANCH   4   7
BRANCH   6  12
ATOM     12  C   UNL     1       2.185   3.311  20.927  0.00  0.00    +0.000 C 
ATOM     13  F   UNL     1       1.395   2.336  20.409  0.00  0.00    +0.000 F 
ATOM     14  F   UNL     1       3.398   2.722  21.148  0.00  0.00    +0.000 F 
ATOM     15  F   UNL     1       1.682   3.565  22.171  0.00  0.00    +0.000 F 
ENDBRANCH   6  12
BRANCH   1  16
ATOM     16  O   UNL     1       3.353   3.449  18.281  0.00  0.00    +0.000 OA
BRANCH  16  17
ATOM     17  C   UNL     1       4.722   3.466  17.861  0.00  0.00    +0.000 C 
BRANCH  17  18
ATOM     18  C   UNL     1       5.483   4.510  18.661  0.00  0.00    +0.000 C 
BRANCH  18  19
ATOM     19  C   UNL     1       6.933   4.603  18.187  0.00  0.00    +0.000 C 
BRANCH  19  20
ATOM     20  C   UNL     1       7.157   5.886  17.399  0.00  0.00    +0.000 C 
BRANCH  20  21
ATOM     21  C   UNL     1       6.044   6.144  16.384  0.00  0.00    +0.000 C 
BRANCH  21  25
ATOM     22  C   UNL     1       6.042   3.158  12.251  0.00  0.00    +0.000 C 
ATOM     23  C   UNL     1       6.336   4.106  13.347  0.00  0.00    +0.000 A 
ATOM     24  C   UNL     1       5.551   4.404  14.482  0.00  0.00    +0.000 A 
ATOM     25  C   UNL     1       6.279   5.354  15.156  0.00  0.00    +0.000 A 
ATOM     26  O   UNL     1       7.429   5.605  14.475  0.00  0.00    +0.000 OA
ATOM     27  N   UNL     1       7.470   4.820  13.336  0.00  0.00    +0.000 NA
ENDBRANCH  21  25
ENDBRANCH  20  21
ENDBRANCH  19  20
ENDBRANCH  18  19
ENDBRANCH  17  18
ENDBRANCH  16  17
ENDBRANCH   1  16
TORSDOF 9
ENDMDL
MODEL 7
REMARK VINA RESULT:      -7.6      5.675      8.546
REMARK  Name = 
REMARK  10 active torsions:
REMARK  status: ('A' for Active; 'I' for Inactive)
REMARK    1  A    between atoms: C_1  and  C_2
REMARK    2  A    between atoms: C_4  and  C_5
REMARK    3  A    between atoms: C_5  and  C_6
REMARK    4  A    between atoms: C_6  and  C_7
REMARK    5  A    between atoms: C_7  and  C_8
REMARK    6  A    between atoms: C_8  and  C_9
REMARK    7  A    between atoms: C_9  and  O_10
REMARK    8  A    between atoms: O_10  and  C_11
REMARK    9  A    between atoms: C_14  and  C_15
REMARK   10  A    between atoms: C_21  and  C_22
REMARK                            x       y       z     vdW  Elec       q    Type
REMARK                         _______ _______ _______ _____ _____    ______ ____
ROOT
ATOM      1  C   UNL     1       2.042   7.060  20.216  0.00  0.00    +0.000 A 
ATOM      2  C   UNL     1       1.274   7.627  21.243  0.00  0.00    +0.000 A 
ATOM      3  C   UNL     1       0.634   8.850  21.072  0.00  0.00    +0.000 A 
ATOM      4  C   UNL     1       0.769   9.543  19.873  0.00  0.00    +0.000 A 
ATOM      5  C   UNL     1       1.555   9.004  18.849  0.00  0.00    +0.000 A 
ATOM      6  C   UNL     1       2.210   7.761  19.012  0.00  0.00    +0.000 A 
ENDROOT
BRANCH   4   7
ATOM      7  C   UNL     1       0.092  10.841  19.750  0.00  0.00    +0.000 C 
ATOM      8  N   UNL     1       0.654  11.998  19.903  0.00  0.00    +0.000 NA
ATOM      9  C   UNL     1      -0.436  12.951  19.692  0.00  0.00    +0.000 C 
ATOM     10  C   UNL     1      -1.622  12.120  19.258  0.00  0.00    +0.000 C 
ATOM     11  O   UNL     1      -1.223  10.772  19.447  0.00  0.00    +0.000 OA
ENDBRANCH   4   7
BRANCH   6  12
ATOM     12  C   UNL     1       3.039   7.255  17.853  0.00  0.00    +0.000 C 
ATOM     13  F   UNL     1       4.372   7.119  18.076  0.00  0.00    +0.000 F 
ATOM     14  F   UNL     1       2.611   6.029  17.427  0.00  0.00    +0.000 F 
ATOM     15  F   UNL     1       2.933   8.068  16.762  0.00  0.00    +0.000 F 
ENDBRANCH   6  12
BRANCH   1  16
ATOM     16  O   UNL     1       2.683   5.858  20.365  0.00  0.00    +0.000 OA
BRANCH  16  17
ATOM     17  C   UNL     1       1.929   4.851  21.050  0.00  0.00    +0.000 C 
BRANCH  17  18
ATOM     18  C   UNL     1       0.930   4.227  20.089  0.00  0.00    +0.000 C 
BRANCH  18  19
ATOM     19  C   UNL     1       1.240   2.746  19.873  0.00  0.00    +0.000 C 
BRANCH  19  20
ATOM     20  C   UNL     1       2.744   2.521  19.788  0.00  0.00    +0.000 C 
BRANCH  20  21
ATOM     21  C   UNL     1       3.237   2.449  18.343  0.00  0.00    +0.000 C 
BRANCH  21  25
ATOM     22  C   UNL     1       7.098   5.478  16.959  0.00  0.00    +0.000 C 
ATOM     23  C   UNL     1       6.121   4.608  17.649  0.00  0.00    +0.000 A 
ATOM     24  C   UNL     1       5.011   3.930  17.099  0.00  0.00    +0.000 A 
ATOM     25  C   UNL     1       4.442   3.289  18.172  0.00  0.00    +0.000 A 
ATOM     26  O   UNL     1       5.167   3.557  19.291  0.00  0.00    +0.000 OA
ATOM     27  N   UNL     1       6.226   4.387  18.965  0.00  0.00    +0.000 NA
ENDBRANCH  21  25
ENDBRANCH  20  21
ENDBRANCH  19  20
ENDBRANCH  18  19
ENDBRANCH  17  18
ENDBRANCH  16  17
ENDBRANCH   1  16
TORSDOF 9
ENDMDL
MODEL 8
REMARK VINA RESULT:      -7.6      1.205      1.269
REMARK  Name = 
REMARK  10 active torsions:
REMARK  status: ('A' for Active; 'I' for Inactive)
REMARK    1  A    between atoms: C_1  and  C_2
REMARK    2  A    between atoms: C_4  and  C_5
REMARK    3  A    between atoms: C_5  and  C_6
REMARK    4  A    between atoms: C_6  and  C_7
REMARK    5  A    between atoms: C_7  and  C_8
REMARK    6  A    between atoms: C_8  and  C_9
REMARK    7  A    between atoms: C_9  and  O_10
REMARK    8  A    between atoms: O_10  and  C_11
REMARK    9  A    between atoms: C_14  and  C_15
REMARK   10  A    between atoms: C_21  and  C_22
REMARK                            x       y       z     vdW  Elec       q    Type
REMARK                         _______ _______ _______ _____ _____    ______ ____
ROOT
ATOM      1  C   UNL     1       6.530   5.465  17.630  0.00  0.00    +0.000 A 
ATOM      2  C   UNL     1       6.072   5.427  18.955  0.00  0.00    +0.000 A 
ATOM      3  C   UNL     1       4.952   4.680  19.307  0.00  0.00    +0.000 A 
ATOM      4  C   UNL     1       4.253   3.973  18.334  0.00  0.00    +0.000 A 
ATOM      5  C   UNL     1       4.682   4.024  17.004  0.00  0.00    +0.000 A 
ATOM      6  C   UNL     1       5.819   4.779  16.633  0.00  0.00    +0.000 A 
ENDROOT
BRANCH   4   7
ATOM      7  C   UNL     1       3.065   3.218  18.755  0.00  0.00    +0.000 C 
ATOM      8  N   UNL     1       2.985   2.470  19.809  0.00  0.00    +0.000 NA
ATOM      9  C   UNL     1       1.620   1.945  19.767  0.00  0.00    +0.000 C 
ATOM     10  C   UNL     1       0.949   2.653  18.611  0.00  0.00    +0.000 C 
ATOM     11  O   UNL     1       1.990   3.352  17.947  0.00  0.00    +0.000 OA
ENDBRANCH   4   7
BRANCH   6  12
ATOM     12  C   UNL     1       6.209   4.777  15.172  0.00  0.00    +0.000 C 
ATOM     13  F   UNL     1       5.606   3.850  14.386  0.00  0.00    +0.000 F 
ATOM     14  F   UNL     1       5.951   5.982  14.582  0.00  0.00    +0.000 F 
ATOM     15  F   UNL     1       7.550   4.581  15.007  0.00  0.00    +0.000 F 
ENDBRANCH   6  12
BRANCH   1  16
ATOM     16  O   UNL     1       7.629   6.196  17.261  0.00  0.00    +0.000 OA
BRANCH  16  17
ATOM     17  C   UNL     1       7.430   7.613  17.225  0.00  0.00    +0.000 C 
BRANCH  17  18
ATOM     18  C   UNL     1       8.346   8.277  18.240  0.00  0.00    +0.000 C 
BRANCH  18  19
ATOM     19  C   UNL     1       8.339   9.795  18.062  0.00  0.00    +0.000 C 
BRANCH  19  20
ATOM     20  C   UNL     1       9.307  10.453  19.037  0.00  0.00    +0.000 C 
BRANCH  20  21
ATOM     21  C   UNL     1      10.449  11.173  18.321  0.00  0.00    +0.000 C 
BRANCH  21  25
ATOM     22  C   UNL     1       9.915  16.162  17.413  0.00  0.00    +0.000 C 
ATOM     23  C   UNL     1       9.907  14.782  17.946  0.00  0.00    +0.000 A 
ATOM     24  C   UNL     1      10.531  13.634  17.412  0.00  0.00    +0.000 A 
ATOM     25  C   UNL     1      10.191  12.629  18.284  0.00  0.00    +0.000 A 
ATOM     26  O   UNL     1       9.419  13.141  19.280  0.00  0.00    +0.000 OA
ATOM     27  N   UNL     1       9.239  14.497  19.071  0.00  0.00    +0.000 NA
ENDBRANCH  21  25
ENDBRANCH  20  21
ENDBRANCH  19  20
ENDBRANCH  18  19
ENDBRANCH  17  18
ENDBRANCH  16  17
ENDBRANCH   1  16
TORSDOF 9
ENDMDL
MODEL 9
REMARK VINA RESULT:      -7.6      5.793      7.498
REMARK  Name = 
REMARK  10 active torsions:
REMARK  status: ('A' for Active; 'I' for Inactive)
REMARK    1  A    between atoms: C_1  and  C_2
REMARK    2  A    between atoms: C_4  and  C_5
REMARK    3  A    between atoms: C_5  and  C_6
REMARK    4  A    between atoms: C_6  and  C_7
REMARK    5  A    between atoms: C_7  and  C_8
REMARK    6  A    between atoms: C_8  and  C_9
REMARK    7  A    between atoms: C_9  and  O_10
REMARK    8  A    between atoms: O_10  and  C_11
REMARK    9  A    between atoms: C_14  and  C_15
REMARK   10  A    between atoms: C_21  and  C_22
REMARK                            x       y       z     vdW  Elec       q    Type
REMARK                         _______ _______ _______ _____ _____    ______ ____
ROOT
ATOM      1  C   UNL     1       2.747   5.109  18.686  0.00  0.00    +0.000 A 
ATOM      2  C   UNL     1       2.889   6.422  18.216  0.00  0.00    +0.000 A 
ATOM      3  C   UNL     1       2.372   7.501  18.927  0.00  0.00    +0.000 A 
ATOM      4  C   UNL     1       1.681   7.283  20.115  0.00  0.00    +0.000 A 
ATOM      5  C   UNL     1       1.508   5.977  20.583  0.00  0.00    +0.000 A 
ATOM      6  C   UNL     1       2.029   4.872  19.869  0.00  0.00    +0.000 A 
ENDROOT
BRANCH   4   7
ATOM      7  C   UNL     1       1.136   8.454  20.816  0.00  0.00    +0.000 C 
ATOM      8  N   UNL     1       0.401   9.375  20.277  0.00  0.00    +0.000 NA
ATOM      9  C   UNL     1       0.136  10.303  21.378  0.00  0.00    +0.000 C 
ATOM     10  C   UNL     1       0.719   9.647  22.610  0.00  0.00    +0.000 C 
ATOM     11  O   UNL     1       1.447   8.529  22.128  0.00  0.00    +0.000 OA
ENDBRANCH   4   7
BRANCH   6  12
ATOM     12  C   UNL     1       1.794   3.496  20.448  0.00  0.00    +0.000 C 
ATOM     13  F   UNL     1       0.840   3.399  21.410  0.00  0.00    +0.000 F 
ATOM     14  F   UNL     1       1.432   2.600  19.482  0.00  0.00    +0.000 F 
ATOM     15  F   UNL     1       2.928   2.980  21.005  0.00  0.00    +0.000 F 
ENDBRANCH   6  12
BRANCH   1  16
ATOM     16  O   UNL     1       3.247   4.033  18.000  0.00  0.00    +0.000 OA
BRANCH  16  17
ATOM     17  C   UNL     1       4.579   3.652  18.359  0.00  0.00    +0.000 C 
BRANCH  17  18
ATOM     18  C   UNL     1       5.158   4.680  19.316  0.00  0.00    +0.000 C 
BRANCH  18  19
ATOM     19  C   UNL     1       6.297   5.455  18.654  0.00  0.00    +0.000 C 
BRANCH  19  20
ATOM     20  C   UNL     1       6.799   4.717  17.420  0.00  0.00    +0.000 C 
BRANCH  20  21
ATOM     21  C   UNL     1       7.159   5.672  16.282  0.00  0.00    +0.000 C 
BRANCH  21  25
ATOM     22  C   UNL     1       5.683   3.086  12.143  0.00  0.00    +0.000 C 
ATOM     23  C   UNL     1       6.341   3.948  13.148  0.00  0.00    +0.000 A 
ATOM     24  C   UNL     1       6.037   4.082  14.520  0.00  0.00    +0.000 A 
ATOM     25  C   UNL     1       6.935   5.016  14.975  0.00  0.00    +0.000 A 
ATOM     26  O   UNL     1       7.731   5.412  13.946  0.00  0.00    +0.000 OA
ATOM     27  N   UNL     1       7.361   4.740  12.794  0.00  0.00    +0.000 NA
ENDBRANCH  21  25
ENDBRANCH  20  21
ENDBRANCH  19  20
ENDBRANCH  18  19
ENDBRANCH  17  18
ENDBRANCH  16  17
ENDBRANCH   1  16
TORSDOF 9
ENDMDL
