MODEL 1
REMARK VINA RESULT:      -8.1      0.000      0.000
REMARK  Name = 
REMARK  7 active torsions:
REMARK  status: ('A' for Active; 'I' for Inactive)
REMARK    1  A    between atoms: C_1  and  C_2
REMARK    2  A    between atoms: C_7  and  C_8
REMARK    3  A    between atoms: C_8  and  O_9
REMARK    4  A    between atoms: O_9  and  C_10
REMARK    5  A    between atoms: C_12  and  O_13
REMARK    6  A    between atoms: C_19  and  O_20
REMARK    7  A    between atoms: C_21  and  O_22
REMARK                            x       y       z     vdW  Elec       q    Type
REMARK                         _______ _______ _______ _____ _____    ______ ____
ROOT
ATOM      1  C   UNL     1       5.061   4.596  17.569  0.00  0.00    +0.000 A 
ATOM      2  C   UNL     1       5.768   4.415  16.365  0.00  0.00    +0.000 A 
ATOM      3  C   UNL     1       5.801   5.413  15.399  0.00  0.00    +0.000 A 
ATOM      4  C   UNL     1       5.099   6.595  15.584  0.00  0.00    +0.000 A 
ATOM      5  C   UNL     1       4.366   6.794  16.759  0.00  0.00    +0.000 A 
ATOM      6  O   UNL     1       3.691   8.002  16.828  0.00  0.00    +0.000 OA
ATOM      7  C   UNL     1       2.813   8.206  17.864  0.00  0.00    +0.000 A 
ATOM      8  C   UNL     1       2.067   9.389  17.898  0.00  0.00    +0.000 A 
ATOM      9  C   UNL     1       1.216   9.630  18.977  0.00  0.00    +0.000 A 
ATOM     10  C   UNL     1       1.066   8.689  19.994  0.00  0.00    +0.000 A 
ATOM     11  C   UNL     1       1.792   7.520  19.969  0.00  0.00    +0.000 A 
ATOM     12  C   UNL     1       2.681   7.313  18.913  0.00  0.00    +0.000 A 
ATOM     13  C   UNL     1       3.626   6.221  18.996  0.00  0.00    +0.000 A 
ATOM     14  O   UNL     1       3.818   5.810  20.129  0.00  0.00    +0.000 OA
ATOM     15  C   UNL     1       4.364   5.814  17.775  0.00  0.00    +0.000 A 
ENDROOT
BRANCH   3  16
ATOM     16  O   UNL     1       6.513   5.257  14.251  0.00  0.00    +0.000 OA
ATOM     17  H   UNL     1       6.461   4.331  13.964  0.00  0.00    +0.000 HD
ENDBRANCH   3  16
BRANCH   9  18
ATOM     18  O   UNL     1       0.512  10.795  19.106  0.00  0.00    +0.000 OA
ATOM     19  H   UNL     1       0.353  11.157  18.218  0.00  0.00    +0.000 HD
ENDBRANCH   9  18
BRANCH  10  20
ATOM     20  O   UNL     1       0.246   8.920  21.055  0.00  0.00    +0.000 OA
ATOM     21  H   UNL     1      -0.563   9.310  20.669  0.00  0.00    +0.000 HD
ENDBRANCH  10  20
BRANCH   1  22
ATOM     22  O   UNL     1       5.162   3.463  18.343  0.00  0.00    +0.000 OA
BRANCH  22  23
ATOM     23  C   UNL     1       4.059   2.573  18.329  0.00  0.00    +0.000 C 
BRANCH  23  30
ATOM     24  C   UNL     1       1.344   3.658  17.694  0.00  0.00    +0.000 C 
ATOM     25  C   UNL     1       1.739   3.296  19.101  0.00  0.00    +0.000 A 
ATOM     26  C   UNL     1       0.802   3.387  20.138  0.00  0.00    +0.000 A 
ATOM     27  C   UNL     1       1.125   2.977  21.433  0.00  0.00    +0.000 A 
ATOM     28  C   UNL     1       2.382   2.460  21.717  0.00  0.00    +0.000 A 
ATOM     29  C   UNL     1       3.325   2.377  20.702  0.00  0.00    +0.000 A 
ATOM     30  C   UNL     1       3.025   2.817  19.398  0.00  0.00    +0.000 A 
ENDBRANCH  23  30
ENDBRANCH  22  23
ENDBRANCH   1  22
TORSDOF 6
ENDMDL
MODEL 2
REMARK VINA RESULT:      -7.8      0.380      1.347
REMARK  Name = 
REMARK  7 active torsions:
REMARK  status: ('A' for Active; 'I' for Inactive)
REMARK    1  A    between atoms: C_1  and  C_2
REMARK    2  A    between atoms: C_7  and  C_8
REMARK    3  A    between atoms: C_8  and  O_9
REMARK    4  A    between atoms: O_9  and  C_10
REMARK    5  A    between atoms: C_12  and  O_13
REMARK    6  A    between atoms: C_19  and  O_20
REMARK    7  A    between atoms: C_21  and  O_22
REMARK                            x       y       z     vdW  Elec       q    Type
REMARK                         _______ _______ _______ _____ _____    ______ ____
ROOT
ATOM      1  C   UNL     1       4.969   4.444  17.356  0.00  0.00    +0.000 A 
ATOM      2  C   UNL     1       5.672   4.313  16.143  0.00  0.00    +0.000 A 
ATOM      3  C   UNL     1       5.754   5.372  15.247  0.00  0.00    +0.000 A 
ATOM      4  C   UNL     1       5.107   6.570  15.511  0.00  0.00    +0.000 A 
ATOM      5  C   UNL     1       4.379   6.722  16.696  0.00  0.00    +0.000 A 
ATOM      6  O   UNL     1       3.761   7.953  16.846  0.00  0.00    +0.000 OA
ATOM      7  C   UNL     1       2.889   8.127  17.893  0.00  0.00    +0.000 A 
ATOM      8  C   UNL     1       2.198   9.338  18.006  0.00  0.00    +0.000 A 
ATOM      9  C   UNL     1       1.354   9.544  19.098  0.00  0.00    +0.000 A 
ATOM     10  C   UNL     1       1.157   8.545  20.049  0.00  0.00    +0.000 A 
ATOM     11  C   UNL     1       1.829   7.347  19.945  0.00  0.00    +0.000 A 
ATOM     12  C   UNL     1       2.711   7.172  18.879  0.00  0.00    +0.000 A 
ATOM     13  C   UNL     1       3.604   6.034  18.888  0.00  0.00    +0.000 A 
ATOM     14  O   UNL     1       3.772   5.538  19.991  0.00  0.00    +0.000 OA
ATOM     15  C   UNL     1       4.328   5.677  17.643  0.00  0.00    +0.000 A 
ENDROOT
BRANCH   3  16
ATOM     16  O   UNL     1       6.463   5.260  14.091  0.00  0.00    +0.000 OA
ATOM     17  H   UNL     1       6.907   4.398  14.068  0.00  0.00    +0.000 HD
ENDBRANCH   3  16
BRANCH   9  18
ATOM     18  O   UNL     1       0.705  10.730  19.306  0.00  0.00    +0.000 OA
ATOM     19  H   UNL     1       0.141  10.636  20.091  0.00  0.00    +0.000 HD
ENDBRANCH   9  18
BRANCH  10  20
ATOM     20  O   UNL     1       0.344   8.741  21.123  0.00  0.00    +0.000 OA
ATOM     21  H   UNL     1      -0.515   8.355  20.863  0.00  0.00    +0.000 HD
ENDBRANCH  10  20
BRANCH   1  22
ATOM     22  O   UNL     1       5.014   3.258  18.051  0.00  0.00    +0.000 OA
BRANCH  22  23
ATOM     23  C   UNL     1       3.881   2.412  17.955  0.00  0.00    +0.000 C 
BRANCH  23  30
ATOM     24  C   UNL     1       4.658   1.924  20.803  0.00  0.00    +0.000 C 
ATOM     25  C   UNL     1       3.260   2.338  20.426  0.00  0.00    +0.000 A 
ATOM     26  C   UNL     1       2.308   2.581  21.424  0.00  0.00    +0.000 A 
ATOM     27  C   UNL     1       1.031   3.045  21.100  0.00  0.00    +0.000 A 
ATOM     28  C   UNL     1       0.683   3.284  19.776  0.00  0.00    +0.000 A 
ATOM     29  C   UNL     1       1.612   3.034  18.775  0.00  0.00    +0.000 A 
ATOM     30  C   UNL     1       2.892   2.534  19.085  0.00  0.00    +0.000 A 
ENDBRANCH  23  30
ENDBRANCH  22  23
ENDBRANCH   1  22
TORSDOF 6
ENDMDL
MODEL 3
REMARK VINA RESULT:      -7.6      1.726      5.086
REMARK  Name = 
REMARK  7 active torsions:
REMARK  status: ('A' for Active; 'I' for Inactive)
REMARK    1  A    between atoms: C_1  and  C_2
REMARK    2  A    between atoms: C_7  and  C_8
REMARK    3  A    between atoms: C_8  and  O_9
REMARK    4  A    between atoms: O_9  and  C_10
REMARK    5  A    between atoms: C_12  and  O_13
REMARK    6  A    between atoms: C_19  and  O_20
REMARK    7  A    between atoms: C_21  and  O_22
REMARK                            x       y       z     vdW  Elec       q    Type
REMARK                         _______ _______ _______ _____ _____    ______ ____
ROOT
ATOM      1  C   UNL     1       3.602   3.861  19.220  0.00  0.00    +0.000 A 
ATOM      2  C   UNL     1       3.476   2.893  20.236  0.00  0.00    +0.000 A 
ATOM      3  C   UNL     1       2.671   3.123  21.344  0.00  0.00    +0.000 A 
ATOM      4  C   UNL     1       2.006   4.332  21.493  0.00  0.00    +0.000 A 
ATOM      5  C   UNL     1       2.133   5.322  20.514  0.00  0.00    +0.000 A 
ATOM      6  O   UNL     1       1.440   6.493  20.776  0.00  0.00    +0.000 OA
ATOM      7  C   UNL     1       1.645   7.576  19.956  0.00  0.00    +0.000 A 
ATOM      8  C   UNL     1       1.013   8.786  20.260  0.00  0.00    +0.000 A 
ATOM      9  C   UNL     1       1.170   9.874  19.401  0.00  0.00    +0.000 A 
ATOM     10  C   UNL     1       1.983   9.783  18.272  0.00  0.00    +0.000 A 
ATOM     11  C   UNL     1       2.613   8.598  17.966  0.00  0.00    +0.000 A 
ATOM     12  C   UNL     1       2.406   7.501  18.803  0.00  0.00    +0.000 A 
ATOM     13  C   UNL     1       2.851   6.195  18.368  0.00  0.00    +0.000 A 
ATOM     14  O   UNL     1       3.028   6.100  17.164  0.00  0.00    +0.000 OA
ATOM     15  C   UNL     1       2.903   5.088  19.355  0.00  0.00    +0.000 A 
ENDROOT
BRANCH   3  16
ATOM     16  O   UNL     1       2.517   2.177  22.309  0.00  0.00    +0.000 OA
ATOM     17  H   UNL     1       1.831   1.547  22.036  0.00  0.00    +0.000 HD
ENDBRANCH   3  16
BRANCH   9  18
ATOM     18  O   UNL     1       0.525  11.063  19.602  0.00  0.00    +0.000 OA
ATOM     19  H   UNL     1      -0.261  11.085  19.030  0.00  0.00    +0.000 HD
ENDBRANCH   9  18
BRANCH  10  20
ATOM     20  O   UNL     1       2.134  10.836  17.423  0.00  0.00    +0.000 OA
ATOM     21  H   UNL     1       2.157  10.438  16.531  0.00  0.00    +0.000 HD
ENDBRANCH  10  20
BRANCH   1  22
ATOM     22  O   UNL     1       4.467   3.408  18.251  0.00  0.00    +0.000 OA
BRANCH  22  23
ATOM     23  C   UNL     1       5.701   4.094  18.117  0.00  0.00    +0.000 C 
BRANCH  23  30
ATOM     24  C   UNL     1       7.388   6.488  17.504  0.00  0.00    +0.000 C 
ATOM     25  C   UNL     1       6.894   5.571  16.417  0.00  0.00    +0.000 A 
ATOM     26  C   UNL     1       7.289   5.782  15.089  0.00  0.00    +0.000 A 
ATOM     27  C   UNL     1       6.909   4.896  14.079  0.00  0.00    +0.000 A 
ATOM     28  C   UNL     1       6.139   3.778  14.374  0.00  0.00    +0.000 A 
ATOM     29  C   UNL     1       5.729   3.564  15.683  0.00  0.00    +0.000 A 
ATOM     30  C   UNL     1       6.076   4.467  16.707  0.00  0.00    +0.000 A 
ENDBRANCH  23  30
ENDBRANCH  22  23
ENDBRANCH   1  22
TORSDOF 6
ENDMDL
MODEL 4
REMARK VINA RESULT:      -7.5      1.859      6.590
REMARK  Name = 
REMARK  7 active torsions:
REMARK  status: ('A' for Active; 'I' for Inactive)
REMARK    1  A    between atoms: C_1  and  C_2
REMARK    2  A    between atoms: C_7  and  C_8
REMARK    3  A    between atoms: C_8  and  O_9
REMARK    4  A    between atoms: O_9  and  C_10
REMARK    5  A    between atoms: C_12  and  O_13
REMARK    6  A    between atoms: C_19  and  O_20
REMARK    7  A    between atoms: C_21  and  O_22
REMARK                            x       y       z     vdW  Elec       q    Type
REMARK                         _______ _______ _______ _____ _____    ______ ____
ROOT
ATOM      1  C   UNL     1       2.615   5.830  19.707  0.00  0.00    +0.000 A 
ATOM      2  C   UNL     1       1.622   5.091  20.379  0.00  0.00    +0.000 A 
ATOM      3  C   UNL     1       1.385   3.760  20.058  0.00  0.00    +0.000 A 
ATOM      4  C   UNL     1       2.093   3.144  19.036  0.00  0.00    +0.000 A 
ATOM      5  C   UNL     1       3.067   3.861  18.334  0.00  0.00    +0.000 A 
ATOM      6  O   UNL     1       3.698   3.151  17.324  0.00  0.00    +0.000 OA
ATOM      7  C   UNL     1       4.542   3.825  16.476  0.00  0.00    +0.000 A 
ATOM      8  C   UNL     1       5.120   3.135  15.405  0.00  0.00    +0.000 A 
ATOM      9  C   UNL     1       6.023   3.798  14.572  0.00  0.00    +0.000 A 
ATOM     10  C   UNL     1       6.319   5.145  14.766  0.00  0.00    +0.000 A 
ATOM     11  C   UNL     1       5.752   5.835  15.814  0.00  0.00    +0.000 A 
ATOM     12  C   UNL     1       4.892   5.149  16.673  0.00  0.00    +0.000 A 
ATOM     13  C   UNL     1       4.488   5.780  17.910  0.00  0.00    +0.000 A 
ATOM     14  O   UNL     1       5.219   6.688  18.272  0.00  0.00    +0.000 OA
ATOM     15  C   UNL     1       3.361   5.197  18.680  0.00  0.00    +0.000 A 
ENDROOT
BRANCH   3  16
ATOM     16  O   UNL     1       0.452   3.032  20.729  0.00  0.00    +0.000 OA
ATOM     17  H   UNL     1       0.142   3.537  21.497  0.00  0.00    +0.000 HD
ENDBRANCH   3  16
BRANCH   9  18
ATOM     18  O   UNL     1       6.676   3.163  13.552  0.00  0.00    +0.000 OA
ATOM     19  H   UNL     1       6.179   2.359  13.324  0.00  0.00    +0.000 HD
ENDBRANCH   9  18
BRANCH  10  20
ATOM     20  O   UNL     1       7.206   5.796  13.966  0.00  0.00    +0.000 OA
ATOM     21  H   UNL     1       6.761   5.862  13.098  0.00  0.00    +0.000 HD
ENDBRANCH  10  20
BRANCH   1  22
ATOM     22  O   UNL     1       2.639   7.119  20.187  0.00  0.00    +0.000 OA
BRANCH  22  23
ATOM     23  C   UNL     1       1.796   8.061  19.546  0.00  0.00    +0.000 C 
BRANCH  23  30
ATOM     24  C   UNL     1      -0.066  10.168  18.522  0.00  0.00    +0.000 C 
ATOM     25  C   UNL     1       0.141   9.947  19.997  0.00  0.00    +0.000 A 
ATOM     26  C   UNL     1      -0.605  10.681  20.928  0.00  0.00    +0.000 A 
ATOM     27  C   UNL     1      -0.487  10.433  22.297  0.00  0.00    +0.000 A 
ATOM     28  C   UNL     1       0.368   9.443  22.763  0.00  0.00    +0.000 A 
ATOM     29  C   UNL     1       1.124   8.717  21.853  0.00  0.00    +0.000 A 
ATOM     30  C   UNL     1       1.041   8.979  20.472  0.00  0.00    +0.000 A 
ENDBRANCH  23  30
ENDBRANCH  22  23
ENDBRANCH   1  22
TORSDOF 6
ENDMDL
MODEL 5
REMARK VINA RESULT:      -7.5      1.905      4.698
REMARK  Name = 
REMARK  7 active torsions:
REMARK  status: ('A' for Active; 'I' for Inactive)
REMARK    1  A    between atoms: C_1  and  C_2
REMARK    2  A    between atoms: C_7  and  C_8
REMARK    3  A    between atoms: C_8  and  O_9
REMARK    4  A    between atoms: O_9  and  C_10
REMARK    5  A    between atoms: C_12  and  O_13
REMARK    6  A    between atoms: C_19  and  O_20
REMARK    7  A    between atoms: C_21  and  O_22
REMARK                            x       y       z     vdW  Elec       q    Type
REMARK                         _______ _______ _______ _____ _____    ______ ____
ROOT
ATOM      1  C   UNL     1       3.173   4.713  18.550  0.00  0.00    +0.000 A 
ATOM      2  C   UNL     1       3.301   3.584  19.381  0.00  0.00    +0.000 A 
ATOM      3  C   UNL     1       2.780   3.583  20.669  0.00  0.00    +0.000 A 
ATOM      4  C   UNL     1       2.158   4.715  21.178  0.00  0.00    +0.000 A 
ATOM      5  C   UNL     1       2.039   5.860  20.385  0.00  0.00    +0.000 A 
ATOM      6  O   UNL     1       1.417   6.934  21.002  0.00  0.00    +0.000 OA
ATOM      7  C   UNL     1       1.411   8.148  20.359  0.00  0.00    +0.000 A 
ATOM      8  C   UNL     1       0.858   9.256  21.009  0.00  0.00    +0.000 A 
ATOM      9  C   UNL     1       0.796  10.480  20.341  0.00  0.00    +0.000 A 
ATOM     10  C   UNL     1       1.319  10.621  19.056  0.00  0.00    +0.000 A 
ATOM     11  C   UNL     1       1.869   9.538  18.409  0.00  0.00    +0.000 A 
ATOM     12  C   UNL     1       1.877   8.306  19.066  0.00  0.00    +0.000 A 
ATOM     13  C   UNL     1       2.219   7.116  18.318  0.00  0.00    +0.000 A 
ATOM     14  O   UNL     1       2.105   7.234  17.108  0.00  0.00    +0.000 OA
ATOM     15  C   UNL     1       2.514   5.863  19.056  0.00  0.00    +0.000 A 
ENDROOT
BRANCH   3  16
ATOM     16  O   UNL     1       2.869   2.482  21.462  0.00  0.00    +0.000 OA
ATOM     17  H   UNL     1       3.554   2.624  22.135  0.00  0.00    +0.000 HD
ENDBRANCH   3  16
BRANCH   9  18
ATOM     18  O   UNL     1       0.206  11.584  20.891  0.00  0.00    +0.000 OA
ATOM     19  H   UNL     1       0.356  12.339  20.298  0.00  0.00    +0.000 HD
ENDBRANCH   9  18
BRANCH  10  20
ATOM     20  O   UNL     1       1.253  11.807  18.393  0.00  0.00    +0.000 OA
ATOM     21  H   UNL     1       1.341  12.490  19.087  0.00  0.00    +0.000 HD
ENDBRANCH  10  20
BRANCH   1  22
ATOM     22  O   UNL     1       3.787   4.474  17.343  0.00  0.00    +0.000 OA
BRANCH  22  23
ATOM     23  C   UNL     1       5.134   4.033  17.381  0.00  0.00    +0.000 C 
BRANCH  23  30
ATOM     24  C   UNL     1       5.210   6.525  15.726  0.00  0.00    +0.000 C 
ATOM     25  C   UNL     1       6.176   6.301  16.859  0.00  0.00    +0.000 A 
ATOM     26  C   UNL     1       7.087   7.304  17.213  0.00  0.00    +0.000 A 
ATOM     27  C   UNL     1       7.934   7.149  18.312  0.00  0.00    +0.000 A 
ATOM     28  C   UNL     1       7.882   5.996  19.085  0.00  0.00    +0.000 A 
ATOM     29  C   UNL     1       6.993   4.987  18.738  0.00  0.00    +0.000 A 
ATOM     30  C   UNL     1       6.156   5.116  17.612  0.00  0.00    +0.000 A 
ENDBRANCH  23  30
ENDBRANCH  22  23
ENDBRANCH   1  22
TORSDOF 6
ENDMDL
MODEL 6
REMARK VINA RESULT:      -7.4      2.059      5.268
REMARK  Name = 
REMARK  7 active torsions:
REMARK  status: ('A' for Active; 'I' for Inactive)
REMARK    1  A    between atoms: C_1  and  C_2
REMARK    2  A    between atoms: C_7  and  C_8
REMARK    3  A    between atoms: C_8  and  O_9
REMARK    4  A    between atoms: O_9  and  C_10
REMARK    5  A    between atoms: C_12  and  O_13
REMARK    6  A    between atoms: C_19  and  O_20
REMARK    7  A    between atoms: C_21  and  O_22
REMARK                            x       y       z     vdW  Elec       q    Type
REMARK                         _______ _______ _______ _____ _____    ______ ____
ROOT
ATOM      1  C   UNL     1       3.008   6.822  18.453  0.00  0.00    +0.000 A 
ATOM      2  C   UNL     1       3.340   5.472  18.679  0.00  0.00    +0.000 A 
ATOM      3  C   UNL     1       2.816   4.780  19.764  0.00  0.00    +0.000 A 
ATOM      4  C   UNL     1       1.986   5.420  20.673  0.00  0.00    +0.000 A 
ATOM      5  C   UNL     1       1.659   6.767  20.489  0.00  0.00    +0.000 A 
ATOM      6  O   UNL     1       0.838   7.307  21.467  0.00  0.00    +0.000 OA
ATOM      7  C   UNL     1       0.608   8.661  21.458  0.00  0.00    +0.000 A 
ATOM      8  C   UNL     1      -0.152   9.226  22.487  0.00  0.00    +0.000 A 
ATOM      9  C   UNL     1      -0.439  10.591  22.455  0.00  0.00    +0.000 A 
ATOM     10  C   UNL     1       0.059  11.403  21.438  0.00  0.00    +0.000 A 
ATOM     11  C   UNL     1       0.812  10.858  20.423  0.00  0.00    +0.000 A 
ATOM     12  C   UNL     1       1.048   9.483  20.436  0.00  0.00    +0.000 A 
ATOM     13  C   UNL     1       1.617   8.858  19.261  0.00  0.00    +0.000 A 
ATOM     14  O   UNL     1       1.494   9.511  18.237  0.00  0.00    +0.000 OA
ATOM     15  C   UNL     1       2.138   7.473  19.365  0.00  0.00    +0.000 A 
ENDROOT
BRANCH   3  16
ATOM     16  O   UNL     1       3.106   3.467  19.966  0.00  0.00    +0.000 OA
ATOM     17  H   UNL     1       3.884   3.224  19.440  0.00  0.00    +0.000 HD
ENDBRANCH   3  16
BRANCH   9  18
ATOM     18  O   UNL     1      -1.234  11.193  23.391  0.00  0.00    +0.000 OA
ATOM     19  H   UNL     1      -1.548  12.038  23.028  0.00  0.00    +0.000 HD
ENDBRANCH   9  18
BRANCH  10  20
ATOM     20  O   UNL     1      -0.224  12.733  21.393  0.00  0.00    +0.000 OA
ATOM     21  H   UNL     1       0.493  13.162  21.900  0.00  0.00    +0.000 HD
ENDBRANCH  10  20
BRANCH   1  22
ATOM     22  O   UNL     1       3.668   7.283  17.338  0.00  0.00    +0.000 OA
BRANCH  22  23
ATOM     23  C   UNL     1       5.084   7.315  17.395  0.00  0.00    +0.000 C 
BRANCH  23  30
ATOM     24  C   UNL     1       7.432   5.806  18.476  0.00  0.00    +0.000 C 
ATOM     25  C   UNL     1       6.864   5.511  17.113  0.00  0.00    +0.000 A 
ATOM     26  C   UNL     1       7.382   4.457  16.350  0.00  0.00    +0.000 A 
ATOM     27  C   UNL     1       6.816   4.115  15.121  0.00  0.00    +0.000 A 
ATOM     28  C   UNL     1       5.717   4.810  14.633  0.00  0.00    +0.000 A 
ATOM     29  C   UNL     1       5.200   5.867  15.372  0.00  0.00    +0.000 A 
ATOM     30  C   UNL     1       5.782   6.244  16.598  0.00  0.00    +0.000 A 
ENDBRANCH  23  30
ENDBRANCH  22  23
ENDBRANCH   1  22
TORSDOF 6
ENDMDL
MODEL 7
REMARK VINA RESULT:      -7.4      1.807      6.825
REMARK  Name = 
REMARK  7 active torsions:
REMARK  status: ('A' for Active; 'I' for Inactive)
REMARK    1  A    between atoms: C_1  and  C_2
REMARK    2  A    between atoms: C_7  and  C_8
REMARK    3  A    between atoms: C_8  and  O_9
REMARK    4  A    between atoms: O_9  and  C_10
REMARK    5  A    between atoms: C_12  and  O_13
REMARK    6  A    between atoms: C_19  and  O_20
REMARK    7  A    between atoms: C_21  and  O_22
REMARK                            x       y       z     vdW  Elec       q    Type
REMARK                         _______ _______ _______ _____ _____    ______ ____
ROOT
ATOM      1  C   UNL     1       2.570   6.061  19.625  0.00  0.00    +0.000 A 
ATOM      2  C   UNL     1       1.676   5.310  20.412  0.00  0.00    +0.000 A 
ATOM      3  C   UNL     1       1.551   3.937  20.238  0.00  0.00    +0.000 A 
ATOM      4  C   UNL     1       2.277   3.284  19.252  0.00  0.00    +0.000 A 
ATOM      5  C   UNL     1       3.153   4.007  18.437  0.00  0.00    +0.000 A 
ATOM      6  O   UNL     1       3.811   3.255  17.476  0.00  0.00    +0.000 OA
ATOM      7  C   UNL     1       4.556   3.910  16.527  0.00  0.00    +0.000 A 
ATOM      8  C   UNL     1       5.156   3.166  15.505  0.00  0.00    +0.000 A 
ATOM      9  C   UNL     1       5.962   3.816  14.569  0.00  0.00    +0.000 A 
ATOM     10  C   UNL     1       6.138   5.198  14.613  0.00  0.00    +0.000 A 
ATOM     11  C   UNL     1       5.548   5.940  15.612  0.00  0.00    +0.000 A 
ATOM     12  C   UNL     1       4.788   5.273  16.573  0.00  0.00    +0.000 A 
ATOM     13  C   UNL     1       4.372   5.991  17.758  0.00  0.00    +0.000 A 
ATOM     14  O   UNL     1       5.027   6.994  17.993  0.00  0.00    +0.000 OA
ATOM     15  C   UNL     1       3.334   5.393  18.633  0.00  0.00    +0.000 A 
ENDROOT
BRANCH   3  16
ATOM     16  O   UNL     1       0.716   3.203  21.021  0.00  0.00    +0.000 OA
ATOM     17  H   UNL     1       0.735   2.277  20.732  0.00  0.00    +0.000 HD
ENDBRANCH   3  16
BRANCH   9  18
ATOM     18  O   UNL     1       6.634   3.139  13.589  0.00  0.00    +0.000 OA
ATOM     19  H   UNL     1       7.010   2.332  13.977  0.00  0.00    +0.000 HD
ENDBRANCH   9  18
BRANCH  10  20
ATOM     20  O   UNL     1       6.931   5.838  13.711  0.00  0.00    +0.000 OA
ATOM     21  H   UNL     1       7.542   5.151  13.380  0.00  0.00    +0.000 HD
ENDBRANCH  10  20
BRANCH   1  22
ATOM     22  O   UNL     1       2.491   7.390  19.971  0.00  0.00    +0.000 OA
BRANCH  22  23
ATOM     23  C   UNL     1       1.439   7.768  20.842  0.00  0.00    +0.000 C 
BRANCH  23  30
ATOM     24  C   UNL     1      -0.239   9.287  22.800  0.00  0.00    +0.000 C 
ATOM     25  C   UNL     1      -0.046   9.768  21.386  0.00  0.00    +0.000 A 
ATOM     26  C   UNL     1      -0.592  10.993  20.982  0.00  0.00    +0.000 A 
ATOM     27  C   UNL     1      -0.355  11.495  19.700  0.00  0.00    +0.000 A 
ATOM     28  C   UNL     1       0.438  10.791  18.803  0.00  0.00    +0.000 A 
ATOM     29  C   UNL     1       0.974   9.569  19.185  0.00  0.00    +0.000 A 
ATOM     30  C   UNL     1       0.716   9.034  20.463  0.00  0.00    +0.000 A 
ENDBRANCH  23  30
ENDBRANCH  22  23
ENDBRANCH   1  22
TORSDOF 6
ENDMDL
MODEL 8
REMARK VINA RESULT:      -7.3      3.103      7.860
REMARK  Name = 
REMARK  7 active torsions:
REMARK  status: ('A' for Active; 'I' for Inactive)
REMARK    1  A    between atoms: C_1  and  C_2
REMARK    2  A    between atoms: C_7  and  C_8
REMARK    3  A    between atoms: C_8  and  O_9
REMARK    4  A    between atoms: O_9  and  C_10
REMARK    5  A    between atoms: C_12  and  O_13
REMARK    6  A    between atoms: C_19  and  O_20
REMARK    7  A    between atoms: C_21  and  O_22
REMARK                            x       y       z     vdW  Elec       q    Type
REMARK                         _______ _______ _______ _____ _____    ______ ____
ROOT
ATOM      1  C   UNL     1       0.309   9.748  19.501  0.00  0.00    +0.000 A 
ATOM      2  C   UNL     1      -0.414   9.898  20.701  0.00  0.00    +0.000 A 
ATOM      3  C   UNL     1      -0.141   9.096  21.803  0.00  0.00    +0.000 A 
ATOM      4  C   UNL     1       0.823   8.101  21.729  0.00  0.00    +0.000 A 
ATOM      5  C   UNL     1       1.539   7.912  20.542  0.00  0.00    +0.000 A 
ATOM      6  O   UNL     1       2.463   6.880  20.577  0.00  0.00    +0.000 OA
ATOM      7  C   UNL     1       3.085   6.514  19.409  0.00  0.00    +0.000 A 
ATOM      8  C   UNL     1       3.957   5.421  19.418  0.00  0.00    +0.000 A 
ATOM      9  C   UNL     1       4.637   5.079  18.248  0.00  0.00    +0.000 A 
ATOM     10  C   UNL     1       4.423   5.782  17.064  0.00  0.00    +0.000 A 
ATOM     11  C   UNL     1       3.563   6.857  17.043  0.00  0.00    +0.000 A 
ATOM     12  C   UNL     1       2.929   7.224  18.231  0.00  0.00    +0.000 A 
ATOM     13  C   UNL     1       2.225   8.486  18.288  0.00  0.00    +0.000 A 
ATOM     14  O   UNL     1       2.556   9.285  17.426  0.00  0.00    +0.000 OA
ATOM     15  C   UNL     1       1.314   8.750  19.429  0.00  0.00    +0.000 A 
ENDROOT
BRANCH   3  16
ATOM     16  O   UNL     1      -0.811   9.262  22.975  0.00  0.00    +0.000 OA
ATOM     17  H   UNL     1      -0.287   8.888  23.701  0.00  0.00    +0.000 HD
ENDBRANCH   3  16
BRANCH   9  18
ATOM     18  O   UNL     1       5.556   4.067  18.207  0.00  0.00    +0.000 OA
ATOM     19  H   UNL     1       6.443   4.456  18.279  0.00  0.00    +0.000 HD
ENDBRANCH   9  18
BRANCH  10  20
ATOM     20  O   UNL     1       5.089   5.462  15.922  0.00  0.00    +0.000 OA
ATOM     21  H   UNL     1       4.939   4.504  15.802  0.00  0.00    +0.000 HD
ENDBRANCH  10  20
BRANCH   1  22
ATOM     22  O   UNL     1      -0.163  10.635  18.561  0.00  0.00    +0.000 OA
BRANCH  22  23
ATOM     23  C   UNL     1      -1.055  10.125  17.585  0.00  0.00    +0.000 C 
BRANCH  23  30
ATOM     24  C   UNL     1      -2.833   9.933  15.186  0.00  0.00    +0.000 C 
ATOM     25  C   UNL     1      -3.250  10.690  16.418  0.00  0.00    +0.000 A 
ATOM     26  C   UNL     1      -4.529  11.258  16.493  0.00  0.00    +0.000 A 
ATOM     27  C   UNL     1      -4.964  11.893  17.658  0.00  0.00    +0.000 A 
ATOM     28  C   UNL     1      -4.139  11.964  18.773  0.00  0.00    +0.000 A 
ATOM     29  C   UNL     1      -2.864  11.418  18.709  0.00  0.00    +0.000 A 
ATOM     30  C   UNL     1      -2.399  10.804  17.529  0.00  0.00    +0.000 A 
ENDBRANCH  23  30
ENDBRANCH  22  23
ENDBRANCH   1  22
TORSDOF 6
ENDMDL
MODEL 9
REMARK VINA RESULT:      -7.3      2.006      6.531
REMARK  Name = 
REMARK  7 active torsions:
REMARK  status: ('A' for Active; 'I' for Inactive)
REMARK    1  A    between atoms: C_1  and  C_2
REMARK    2  A    between atoms: C_7  and  C_8
REMARK    3  A    between atoms: C_8  and  O_9
REMARK    4  A    between atoms: O_9  and  C_10
REMARK    5  A    between atoms: C_12  and  O_13
REMARK    6  A    between atoms: C_19  and  O_20
REMARK    7  A    between atoms: C_21  and  O_22
REMARK                            x       y       z     vdW  Elec       q    Type
REMARK                         _______ _______ _______ _____ _____    ______ ____
ROOT
ATOM      1  C   UNL     1       2.612   5.104  19.772  0.00  0.00    +0.000 A 
ATOM      2  C   UNL     1       1.424   4.424  20.105  0.00  0.00    +0.000 A 
ATOM      3  C   UNL     1       1.011   3.313  19.381  0.00  0.00    +0.000 A 
ATOM      4  C   UNL     1       1.740   2.876  18.285  0.00  0.00    +0.000 A 
ATOM      5  C   UNL     1       2.909   3.546  17.914  0.00  0.00    +0.000 A 
ATOM      6  O   UNL     1       3.545   3.032  16.794  0.00  0.00    +0.000 OA
ATOM      7  C   UNL     1       4.601   3.730  16.260  0.00  0.00    +0.000 A 
ATOM      8  C   UNL     1       5.197   3.263  15.084  0.00  0.00    +0.000 A 
ATOM      9  C   UNL     1       6.306   3.933  14.567  0.00  0.00    +0.000 A 
ATOM     10  C   UNL     1       6.797   5.084  15.180  0.00  0.00    +0.000 A 
ATOM     11  C   UNL     1       6.216   5.555  16.336  0.00  0.00    +0.000 A 
ATOM     12  C   UNL     1       5.141   4.846  16.874  0.00  0.00    +0.000 A 
ATOM     13  C   UNL     1       4.681   5.176  18.206  0.00  0.00    +0.000 A 
ATOM     14  O   UNL     1       5.498   5.779  18.884  0.00  0.00    +0.000 OA
ATOM     15  C   UNL     1       3.376   4.644  18.668  0.00  0.00    +0.000 A 
ENDROOT
BRANCH   3  16
ATOM     16  O   UNL     1      -0.116   2.632  19.723  0.00  0.00    +0.000 OA
ATOM     17  H   UNL     1      -0.007   2.254  20.610  0.00  0.00    +0.000 HD
ENDBRANCH   3  16
BRANCH   9  18
ATOM     18  O   UNL     1       6.978   3.489  13.461  0.00  0.00    +0.000 OA
ATOM     19  H   UNL     1       6.507   2.716  13.108  0.00  0.00    +0.000 HD
ENDBRANCH   9  18
BRANCH  10  20
ATOM     20  O   UNL     1       7.885   5.738  14.689  0.00  0.00    +0.000 OA
ATOM     21  H   UNL     1       8.326   6.118  15.474  0.00  0.00    +0.000 HD
ENDBRANCH  10  20
BRANCH   1  22
ATOM     22  O   UNL     1       2.788   6.175  20.617  0.00  0.00    +0.000 OA
BRANCH  22  23
ATOM     23  C   UNL     1       1.649   6.971  20.894  0.00  0.00    +0.000 C 
BRANCH  23  30
ATOM     24  C   UNL     1       0.182   9.423  21.783  0.00  0.00    +0.000 C 
ATOM     25  C   UNL     1       0.805   9.328  20.415  0.00  0.00    +0.000 A 
ATOM     26  C   UNL     1       0.777  10.432  19.554  0.00  0.00    +0.000 A 
ATOM     27  C   UNL     1       1.420  10.392  18.315  0.00  0.00    +0.000 A 
ATOM     28  C   UNL     1       2.111   9.256  17.917  0.00  0.00    +0.000 A 
ATOM     29  C   UNL     1       2.137   8.149  18.754  0.00  0.00    +0.000 A 
ATOM     30  C   UNL     1       1.464   8.163  19.992  0.00  0.00    +0.000 A 
ENDBRANCH  23  30
ENDBRANCH  22  23
ENDBRANCH   1  22
TORSDOF 6
ENDMDL
