MODEL 1
REMARK VINA RESULT:      -6.2      0.000      0.000
REMARK  Name = 
REMARK  7 active torsions:
REMARK  status: ('A' for Active; 'I' for Inactive)
REMARK    1  A    between atoms: C_1  and  C_2
REMARK    2  A    between atoms: C_2  and  C_3
REMARK    3  A    between atoms: C_3  and  C_4
REMARK    4  A    between atoms: C_3  and  C_5
REMARK    5  A    between atoms: C_5  and  C_6
REMARK    6  A    between atoms: C_5  and  N_7
REMARK    7  A    between atoms: C_8  and  C_10
REMARK                            x       y       z     vdW  Elec       q    Type
REMARK                         _______ _______ _______ _____ _____    ______ ____
ROOT
ATOM      1  N   UNL     1       4.412   4.068  18.583  0.00  0.00    +0.000 N 
ATOM      2  C   UNL     1       5.714   4.523  18.622  0.00  0.00    +0.000 C 
ATOM      3  O   UNL     1       6.225   5.023  19.623  0.00  0.00    +0.000 OA
ATOM      4  H   UNL     1       4.183   3.483  17.782  0.00  0.00    +0.000 HD
ENDROOT
BRANCH   2   5
ATOM      5  C   UNL     1       6.468   4.438  17.289  0.00  0.00    +0.000 C 
ATOM      6  C   UNL     1       6.803   5.858  16.806  0.00  0.00    +0.000 C 
ATOM      7  O   UNL     1       7.523   5.825  15.561  0.00  0.00    +0.000 OA
ATOM      8  C   UNL     1       6.755   5.148  14.558  0.00  0.00    +0.000 C 
ATOM      9  C   UNL     1       6.410   3.716  14.998  0.00  0.00    +0.000 C 
ATOM     10  N   UNL     1       5.659   3.691  16.272  0.00  0.00    +0.000 NA
ATOM     11  H   UNL     1       5.588   2.721  16.582  0.00  0.00    +0.000 HD
ENDBRANCH   2   5
BRANCH   1  12
ATOM     12  C   UNL     1       3.547   4.071  19.761  0.00  0.00    +0.000 C 
ATOM     13  C   UNL     1       3.656   2.710  20.460  0.00  0.00    +0.000 C 
BRANCH  12  14
ATOM     14  C   UNL     1       2.081   4.442  19.386  0.00  0.00    +0.000 C 
ATOM     15  C   UNL     1       1.162   4.321  20.614  0.00  0.00    +0.000 C 
BRANCH  14  17
ATOM     16  C   UNL     1       0.665   2.403  18.673  0.00  0.00    +0.000 C 
ATOM     17  C   UNL     1       1.550   3.562  18.228  0.00  0.00    +0.000 C 
ENDBRANCH  14  17
ENDBRANCH  12  14
ENDBRANCH   1  12
TORSDOF 4
ENDMDL
MODEL 2
REMARK VINA RESULT:      -6.2      1.573      2.189
REMARK  Name = 
REMARK  7 active torsions:
REMARK  status: ('A' for Active; 'I' for Inactive)
REMARK    1  A    between atoms: C_1  and  C_2
REMARK    2  A    between atoms: C_2  and  C_3
REMARK    3  A    between atoms: C_3  and  C_4
REMARK    4  A    between atoms: C_3  and  C_5
REMARK    5  A    between atoms: C_5  and  C_6
REMARK    6  A    between atoms: C_5  and  N_7
REMARK    7  A    between atoms: C_8  and  C_10
REMARK                            x       y       z     vdW  Elec       q    Type
REMARK                         _______ _______ _______ _____ _____    ______ ____
ROOT
ATOM      1  N   UNL     1       3.209   3.443  18.518  0.00  0.00    +0.000 N 
ATOM      2  C   UNL     1       4.569   3.537  18.732  0.00  0.00    +0.000 C 
ATOM      3  O   UNL     1       5.133   3.055  19.714  0.00  0.00    +0.000 OA
ATOM      4  H   UNL     1       2.904   3.682  17.578  0.00  0.00    +0.000 HD
ENDROOT
BRANCH   2   5
ATOM      5  C   UNL     1       5.331   4.367  17.691  0.00  0.00    +0.000 C 
ATOM      6  C   UNL     1       4.407   5.468  17.148  0.00  0.00    +0.000 C 
ATOM      7  O   UNL     1       5.087   6.281  16.174  0.00  0.00    +0.000 OA
ATOM      8  C   UNL     1       5.556   5.471  15.089  0.00  0.00    +0.000 C 
ATOM      9  C   UNL     1       6.496   4.363  15.590  0.00  0.00    +0.000 C 
ATOM     10  N   UNL     1       5.844   3.490  16.589  0.00  0.00    +0.000 NA
ATOM     11  H   UNL     1       6.554   2.873  16.988  0.00  0.00    +0.000 HD
ENDBRANCH   2   5
BRANCH   1  12
ATOM     12  C   UNL     1       2.328   2.690  19.408  0.00  0.00    +0.000 C 
ATOM     13  C   UNL     1       1.032   2.357  18.658  0.00  0.00    +0.000 C 
BRANCH  12  14
ATOM     14  C   UNL     1       2.075   3.460  20.739  0.00  0.00    +0.000 C 
ATOM     15  C   UNL     1       1.479   2.520  21.801  0.00  0.00    +0.000 C 
BRANCH  14  17
ATOM     16  C   UNL     1       1.874   6.023  20.498  0.00  0.00    +0.000 C 
ATOM     17  C   UNL     1       1.150   4.682  20.521  0.00  0.00    +0.000 C 
ENDBRANCH  14  17
ENDBRANCH  12  14
ENDBRANCH   1  12
TORSDOF 4
ENDMDL
MODEL 3
REMARK VINA RESULT:      -6.1      0.760      1.450
REMARK  Name = 
REMARK  7 active torsions:
REMARK  status: ('A' for Active; 'I' for Inactive)
REMARK    1  A    between atoms: C_1  and  C_2
REMARK    2  A    between atoms: C_2  and  C_3
REMARK    3  A    between atoms: C_3  and  C_4
REMARK    4  A    between atoms: C_3  and  C_5
REMARK    5  A    between atoms: C_5  and  C_6
REMARK    6  A    between atoms: C_5  and  N_7
REMARK    7  A    between atoms: C_8  and  C_10
REMARK                            x       y       z     vdW  Elec       q    Type
REMARK                         _______ _______ _______ _____ _____    ______ ____
ROOT
ATOM      1  N   UNL     1       4.611   3.347  18.627  0.00  0.00    +0.000 N 
ATOM      2  C   UNL     1       5.536   4.366  18.528  0.00  0.00    +0.000 C 
ATOM      3  O   UNL     1       5.654   5.255  19.370  0.00  0.00    +0.000 OA
ATOM      4  H   UNL     1       4.762   2.566  17.993  0.00  0.00    +0.000 HD
ENDROOT
BRANCH   2   5
ATOM      5  C   UNL     1       6.362   4.365  17.236  0.00  0.00    +0.000 C 
ATOM      6  C   UNL     1       6.688   5.814  16.842  0.00  0.00    +0.000 C 
ATOM      7  O   UNL     1       7.475   5.859  15.638  0.00  0.00    +0.000 OA
ATOM      8  C   UNL     1       6.779   5.216  14.563  0.00  0.00    +0.000 C 
ATOM      9  C   UNL     1       6.447   3.756  14.913  0.00  0.00    +0.000 C 
ATOM     10  N   UNL     1       5.629   3.651  16.141  0.00  0.00    +0.000 NA
ATOM     11  H   UNL     1       5.566   2.665  16.400  0.00  0.00    +0.000 HD
ENDBRANCH   2   5
BRANCH   1  12
ATOM     12  C   UNL     1       3.740   3.192  19.790  0.00  0.00    +0.000 C 
ATOM     13  C   UNL     1       4.297   2.076  20.682  0.00  0.00    +0.000 C 
BRANCH  12  14
ATOM     14  C   UNL     1       2.263   2.942  19.362  0.00  0.00    +0.000 C 
ATOM     15  C   UNL     1       2.084   3.212  17.857  0.00  0.00    +0.000 C 
BRANCH  14  17
ATOM     16  C   UNL     1       1.847   5.146  20.642  0.00  0.00    +0.000 C 
ATOM     17  C   UNL     1       1.277   3.809  20.184  0.00  0.00    +0.000 C 
ENDBRANCH  14  17
ENDBRANCH  12  14
ENDBRANCH   1  12
TORSDOF 4
ENDMDL
MODEL 4
REMARK VINA RESULT:      -6.1      1.294      1.793
REMARK  Name = 
REMARK  7 active torsions:
REMARK  status: ('A' for Active; 'I' for Inactive)
REMARK    1  A    between atoms: C_1  and  C_2
REMARK    2  A    between atoms: C_2  and  C_3
REMARK    3  A    between atoms: C_3  and  C_4
REMARK    4  A    between atoms: C_3  and  C_5
REMARK    5  A    between atoms: C_5  and  C_6
REMARK    6  A    between atoms: C_5  and  N_7
REMARK    7  A    between atoms: C_8  and  C_10
REMARK                            x       y       z     vdW  Elec       q    Type
REMARK                         _______ _______ _______ _____ _____    ______ ____
ROOT
ATOM      1  N   UNL     1       4.539   3.360  18.740  0.00  0.00    +0.000 N 
ATOM      2  C   UNL     1       4.942   4.680  18.722  0.00  0.00    +0.000 C 
ATOM      3  O   UNL     1       4.630   5.494  19.590  0.00  0.00    +0.000 OA
ATOM      4  H   UNL     1       5.038   2.749  18.098  0.00  0.00    +0.000 HD
ENDROOT
BRANCH   2   5
ATOM      5  C   UNL     1       5.746   5.092  17.483  0.00  0.00    +0.000 C 
ATOM      6  C   UNL     1       4.847   5.914  16.546  0.00  0.00    +0.000 C 
ATOM      7  O   UNL     1       5.568   6.333  15.373  0.00  0.00    +0.000 OA
ATOM      8  C   UNL     1       6.079   5.195  14.668  0.00  0.00    +0.000 C 
ATOM      9  C   UNL     1       6.996   4.352  15.569  0.00  0.00    +0.000 C 
ATOM     10  N   UNL     1       6.302   3.886  16.789  0.00  0.00    +0.000 NA
ATOM     11  H   UNL     1       6.994   3.462  17.409  0.00  0.00    +0.000 HD
ENDBRANCH   2   5
BRANCH   1  12
ATOM     12  C   UNL     1       3.767   2.794  19.844  0.00  0.00    +0.000 C 
ATOM     13  C   UNL     1       4.641   1.779  20.592  0.00  0.00    +0.000 C 
BRANCH  12  14
ATOM     14  C   UNL     1       2.426   2.181  19.341  0.00  0.00    +0.000 C 
ATOM     15  C   UNL     1       2.285   2.366  17.820  0.00  0.00    +0.000 C 
BRANCH  14  17
ATOM     16  C   UNL     1       1.397   4.250  20.494  0.00  0.00    +0.000 C 
ATOM     17  C   UNL     1       1.208   2.798  20.073  0.00  0.00    +0.000 C 
ENDBRANCH  14  17
ENDBRANCH  12  14
ENDBRANCH   1  12
TORSDOF 4
ENDMDL
MODEL 5
REMARK VINA RESULT:      -6.1      1.324      1.731
REMARK  Name = 
REMARK  7 active torsions:
REMARK  status: ('A' for Active; 'I' for Inactive)
REMARK    1  A    between atoms: C_1  and  C_2
REMARK    2  A    between atoms: C_2  and  C_3
REMARK    3  A    between atoms: C_3  and  C_4
REMARK    4  A    between atoms: C_3  and  C_5
REMARK    5  A    between atoms: C_5  and  C_6
REMARK    6  A    between atoms: C_5  and  N_7
REMARK    7  A    between atoms: C_8  and  C_10
REMARK                            x       y       z     vdW  Elec       q    Type
REMARK                         _______ _______ _______ _____ _____    ______ ____
ROOT
ATOM      1  N   UNL     1       3.921   3.552  18.062  0.00  0.00    +0.000 N 
ATOM      2  C   UNL     1       5.161   4.064  18.383  0.00  0.00    +0.000 C 
ATOM      3  O   UNL     1       5.655   3.982  19.506  0.00  0.00    +0.000 OA
ATOM      4  H   UNL     1       3.726   3.488  17.065  0.00  0.00    +0.000 HD
ENDROOT
BRANCH   2   5
ATOM      5  C   UNL     1       5.858   4.826  17.249  0.00  0.00    +0.000 C 
ATOM      6  C   UNL     1       4.829   5.710  16.527  0.00  0.00    +0.000 C 
ATOM      7  O   UNL     1       5.444   6.455  15.461  0.00  0.00    +0.000 OA
ATOM      8  C   UNL     1       6.055   5.565  14.519  0.00  0.00    +0.000 C 
ATOM      9  C   UNL     1       7.103   4.671  15.201  0.00  0.00    +0.000 C 
ATOM     10  N   UNL     1       6.522   3.874  16.302  0.00  0.00    +0.000 NA
ATOM     11  H   UNL     1       7.285   3.417  16.804  0.00  0.00    +0.000 HD
ENDBRANCH   2   5
BRANCH   1  12
ATOM     12  C   UNL     1       3.116   2.795  19.019  0.00  0.00    +0.000 C 
ATOM     13  C   UNL     1       3.362   1.297  18.798  0.00  0.00    +0.000 C 
BRANCH  12  14
ATOM     14  C   UNL     1       1.609   3.180  18.921  0.00  0.00    +0.000 C 
ATOM     15  C   UNL     1       1.391   4.230  17.818  0.00  0.00    +0.000 C 
BRANCH  14  17
ATOM     16  C   UNL     1       1.379   2.801  21.465  0.00  0.00    +0.000 C 
ATOM     17  C   UNL     1       1.066   3.700  20.274  0.00  0.00    +0.000 C 
ENDBRANCH  14  17
ENDBRANCH  12  14
ENDBRANCH   1  12
TORSDOF 4
ENDMDL
MODEL 6
REMARK VINA RESULT:      -5.9      2.178      5.817
REMARK  Name = 
REMARK  7 active torsions:
REMARK  status: ('A' for Active; 'I' for Inactive)
REMARK    1  A    between atoms: C_1  and  C_2
REMARK    2  A    between atoms: C_2  and  C_3
REMARK    3  A    between atoms: C_3  and  C_4
REMARK    4  A    between atoms: C_3  and  C_5
REMARK    5  A    between atoms: C_5  and  C_6
REMARK    6  A    between atoms: C_5  and  N_7
REMARK    7  A    between atoms: C_8  and  C_10
REMARK                            x       y       z     vdW  Elec       q    Type
REMARK                         _______ _______ _______ _____ _____    ______ ____
ROOT
ATOM      1  N   UNL     1       4.898   5.280  17.539  0.00  0.00    +0.000 N 
ATOM      2  C   UNL     1       3.746   5.712  18.163  0.00  0.00    +0.000 C 
ATOM      3  O   UNL     1       3.370   6.883  18.150  0.00  0.00    +0.000 OA
ATOM      4  H   UNL     1       4.980   4.271  17.435  0.00  0.00    +0.000 HD
ENDROOT
BRANCH   2   5
ATOM      5  C   UNL     1       2.999   4.633  18.957  0.00  0.00    +0.000 C 
ATOM      6  C   UNL     1       3.900   3.396  19.101  0.00  0.00    +0.000 C 
ATOM      7  O   UNL     1       3.241   2.361  19.853  0.00  0.00    +0.000 OA
ATOM      8  C   UNL     1       2.013   1.987  19.216  0.00  0.00    +0.000 C 
ATOM      9  C   UNL     1       1.077   3.197  19.066  0.00  0.00    +0.000 C 
ATOM     10  N   UNL     1       1.701   4.291  18.292  0.00  0.00    +0.000 NA
ATOM     11  H   UNL     1       1.096   5.111  18.350  0.00  0.00    +0.000 HD
ENDBRANCH   2   5
BRANCH   1  12
ATOM     12  C   UNL     1       5.734   6.171  16.736  0.00  0.00    +0.000 C 
ATOM     13  C   UNL     1       5.435   5.928  15.251  0.00  0.00    +0.000 C 
BRANCH  12  14
ATOM     14  C   UNL     1       7.243   5.998  17.085  0.00  0.00    +0.000 C 
ATOM     15  C   UNL     1       7.529   4.559  17.549  0.00  0.00    +0.000 C 
BRANCH  14  17
ATOM     16  C   UNL     1       7.879   8.436  17.651  0.00  0.00    +0.000 C 
ATOM     17  C   UNL     1       7.697   7.012  18.163  0.00  0.00    +0.000 C 
ENDBRANCH  14  17
ENDBRANCH  12  14
ENDBRANCH   1  12
TORSDOF 4
ENDMDL
MODEL 7
REMARK VINA RESULT:      -5.9      2.170      5.840
REMARK  Name = 
REMARK  7 active torsions:
REMARK  status: ('A' for Active; 'I' for Inactive)
REMARK    1  A    between atoms: C_1  and  C_2
REMARK    2  A    between atoms: C_2  and  C_3
REMARK    3  A    between atoms: C_3  and  C_4
REMARK    4  A    between atoms: C_3  and  C_5
REMARK    5  A    between atoms: C_5  and  C_6
REMARK    6  A    between atoms: C_5  and  N_7
REMARK    7  A    between atoms: C_8  and  C_10
REMARK                            x       y       z     vdW  Elec       q    Type
REMARK                         _______ _______ _______ _____ _____    ______ ____
ROOT
ATOM      1  N   UNL     1       4.906   4.632  16.815  0.00  0.00    +0.000 N 
ATOM      2  C   UNL     1       3.927   5.184  17.615  0.00  0.00    +0.000 C 
ATOM      3  O   UNL     1       3.722   6.394  17.695  0.00  0.00    +0.000 OA
ATOM      4  H   UNL     1       4.828   3.629  16.668  0.00  0.00    +0.000 HD
ENDROOT
BRANCH   2   5
ATOM      5  C   UNL     1       3.155   4.177  18.477  0.00  0.00    +0.000 C 
ATOM      6  C   UNL     1       3.004   2.859  17.701  0.00  0.00    +0.000 C 
ATOM      7  O   UNL     1       2.295   1.879  18.480  0.00  0.00    +0.000 OA
ATOM      8  C   UNL     1       0.999   2.372  18.841  0.00  0.00    +0.000 C 
ATOM      9  C   UNL     1       1.107   3.686  19.633  0.00  0.00    +0.000 C 
ATOM     10  N   UNL     1       1.822   4.734  18.874  0.00  0.00    +0.000 NA
ATOM     11  H   UNL     1       1.989   5.524  19.499  0.00  0.00    +0.000 HD
ENDBRANCH   2   5
BRANCH   1  12
ATOM     12  C   UNL     1       5.737   5.443  15.926  0.00  0.00    +0.000 C 
ATOM     13  C   UNL     1       5.790   4.772  14.548  0.00  0.00    +0.000 C 
BRANCH  12  14
ATOM     14  C   UNL     1       7.151   5.682  16.536  0.00  0.00    +0.000 C 
ATOM     15  C   UNL     1       7.534   4.529  17.480  0.00  0.00    +0.000 C 
BRANCH  14  17
ATOM     16  C   UNL     1       8.046   7.003  18.566  0.00  0.00    +0.000 C 
ATOM     17  C   UNL     1       7.226   7.037  17.282  0.00  0.00    +0.000 C 
ENDBRANCH  14  17
ENDBRANCH  12  14
ENDBRANCH   1  12
TORSDOF 4
ENDMDL
MODEL 8
REMARK VINA RESULT:      -5.9      1.781      2.606
REMARK  Name = 
REMARK  7 active torsions:
REMARK  status: ('A' for Active; 'I' for Inactive)
REMARK    1  A    between atoms: C_1  and  C_2
REMARK    2  A    between atoms: C_2  and  C_3
REMARK    3  A    between atoms: C_3  and  C_4
REMARK    4  A    between atoms: C_3  and  C_5
REMARK    5  A    between atoms: C_5  and  C_6
REMARK    6  A    between atoms: C_5  and  N_7
REMARK    7  A    between atoms: C_8  and  C_10
REMARK                            x       y       z     vdW  Elec       q    Type
REMARK                         _______ _______ _______ _____ _____    ______ ____
ROOT
ATOM      1  N   UNL     1       3.190   4.842  19.671  0.00  0.00    +0.000 N 
ATOM      2  C   UNL     1       3.709   4.673  18.404  0.00  0.00    +0.000 C 
ATOM      3  O   UNL     1       3.015   4.641  17.388  0.00  0.00    +0.000 OA
ATOM      4  H   UNL     1       3.872   5.071  20.389  0.00  0.00    +0.000 HD
ENDROOT
BRANCH   2   5
ATOM      5  C   UNL     1       5.224   4.439  18.353  0.00  0.00    +0.000 C 
ATOM      6  C   UNL     1       5.906   5.310  19.419  0.00  0.00    +0.000 C 
ATOM      7  O   UNL     1       7.331   5.112  19.415  0.00  0.00    +0.000 OA
ATOM      8  C   UNL     1       7.874   5.422  18.126  0.00  0.00    +0.000 C 
ATOM      9  C   UNL     1       7.226   4.560  17.031  0.00  0.00    +0.000 C 
ATOM     10  N   UNL     1       5.758   4.731  16.984  0.00  0.00    +0.000 NA
ATOM     11  H   UNL     1       5.374   4.033  16.345  0.00  0.00    +0.000 HD
ENDBRANCH   2   5
BRANCH   1  12
ATOM     12  C   UNL     1       1.767   5.079  19.907  0.00  0.00    +0.000 C 
ATOM     13  C   UNL     1       1.609   6.342  20.764  0.00  0.00    +0.000 C 
BRANCH  12  14
ATOM     14  C   UNL     1       1.083   3.830  20.541  0.00  0.00    +0.000 C 
ATOM     15  C   UNL     1       2.032   3.142  21.537  0.00  0.00    +0.000 C 
BRANCH  14  17
ATOM     16  C   UNL     1       1.665   1.787  19.073  0.00  0.00    +0.000 C 
ATOM     17  C   UNL     1       0.618   2.826  19.458  0.00  0.00    +0.000 C 
ENDBRANCH  14  17
ENDBRANCH  12  14
ENDBRANCH   1  12
TORSDOF 4
ENDMDL
MODEL 9
REMARK VINA RESULT:      -5.8      1.787      2.072
REMARK  Name = 
REMARK  7 active torsions:
REMARK  status: ('A' for Active; 'I' for Inactive)
REMARK    1  A    between atoms: C_1  and  C_2
REMARK    2  A    between atoms: C_2  and  C_3
REMARK    3  A    between atoms: C_3  and  C_4
REMARK    4  A    between atoms: C_3  and  C_5
REMARK    5  A    between atoms: C_5  and  C_6
REMARK    6  A    between atoms: C_5  and  N_7
REMARK    7  A    between atoms: C_8  and  C_10
REMARK                            x       y       z     vdW  Elec       q    Type
REMARK                         _______ _______ _______ _____ _____    ______ ____
ROOT
ATOM      1  N   UNL     1       3.494   5.057  18.624  0.00  0.00    +0.000 N 
ATOM      2  C   UNL     1       3.964   6.166  17.951  0.00  0.00    +0.000 C 
ATOM      3  O   UNL     1       3.293   7.181  17.768  0.00  0.00    +0.000 OA
ATOM      4  H   UNL     1       4.207   4.385  18.898  0.00  0.00    +0.000 HD
ENDROOT
BRANCH   2   5
ATOM      5  C   UNL     1       5.374   6.016  17.364  0.00  0.00    +0.000 C 
ATOM      6  C   UNL     1       5.294   6.090  15.831  0.00  0.00    +0.000 C 
ATOM      7  O   UNL     1       6.600   5.966  15.239  0.00  0.00    +0.000 OA
ATOM      8  C   UNL     1       7.207   4.727  15.626  0.00  0.00    +0.000 C 
ATOM      9  C   UNL     1       7.317   4.619  17.156  0.00  0.00    +0.000 C 
ATOM     10  N   UNL     1       6.000   4.732  17.818  0.00  0.00    +0.000 NA
ATOM     11  H   UNL     1       6.153   4.800  18.825  0.00  0.00    +0.000 HD
ENDBRANCH   2   5
BRANCH   1  12
ATOM     12  C   UNL     1       2.173   5.025  19.249  0.00  0.00    +0.000 C 
ATOM     13  C   UNL     1       2.345   5.039  20.773  0.00  0.00    +0.000 C 
BRANCH  12  14
ATOM     14  C   UNL     1       1.339   3.808  18.746  0.00  0.00    +0.000 C 
ATOM     15  C   UNL     1       0.831   2.974  19.935  0.00  0.00    +0.000 C 
BRANCH  14  17
ATOM     16  C   UNL     1       2.860   1.743  18.442  0.00  0.00    +0.000 C 
ATOM     17  C   UNL     1       2.157   2.920  17.776  0.00  0.00    +0.000 C 
ENDBRANCH  14  17
ENDBRANCH  12  14
ENDBRANCH   1  12
TORSDOF 4
ENDMDL
