MODEL 1
REMARK VINA RESULT:      -7.1      0.000      0.000
REMARK  Name = 
REMARK  4 active torsions:
REMARK  status: ('A' for Active; 'I' for Inactive)
REMARK    1  A    between atoms: C_1  and  N_2
REMARK    2  A    between atoms: C_4  and  N_5
REMARK    3  A    between atoms: N_6  and  C_7
REMARK    4  A    between atoms: C_11  and  C_12
REMARK                            x       y       z     vdW  Elec       q    Type
REMARK                         _______ _______ _______ _____ _____    ______ ____
ROOT
ATOM      1  C   UNL     1       7.762   7.746  17.860  0.00  0.00    +0.000 A 
ATOM      2  C   UNL     1       8.169   6.816  18.824  0.00  0.00    +0.000 A 
ATOM      3  C   UNL     1       7.774   5.479  18.751  0.00  0.00    +0.000 A 
ATOM      4  C   UNL     1       6.965   5.050  17.700  0.00  0.00    +0.000 A 
ATOM      5  C   UNL     1       6.544   5.955  16.715  0.00  0.00    +0.000 A 
ATOM      6  C   UNL     1       6.950   7.300  16.806  0.00  0.00    +0.000 A 
ENDROOT
BRANCH   5   7
ATOM      7  C   UNL     1       5.677   5.506  15.565  0.00  0.00    +0.000 C 
ATOM      8  F   UNL     1       4.959   6.516  14.999  0.00  0.00    +0.000 F 
ATOM      9  F   UNL     1       6.398   4.949  14.553  0.00  0.00    +0.000 F 
ATOM     10  F   UNL     1       4.765   4.565  15.936  0.00  0.00    +0.000 F 
ENDBRANCH   5   7
BRANCH   1  12
ATOM     11  N   UNL     1       8.941   9.243  18.999  0.00  0.00    +0.000 NA
ATOM     12  N   UNL     1       8.258   9.062  17.970  0.00  0.00    +0.000 NA
BRANCH  11  16
ATOM     13  C   UNL     1      10.782  13.422  17.224  0.00  0.00    +0.000 C 
ATOM     14  N   UNL     1      10.383  12.596  18.362  0.00  0.00    +0.000 N 
ATOM     15  C   UNL     1       9.886  11.320  18.201  0.00  0.00    +0.000 C 
ATOM     16  C   UNL     1       9.451  10.513  19.181  0.00  0.00    +0.000 C 
ATOM     17  C   UNL     1       9.462  11.002  20.598  0.00  0.00    +0.000 C 
ATOM     18  C   UNL     1      10.031  12.401  20.853  0.00  0.00    +0.000 C 
ATOM     19  C   UNL     1      10.408  13.273  19.655  0.00  0.00    +0.000 C 
ENDBRANCH  11  16
ENDBRANCH   1  12
TORSDOF 3
ENDMDL
MODEL 2
REMARK VINA RESULT:      -7.0      0.800      1.882
REMARK  Name = 
REMARK  4 active torsions:
REMARK  status: ('A' for Active; 'I' for Inactive)
REMARK    1  A    between atoms: C_1  and  N_2
REMARK    2  A    between atoms: C_4  and  N_5
REMARK    3  A    between atoms: N_6  and  C_7
REMARK    4  A    between atoms: C_11  and  C_12
REMARK                            x       y       z     vdW  Elec       q    Type
REMARK                         _______ _______ _______ _____ _____    ______ ____
ROOT
ATOM      1  C   UNL     1       7.764   7.570  17.828  0.00  0.00    +0.000 A 
ATOM      2  C   UNL     1       8.108   6.711  18.879  0.00  0.00    +0.000 A 
ATOM      3  C   UNL     1       7.843   5.342  18.810  0.00  0.00    +0.000 A 
ATOM      4  C   UNL     1       7.230   4.810  17.678  0.00  0.00    +0.000 A 
ATOM      5  C   UNL     1       6.877   5.641  16.605  0.00  0.00    +0.000 A 
ATOM      6  C   UNL     1       7.150   7.020  16.692  0.00  0.00    +0.000 A 
ENDROOT
BRANCH   5   7
ATOM      7  C   UNL     1       6.223   5.080  15.367  0.00  0.00    +0.000 C 
ATOM      8  F   UNL     1       5.626   3.872  15.569  0.00  0.00    +0.000 F 
ATOM      9  F   UNL     1       5.252   5.896  14.872  0.00  0.00    +0.000 F 
ATOM     10  F   UNL     1       7.109   4.891  14.350  0.00  0.00    +0.000 F 
ENDBRANCH   5   7
BRANCH   1  12
ATOM     11  N   UNL     1       8.885   9.149  18.913  0.00  0.00    +0.000 NA
ATOM     12  N   UNL     1       8.125   8.928  17.948  0.00  0.00    +0.000 NA
BRANCH  11  16
ATOM     13  C   UNL     1       9.604  13.036  21.808  0.00  0.00    +0.000 C 
ATOM     14  N   UNL     1       9.631  12.422  20.482  0.00  0.00    +0.000 N 
ATOM     15  C   UNL     1       9.234  11.118  20.271  0.00  0.00    +0.000 C 
ATOM     16  C   UNL     1       9.272  10.461  19.102  0.00  0.00    +0.000 C 
ATOM     17  C   UNL     1       9.807  11.152  17.885  0.00  0.00    +0.000 C 
ATOM     18  C   UNL     1      10.237  12.615  18.040  0.00  0.00    +0.000 C 
ATOM     19  C   UNL     1      10.244  13.237  19.437  0.00  0.00    +0.000 C 
ENDBRANCH  11  16
ENDBRANCH   1  12
TORSDOF 3
ENDMDL
MODEL 3
REMARK VINA RESULT:      -7.0      7.236      8.189
REMARK  Name = 
REMARK  4 active torsions:
REMARK  status: ('A' for Active; 'I' for Inactive)
REMARK    1  A    between atoms: C_1  and  N_2
REMARK    2  A    between atoms: C_4  and  N_5
REMARK    3  A    between atoms: N_6  and  C_7
REMARK    4  A    between atoms: C_11  and  C_12
REMARK                            x       y       z     vdW  Elec       q    Type
REMARK                         _______ _______ _______ _____ _____    ______ ____
ROOT
ATOM      1  C   UNL     1       2.296   6.619  19.749  0.00  0.00    +0.000 A 
ATOM      2  C   UNL     1       3.036   6.488  18.568  0.00  0.00    +0.000 A 
ATOM      3  C   UNL     1       3.450   5.235  18.111  0.00  0.00    +0.000 A 
ATOM      4  C   UNL     1       3.121   4.089  18.832  0.00  0.00    +0.000 A 
ATOM      5  C   UNL     1       2.378   4.186  20.017  0.00  0.00    +0.000 A 
ATOM      6  C   UNL     1       1.970   5.456  20.465  0.00  0.00    +0.000 A 
ENDROOT
BRANCH   5   7
ATOM      7  C   UNL     1       2.004   2.954  20.804  0.00  0.00    +0.000 C 
ATOM      8  F   UNL     1       2.985   2.532  21.650  0.00  0.00    +0.000 F 
ATOM      9  F   UNL     1       0.900   3.143  21.579  0.00  0.00    +0.000 F 
ATOM     10  F   UNL     1       1.721   1.889  20.003  0.00  0.00    +0.000 F 
ENDBRANCH   5   7
BRANCH   1  12
ATOM     11  N   UNL     1       1.056   7.909  21.063  0.00  0.00    +0.000 NA
ATOM     12  N   UNL     1       1.861   7.912  20.108  0.00  0.00    +0.000 NA
BRANCH  11  16
ATOM     13  C   UNL     1       0.717  12.767  20.517  0.00  0.00    +0.000 C 
ATOM     14  N   UNL     1       0.385  11.548  21.253  0.00  0.00    +0.000 N 
ATOM     15  C   UNL     1       0.868  10.312  20.878  0.00  0.00    +0.000 C 
ATOM     16  C   UNL     1       0.575   9.140  21.463  0.00  0.00    +0.000 C 
ATOM     17  C   UNL     1      -0.375   9.111  22.621  0.00  0.00    +0.000 C 
ATOM     18  C   UNL     1      -0.925  10.455  23.112  0.00  0.00    +0.000 C 
ATOM     19  C   UNL     1      -0.605  11.719  22.312  0.00  0.00    +0.000 C 
ENDBRANCH  11  16
ENDBRANCH   1  12
TORSDOF 3
ENDMDL
MODEL 4
REMARK VINA RESULT:      -6.9      1.089      1.716
REMARK  Name = 
REMARK  4 active torsions:
REMARK  status: ('A' for Active; 'I' for Inactive)
REMARK    1  A    between atoms: C_1  and  N_2
REMARK    2  A    between atoms: C_4  and  N_5
REMARK    3  A    between atoms: N_6  and  C_7
REMARK    4  A    between atoms: C_11  and  C_12
REMARK                            x       y       z     vdW  Elec       q    Type
REMARK                         _______ _______ _______ _____ _____    ______ ____
ROOT
ATOM      1  C   UNL     1       7.610   7.386  17.637  0.00  0.00    +0.000 A 
ATOM      2  C   UNL     1       7.974   6.656  18.775  0.00  0.00    +0.000 A 
ATOM      3  C   UNL     1       7.807   5.271  18.829  0.00  0.00    +0.000 A 
ATOM      4  C   UNL     1       7.274   4.592  17.735  0.00  0.00    +0.000 A 
ATOM      5  C   UNL     1       6.903   5.293  16.578  0.00  0.00    +0.000 A 
ATOM      6  C   UNL     1       7.076   6.689  16.541  0.00  0.00    +0.000 A 
ENDROOT
BRANCH   5   7
ATOM      7  C   UNL     1       6.335   4.572  15.381  0.00  0.00    +0.000 C 
ATOM      8  F   UNL     1       7.174   4.558  14.307  0.00  0.00    +0.000 F 
ATOM      9  F   UNL     1       6.045   3.268  15.644  0.00  0.00    +0.000 F 
ATOM     10  F   UNL     1       5.175   5.131  14.938  0.00  0.00    +0.000 F 
ENDBRANCH   5   7
BRANCH   1  12
ATOM     11  N   UNL     1       8.722   9.109  18.487  0.00  0.00    +0.000 NA
ATOM     12  N   UNL     1       7.871   8.772  17.637  0.00  0.00    +0.000 NA
BRANCH  11  16
ATOM     13  C   UNL     1      11.401  12.826  20.221  0.00  0.00    +0.000 C 
ATOM     14  N   UNL     1      10.302  12.336  19.392  0.00  0.00    +0.000 N 
ATOM     15  C   UNL     1       9.978  10.997  19.323  0.00  0.00    +0.000 C 
ATOM     16  C   UNL     1       9.021  10.455  18.554  0.00  0.00    +0.000 C 
ATOM     17  C   UNL     1       8.215  11.337  17.649  0.00  0.00    +0.000 C 
ATOM     18  C   UNL     1       8.501  12.841  17.698  0.00  0.00    +0.000 C 
ATOM     19  C   UNL     1       9.679  13.341  18.537  0.00  0.00    +0.000 C 
ENDBRANCH  11  16
ENDBRANCH   1  12
TORSDOF 3
ENDMDL
MODEL 5
REMARK VINA RESULT:      -6.8      6.584      8.185
REMARK  Name = 
REMARK  4 active torsions:
REMARK  status: ('A' for Active; 'I' for Inactive)
REMARK    1  A    between atoms: C_1  and  N_2
REMARK    2  A    between atoms: C_4  and  N_5
REMARK    3  A    between atoms: N_6  and  C_7
REMARK    4  A    between atoms: C_11  and  C_12
REMARK                            x       y       z     vdW  Elec       q    Type
REMARK                         _______ _______ _______ _____ _____    ______ ____
ROOT
ATOM      1  C   UNL     1       3.944   4.208  17.457  0.00  0.00    +0.000 A 
ATOM      2  C   UNL     1       4.618   5.144  18.251  0.00  0.00    +0.000 A 
ATOM      3  C   UNL     1       4.170   5.457  19.536  0.00  0.00    +0.000 A 
ATOM      4  C   UNL     1       3.037   4.828  20.049  0.00  0.00    +0.000 A 
ATOM      5  C   UNL     1       2.342   3.883  19.281  0.00  0.00    +0.000 A 
ATOM      6  C   UNL     1       2.806   3.581  17.987  0.00  0.00    +0.000 A 
ENDROOT
BRANCH   5   7
ATOM      7  C   UNL     1       1.120   3.186  19.826  0.00  0.00    +0.000 C 
ATOM      8  F   UNL     1       0.425   2.492  18.882  0.00  0.00    +0.000 F 
ATOM      9  F   UNL     1       1.422   2.286  20.802  0.00  0.00    +0.000 F 
ATOM     10  F   UNL     1       0.228   4.053  20.380  0.00  0.00    +0.000 F 
ENDBRANCH   5   7
BRANCH   1  12
ATOM     11  N   UNL     1       5.396   4.694  15.850  0.00  0.00    +0.000 NA
ATOM     12  N   UNL     1       4.498   3.900  16.197  0.00  0.00    +0.000 NA
BRANCH  11  16
ATOM     13  C   UNL     1       5.492   2.423  11.510  0.00  0.00    +0.000 C 
ATOM     14  N   UNL     1       6.086   3.357  12.464  0.00  0.00    +0.000 N 
ATOM     15  C   UNL     1       5.529   3.590  13.704  0.00  0.00    +0.000 C 
ATOM     16  C   UNL     1       5.978   4.463  14.619  0.00  0.00    +0.000 C 
ATOM     17  C   UNL     1       7.178   5.304  14.309  0.00  0.00    +0.000 C 
ATOM     18  C   UNL     1       7.867   5.074  12.960  0.00  0.00    +0.000 C 
ATOM     19  C   UNL     1       7.216   4.126  11.952  0.00  0.00    +0.000 C 
ENDBRANCH  11  16
ENDBRANCH   1  12
TORSDOF 3
ENDMDL
MODEL 6
REMARK VINA RESULT:      -6.8      6.028      8.178
REMARK  Name = 
REMARK  4 active torsions:
REMARK  status: ('A' for Active; 'I' for Inactive)
REMARK    1  A    between atoms: C_1  and  N_2
REMARK    2  A    between atoms: C_4  and  N_5
REMARK    3  A    between atoms: N_6  and  C_7
REMARK    4  A    between atoms: C_11  and  C_12
REMARK                            x       y       z     vdW  Elec       q    Type
REMARK                         _______ _______ _______ _____ _____    ______ ____
ROOT
ATOM      1  C   UNL     1       5.629   4.418  15.915  0.00  0.00    +0.000 A 
ATOM      2  C   UNL     1       6.826   5.135  16.022  0.00  0.00    +0.000 A 
ATOM      3  C   UNL     1       7.674   5.294  14.923  0.00  0.00    +0.000 A 
ATOM      4  C   UNL     1       7.328   4.738  13.694  0.00  0.00    +0.000 A 
ATOM      5  C   UNL     1       6.134   4.017  13.552  0.00  0.00    +0.000 A 
ATOM      6  C   UNL     1       5.292   3.865  14.670  0.00  0.00    +0.000 A 
ENDROOT
BRANCH   5   7
ATOM      7  C   UNL     1       5.739   3.418  12.225  0.00  0.00    +0.000 C 
ATOM      8  F   UNL     1       5.861   2.062  12.184  0.00  0.00    +0.000 F 
ATOM      9  F   UNL     1       4.446   3.685  11.893  0.00  0.00    +0.000 F 
ATOM     10  F   UNL     1       6.495   3.889  11.194  0.00  0.00    +0.000 F 
ENDBRANCH   5   7
BRANCH   1  12
ATOM     11  N   UNL     1       3.714   3.778  16.837  0.00  0.00    +0.000 NA
ATOM     12  N   UNL     1       4.797   4.359  17.053  0.00  0.00    +0.000 NA
BRANCH  11  16
ATOM     13  C   UNL     1       1.606   5.700  20.821  0.00  0.00    +0.000 C 
ATOM     14  N   UNL     1       1.778   4.584  19.892  0.00  0.00    +0.000 N 
ATOM     15  C   UNL     1       2.656   4.645  18.830  0.00  0.00    +0.000 C 
ATOM     16  C   UNL     1       2.840   3.692  17.904  0.00  0.00    +0.000 C 
ATOM     17  C   UNL     1       2.028   2.435  17.967  0.00  0.00    +0.000 C 
ATOM     18  C   UNL     1       1.054   2.287  19.141  0.00  0.00    +0.000 C 
ATOM     19  C   UNL     1       0.851   3.473  20.084  0.00  0.00    +0.000 C 
ENDBRANCH  11  16
ENDBRANCH   1  12
TORSDOF 3
ENDMDL
MODEL 7
REMARK VINA RESULT:      -6.8      5.566      7.060
REMARK  Name = 
REMARK  4 active torsions:
REMARK  status: ('A' for Active; 'I' for Inactive)
REMARK    1  A    between atoms: C_1  and  N_2
REMARK    2  A    between atoms: C_4  and  N_5
REMARK    3  A    between atoms: N_6  and  C_7
REMARK    4  A    between atoms: C_11  and  C_12
REMARK                            x       y       z     vdW  Elec       q    Type
REMARK                         _______ _______ _______ _____ _____    ______ ____
ROOT
ATOM      1  C   UNL     1       3.422   6.336  17.823  0.00  0.00    +0.000 A 
ATOM      2  C   UNL     1       2.787   5.090  17.872  0.00  0.00    +0.000 A 
ATOM      3  C   UNL     1       3.464   3.920  17.520  0.00  0.00    +0.000 A 
ATOM      4  C   UNL     1       4.797   3.983  17.118  0.00  0.00    +0.000 A 
ATOM      5  C   UNL     1       5.463   5.216  17.063  0.00  0.00    +0.000 A 
ATOM      6  C   UNL     1       4.765   6.385  17.418  0.00  0.00    +0.000 A 
ENDROOT
BRANCH   5   7
ATOM      7  C   UNL     1       6.908   5.301  16.639  0.00  0.00    +0.000 C 
ATOM      8  F   UNL     1       7.708   4.383  17.251  0.00  0.00    +0.000 F 
ATOM      9  F   UNL     1       7.075   5.106  15.302  0.00  0.00    +0.000 F 
ATOM     10  F   UNL     1       7.462   6.515  16.912  0.00  0.00    +0.000 F 
ENDBRANCH   5   7
BRANCH   1  12
ATOM     11  N   UNL     1       2.209   7.320  19.401  0.00  0.00    +0.000 NA
ATOM     12  N   UNL     1       2.689   7.461  18.257  0.00  0.00    +0.000 NA
BRANCH  11  16
ATOM     13  C   UNL     1      -0.067   9.631  23.073  0.00  0.00    +0.000 C 
ATOM     14  N   UNL     1       0.309   9.557  21.662  0.00  0.00    +0.000 N 
ATOM     15  C   UNL     1       1.037   8.502  21.154  0.00  0.00    +0.000 C 
ATOM     16  C   UNL     1       1.467   8.378  19.889  0.00  0.00    +0.000 C 
ATOM     17  C   UNL     1       1.178   9.467  18.901  0.00  0.00    +0.000 C 
ATOM     18  C   UNL     1       0.345  10.656  19.392  0.00  0.00    +0.000 C 
ATOM     19  C   UNL     1      -0.010  10.745  20.876  0.00  0.00    +0.000 C 
ENDBRANCH  11  16
ENDBRANCH   1  12
TORSDOF 3
ENDMDL
MODEL 8
REMARK VINA RESULT:      -6.8      5.668      6.738
REMARK  Name = 
REMARK  4 active torsions:
REMARK  status: ('A' for Active; 'I' for Inactive)
REMARK    1  A    between atoms: C_1  and  N_2
REMARK    2  A    between atoms: C_4  and  N_5
REMARK    3  A    between atoms: N_6  and  C_7
REMARK    4  A    between atoms: C_11  and  C_12
REMARK                            x       y       z     vdW  Elec       q    Type
REMARK                         _______ _______ _______ _____ _____    ______ ____
ROOT
ATOM      1  C   UNL     1       3.646   5.724  18.280  0.00  0.00    +0.000 A 
ATOM      2  C   UNL     1       2.936   4.612  17.813  0.00  0.00    +0.000 A 
ATOM      3  C   UNL     1       3.550   3.645  17.014  0.00  0.00    +0.000 A 
ATOM      4  C   UNL     1       4.895   3.778  16.675  0.00  0.00    +0.000 A 
ATOM      5  C   UNL     1       5.636   4.877  17.130  0.00  0.00    +0.000 A 
ATOM      6  C   UNL     1       5.001   5.844  17.932  0.00  0.00    +0.000 A 
ENDROOT
BRANCH   5   7
ATOM      7  C   UNL     1       7.096   5.030  16.780  0.00  0.00    +0.000 C 
ATOM      8  F   UNL     1       7.383   4.699  15.490  0.00  0.00    +0.000 F 
ATOM      9  F   UNL     1       7.543   6.306  16.945  0.00  0.00    +0.000 F 
ATOM     10  F   UNL     1       7.902   4.249  17.552  0.00  0.00    +0.000 F 
ENDBRANCH   5   7
BRANCH   1  12
ATOM     11  N   UNL     1       2.390   7.538  18.520  0.00  0.00    +0.000 NA
ATOM     12  N   UNL     1       2.971   6.621  19.135  0.00  0.00    +0.000 NA
BRANCH  11  16
ATOM     13  C   UNL     1      -0.008  11.782  19.015  0.00  0.00    +0.000 C 
ATOM     14  N   UNL     1       0.538  10.559  19.602  0.00  0.00    +0.000 N 
ATOM     15  C   UNL     1       1.226   9.631  18.849  0.00  0.00    +0.000 C 
ATOM     16  C   UNL     1       1.716   8.463  19.293  0.00  0.00    +0.000 C 
ATOM     17  C   UNL     1       1.505   8.071  20.723  0.00  0.00    +0.000 C 
ATOM     18  C   UNL     1       0.774   9.071  21.625  0.00  0.00    +0.000 C 
ATOM     19  C   UNL     1       0.172  10.328  20.996  0.00  0.00    +0.000 C 
ENDBRANCH  11  16
ENDBRANCH   1  12
TORSDOF 3
ENDMDL
MODEL 9
REMARK VINA RESULT:      -6.7      6.269      8.067
REMARK  Name = 
REMARK  4 active torsions:
REMARK  status: ('A' for Active; 'I' for Inactive)
REMARK    1  A    between atoms: C_1  and  N_2
REMARK    2  A    between atoms: C_4  and  N_5
REMARK    3  A    between atoms: N_6  and  C_7
REMARK    4  A    between atoms: C_11  and  C_12
REMARK                            x       y       z     vdW  Elec       q    Type
REMARK                         _______ _______ _______ _____ _____    ______ ____
ROOT
ATOM      1  C   UNL     1       2.375   7.743  18.751  0.00  0.00    +0.000 A 
ATOM      2  C   UNL     1       2.024   8.661  17.755  0.00  0.00    +0.000 A 
ATOM      3  C   UNL     1       1.125   9.699  18.012  0.00  0.00    +0.000 A 
ATOM      4  C   UNL     1       0.567   9.835  19.281  0.00  0.00    +0.000 A 
ATOM      5  C   UNL     1       0.901   8.935  20.303  0.00  0.00    +0.000 A 
ATOM      6  C   UNL     1       1.807   7.893  20.026  0.00  0.00    +0.000 A 
ENDROOT
BRANCH   5   7
ATOM      7  C   UNL     1       0.314   9.074  21.686  0.00  0.00    +0.000 C 
ATOM      8  F   UNL     1       1.214   8.847  22.683  0.00  0.00    +0.000 F 
ATOM      9  F   UNL     1      -0.191  10.317  21.917  0.00  0.00    +0.000 F 
ATOM     10  F   UNL     1      -0.712   8.206  21.907  0.00  0.00    +0.000 F 
ENDBRANCH   5   7
BRANCH   1  12
ATOM     11  N   UNL     1       4.110   7.121  17.515  0.00  0.00    +0.000 NA
ATOM     12  N   UNL     1       3.339   6.765  18.429  0.00  0.00    +0.000 NA
BRANCH  11  16
ATOM     13  C   UNL     1       6.191   4.223  14.156  0.00  0.00    +0.000 C 
ATOM     14  N   UNL     1       6.135   4.743  15.521  0.00  0.00    +0.000 N 
ATOM     15  C   UNL     1       5.171   5.643  15.922  0.00  0.00    +0.000 C 
ATOM     16  C   UNL     1       5.075   6.208  17.136  0.00  0.00    +0.000 C 
ATOM     17  C   UNL     1       6.096   5.883  18.183  0.00  0.00    +0.000 C 
ATOM     18  C   UNL     1       7.179   4.864  17.815  0.00  0.00    +0.000 C 
ATOM     19  C   UNL     1       7.255   4.356  16.374  0.00  0.00    +0.000 C 
ENDBRANCH  11  16
ENDBRANCH   1  12
TORSDOF 3
ENDMDL
