MODEL 1
REMARK VINA RESULT:      -9.6      0.000      0.000
REMARK  Name = 
REMARK  4 active torsions:
REMARK  status: ('A' for Active; 'I' for Inactive)
REMARK    1  A    between atoms: C_2  and  C_3
REMARK    2  A    between atoms: C_2  and  C_15
REMARK    3  A    between atoms: C_11  and  C_12
REMARK    4  A    between atoms: C_17  and  C_18
REMARK                            x       y       z     vdW  Elec       q    Type
REMARK                         _______ _______ _______ _____ _____    ______ ____
ROOT
ATOM      1  C   UNL     1       3.414   8.113  17.323  0.00  0.00    +0.000 C 
ATOM      2  C   UNL     1       2.902   7.431  18.362  0.00  0.00    +0.000 C 
ENDROOT
BRANCH   2   3
ATOM      3  C   UNL     1       1.841   8.121  19.215  0.00  0.00    +0.000 A 
ATOM      4  C   UNL     1       1.686   7.935  20.607  0.00  0.00    +0.000 A 
ATOM      5  C   UNL     1       0.907   8.821  21.415  0.00  0.00    +0.000 A 
ATOM      6  C   UNL     1       0.290   9.945  20.790  0.00  0.00    +0.000 A 
ATOM      7  C   UNL     1       0.412  10.099  19.397  0.00  0.00    +0.000 A 
ATOM      8  C   UNL     1      -0.269  11.278  19.046  0.00  0.00    +0.000 A 
ATOM      9  C   UNL     1      -0.775  11.827  20.192  0.00  0.00    +0.000 A 
ATOM     10  N   UNL     1      -0.444  11.039  21.288  0.00  0.00    +0.000 N 
ATOM     11  C   UNL     1      -0.771  11.310  22.646  0.00  0.00    +0.000 C 
ATOM     12  C   UNL     1      -1.552  12.580  22.935  0.00  0.00    +0.000 C 
ATOM     13  O   UNL     1      -0.444  10.517  23.522  0.00  0.00    +0.000 OA
ATOM     14  C   UNL     1       1.167   9.183  18.634  0.00  0.00    +0.000 A 
ENDBRANCH   2   3
BRANCH   2  15
ATOM     15  C   UNL     1       2.953   5.924  18.317  0.00  0.00    +0.000 A 
ATOM     16  C   UNL     1       3.966   5.577  17.425  0.00  0.00    +0.000 A 
ATOM     17  C   UNL     1       4.424   4.325  17.614  0.00  0.00    +0.000 A 
ATOM     18  C   UNL     1       5.203   4.169  18.945  0.00  0.00    +0.000 C 
ATOM     19  N   UNL     1       3.469   3.431  17.393  0.00  0.00    +0.000 NA
ATOM     20  C   UNL     1       2.374   3.619  18.126  0.00  0.00    +0.000 A 
ATOM     21  C   UNL     1       1.512   2.541  18.217  0.00  0.00    +0.000 A 
ATOM     22  C   UNL     1       0.833   2.295  19.386  0.00  0.00    +0.000 A 
ATOM     23  C   UNL     1       0.989   3.211  20.417  0.00  0.00    +0.000 A 
ATOM     24  C   UNL     1       1.575   4.488  20.167  0.00  0.00    +0.000 A 
ATOM     25  C   UNL     1       2.234   4.780  18.919  0.00  0.00    +0.000 A 
ENDBRANCH   2  15
TORSDOF 2
ENDMDL
MODEL 2
REMARK VINA RESULT:      -9.3      2.061      3.978
REMARK  Name = 
REMARK  4 active torsions:
REMARK  status: ('A' for Active; 'I' for Inactive)
REMARK    1  A    between atoms: C_2  and  C_3
REMARK    2  A    between atoms: C_2  and  C_15
REMARK    3  A    between atoms: C_11  and  C_12
REMARK    4  A    between atoms: C_17  and  C_18
REMARK                            x       y       z     vdW  Elec       q    Type
REMARK                         _______ _______ _______ _____ _____    ______ ____
ROOT
ATOM      1  C   UNL     1       1.773   5.120  17.867  0.00  0.00    +0.000 C 
ATOM      2  C   UNL     1       2.704   6.087  17.939  0.00  0.00    +0.000 C 
ENDROOT
BRANCH   2   3
ATOM      3  C   UNL     1       2.292   7.433  18.527  0.00  0.00    +0.000 A 
ATOM      4  C   UNL     1       1.877   8.548  17.764  0.00  0.00    +0.000 A 
ATOM      5  C   UNL     1       1.204   9.667  18.348  0.00  0.00    +0.000 A 
ATOM      6  C   UNL     1       0.922   9.636  19.745  0.00  0.00    +0.000 A 
ATOM      7  C   UNL     1       1.377   8.543  20.506  0.00  0.00    +0.000 A 
ATOM      8  C   UNL     1       0.958   8.754  21.833  0.00  0.00    +0.000 A 
ATOM      9  C   UNL     1       0.261   9.930  21.870  0.00  0.00    +0.000 A 
ATOM     10  N   UNL     1       0.210  10.497  20.602  0.00  0.00    +0.000 N 
ATOM     11  C   UNL     1      -0.457  11.704  20.249  0.00  0.00    +0.000 C 
ATOM     12  C   UNL     1      -1.186  12.447  21.355  0.00  0.00    +0.000 C 
ATOM     13  O   UNL     1      -0.403  12.115  19.096  0.00  0.00    +0.000 OA
ATOM     14  C   UNL     1       2.064   7.474  19.893  0.00  0.00    +0.000 A 
ENDBRANCH   2   3
BRANCH   2  15
ATOM     15  C   UNL     1       4.155   5.675  17.975  0.00  0.00    +0.000 A 
ATOM     16  C   UNL     1       4.182   4.287  18.105  0.00  0.00    +0.000 A 
ATOM     17  C   UNL     1       5.349   3.746  17.707  0.00  0.00    +0.000 A 
ATOM     18  C   UNL     1       5.567   3.855  16.176  0.00  0.00    +0.000 C 
ATOM     19  N   UNL     1       6.352   4.168  18.467  0.00  0.00    +0.000 NA
ATOM     20  C   UNL     1       6.470   5.493  18.517  0.00  0.00    +0.000 A 
ATOM     21  C   UNL     1       7.683   5.977  18.973  0.00  0.00    +0.000 A 
ATOM     22  C   UNL     1       8.217   7.123  18.434  0.00  0.00    +0.000 A 
ATOM     23  C   UNL     1       7.454   7.799  17.491  0.00  0.00    +0.000 A 
ATOM     24  C   UNL     1       6.072   7.486  17.322  0.00  0.00    +0.000 A 
ATOM     25  C   UNL     1       5.485   6.322  17.935  0.00  0.00    +0.000 A 
ENDBRANCH   2  15
TORSDOF 2
ENDMDL
MODEL 3
REMARK VINA RESULT:      -9.1      1.883      3.727
REMARK  Name = 
REMARK  4 active torsions:
REMARK  status: ('A' for Active; 'I' for Inactive)
REMARK    1  A    between atoms: C_2  and  C_3
REMARK    2  A    between atoms: C_2  and  C_15
REMARK    3  A    between atoms: C_11  and  C_12
REMARK    4  A    between atoms: C_17  and  C_18
REMARK                            x       y       z     vdW  Elec       q    Type
REMARK                         _______ _______ _______ _____ _____    ______ ____
ROOT
ATOM      1  C   UNL     1       1.388   5.066  20.522  0.00  0.00    +0.000 C 
ATOM      2  C   UNL     1       2.151   5.878  19.769  0.00  0.00    +0.000 C 
ENDROOT
BRANCH   2   3
ATOM      3  C   UNL     1       1.909   7.381  19.871  0.00  0.00    +0.000 A 
ATOM      4  C   UNL     1       1.903   8.268  18.771  0.00  0.00    +0.000 A 
ATOM      5  C   UNL     1       1.367   9.591  18.858  0.00  0.00    +0.000 A 
ATOM      6  C   UNL     1       0.797  10.012  20.096  0.00  0.00    +0.000 A 
ATOM      7  C   UNL     1       0.846   9.140  21.199  0.00  0.00    +0.000 A 
ATOM      8  C   UNL     1       0.211   9.788  22.273  0.00  0.00    +0.000 A 
ATOM      9  C   UNL     1      -0.221  11.007  21.831  0.00  0.00    +0.000 A 
ATOM     10  N   UNL     1       0.113  11.178  20.492  0.00  0.00    +0.000 N 
ATOM     11  C   UNL     1      -0.201  12.308  19.686  0.00  0.00    +0.000 C 
ATOM     12  C   UNL     1      -0.978  13.437  20.340  0.00  0.00    +0.000 C 
ATOM     13  O   UNL     1       0.177  12.350  18.521  0.00  0.00    +0.000 OA
ATOM     14  C   UNL     1       1.413   7.853  21.074  0.00  0.00    +0.000 A 
ENDBRANCH   2   3
BRANCH   2  15
ATOM     15  C   UNL     1       3.499   5.371  19.320  0.00  0.00    +0.000 A 
ATOM     16  C   UNL     1       3.620   4.064  19.789  0.00  0.00    +0.000 A 
ATOM     17  C   UNL     1       4.535   3.347  19.109  0.00  0.00    +0.000 A 
ATOM     18  C   UNL     1       4.098   3.048  17.653  0.00  0.00    +0.000 C 
ATOM     19  N   UNL     1       5.749   3.864  19.257  0.00  0.00    +0.000 NA
ATOM     20  C   UNL     1       5.836   5.144  18.903  0.00  0.00    +0.000 A 
ATOM     21  C   UNL     1       7.113   5.627  18.684  0.00  0.00    +0.000 A 
ATOM     22  C   UNL     1       7.342   6.552  17.693  0.00  0.00    +0.000 A 
ATOM     23  C   UNL     1       6.237   7.028  16.999  0.00  0.00    +0.000 A 
ATOM     24  C   UNL     1       4.919   6.797  17.494  0.00  0.00    +0.000 A 
ATOM     25  C   UNL     1       4.673   5.877  18.576  0.00  0.00    +0.000 A 
ENDBRANCH   2  15
TORSDOF 2
ENDMDL
MODEL 4
REMARK VINA RESULT:      -9.1      1.663      2.334
REMARK  Name = 
REMARK  4 active torsions:
REMARK  status: ('A' for Active; 'I' for Inactive)
REMARK    1  A    between atoms: C_2  and  C_3
REMARK    2  A    between atoms: C_2  and  C_15
REMARK    3  A    between atoms: C_11  and  C_12
REMARK    4  A    between atoms: C_17  and  C_18
REMARK                            x       y       z     vdW  Elec       q    Type
REMARK                         _______ _______ _______ _____ _____    ______ ____
ROOT
ATOM      1  C   UNL     1       4.255   6.720  17.092  0.00  0.00    +0.000 C 
ATOM      2  C   UNL     1       3.404   6.596  18.125  0.00  0.00    +0.000 C 
ENDROOT
BRANCH   2   3
ATOM      3  C   UNL     1       2.642   7.840  18.575  0.00  0.00    +0.000 A 
ATOM      4  C   UNL     1       2.205   8.869  17.711  0.00  0.00    +0.000 A 
ATOM      5  C   UNL     1       1.235   9.842  18.109  0.00  0.00    +0.000 A 
ATOM      6  C   UNL     1       0.675   9.746  19.417  0.00  0.00    +0.000 A 
ATOM      7  C   UNL     1       1.147   8.746  20.287  0.00  0.00    +0.000 A 
ATOM      8  C   UNL     1       0.428   8.864  21.490  0.00  0.00    +0.000 A 
ATOM      9  C   UNL     1      -0.460   9.894  21.347  0.00  0.00    +0.000 A 
ATOM     10  N   UNL     1      -0.344  10.456  20.081  0.00  0.00    +0.000 N 
ATOM     11  C   UNL     1      -1.126  11.526  19.563  0.00  0.00    +0.000 C 
ATOM     12  C   UNL     1      -2.192  12.114  20.470  0.00  0.00    +0.000 C 
ATOM     13  O   UNL     1      -0.905  11.951  18.435  0.00  0.00    +0.000 OA
ATOM     14  C   UNL     1       2.128   7.825  19.861  0.00  0.00    +0.000 A 
ENDBRANCH   2   3
BRANCH   2  15
ATOM     15  C   UNL     1       2.831   5.231  18.414  0.00  0.00    +0.000 A 
ATOM     16  C   UNL     1       2.612   4.612  17.185  0.00  0.00    +0.000 A 
ATOM     17  C   UNL     1       2.536   3.270  17.280  0.00  0.00    +0.000 A 
ATOM     18  C   UNL     1       3.895   2.620  17.644  0.00  0.00    +0.000 C 
ATOM     19  N   UNL     1       1.500   2.904  18.024  0.00  0.00    +0.000 NA
ATOM     20  C   UNL     1       1.497   3.437  19.243  0.00  0.00    +0.000 A 
ATOM     21  C   UNL     1       0.673   2.824  20.170  0.00  0.00    +0.000 A 
ATOM     22  C   UNL     1       1.061   2.732  21.485  0.00  0.00    +0.000 A 
ATOM     23  C   UNL     1       2.254   3.347  21.842  0.00  0.00    +0.000 A 
ATOM     24  C   UNL     1       2.880   4.276  20.958  0.00  0.00    +0.000 A 
ATOM     25  C   UNL     1       2.440   4.428  19.594  0.00  0.00    +0.000 A 
ENDBRANCH   2  15
TORSDOF 2
ENDMDL
MODEL 5
REMARK VINA RESULT:      -9.0      2.905      7.877
REMARK  Name = 
REMARK  4 active torsions:
REMARK  status: ('A' for Active; 'I' for Inactive)
REMARK    1  A    between atoms: C_2  and  C_3
REMARK    2  A    between atoms: C_2  and  C_15
REMARK    3  A    between atoms: C_11  and  C_12
REMARK    4  A    between atoms: C_17  and  C_18
REMARK                            x       y       z     vdW  Elec       q    Type
REMARK                         _______ _______ _______ _____ _____    ______ ____
ROOT
ATOM      1  C   UNL     1       0.809   8.516  21.553  0.00  0.00    +0.000 C 
ATOM      2  C   UNL     1       1.080   9.025  20.339  0.00  0.00    +0.000 C 
ENDROOT
BRANCH   2   3
ATOM      3  C   UNL     1       1.805   8.133  19.336  0.00  0.00    +0.000 A 
ATOM      4  C   UNL     1       2.266   8.560  18.070  0.00  0.00    +0.000 A 
ATOM      5  C   UNL     1       3.205   7.801  17.302  0.00  0.00    +0.000 A 
ATOM      6  C   UNL     1       3.709   6.586  17.854  0.00  0.00    +0.000 A 
ATOM      7  C   UNL     1       3.212   6.146  19.094  0.00  0.00    +0.000 A 
ATOM      8  C   UNL     1       3.877   4.947  19.408  0.00  0.00    +0.000 A 
ATOM      9  C   UNL     1       4.757   4.678  18.397  0.00  0.00    +0.000 A 
ATOM     10  N   UNL     1       4.689   5.670  17.426  0.00  0.00    +0.000 N 
ATOM     11  C   UNL     1       5.479   5.743  16.244  0.00  0.00    +0.000 C 
ATOM     12  C   UNL     1       6.497   4.641  16.016  0.00  0.00    +0.000 C 
ATOM     13  O   UNL     1       5.301   6.659  15.448  0.00  0.00    +0.000 OA
ATOM     14  C   UNL     1       2.263   6.912  19.804  0.00  0.00    +0.000 A 
ENDBRANCH   2   3
BRANCH   2  15
ATOM     15  C   UNL     1       0.224  10.162  19.838  0.00  0.00    +0.000 A 
ATOM     16  C   UNL     1       0.574  11.292  20.576  0.00  0.00    +0.000 A 
ATOM     17  C   UNL     1       0.239  12.442  19.961  0.00  0.00    +0.000 A 
ATOM     18  C   UNL     1       1.083  12.707  18.688  0.00  0.00    +0.000 C 
ATOM     19  N   UNL     1      -1.076  12.538  19.815  0.00  0.00    +0.000 NA
ATOM     20  C   UNL     1      -1.623  11.512  19.166  0.00  0.00    +0.000 A 
ATOM     21  C   UNL     1      -2.896  11.720  18.666  0.00  0.00    +0.000 A 
ATOM     22  C   UNL     1      -3.267  11.161  17.466  0.00  0.00    +0.000 A 
ATOM     23  C   UNL     1      -2.348  10.328  16.841  0.00  0.00    +0.000 A 
ATOM     24  C   UNL     1      -1.211   9.843  17.553  0.00  0.00    +0.000 A 
ATOM     25  C   UNL     1      -0.848  10.376  18.842  0.00  0.00    +0.000 A 
ENDBRANCH   2  15
TORSDOF 2
ENDMDL
MODEL 6
REMARK VINA RESULT:      -8.7      1.928      3.719
REMARK  Name = 
REMARK  4 active torsions:
REMARK  status: ('A' for Active; 'I' for Inactive)
REMARK    1  A    between atoms: C_2  and  C_3
REMARK    2  A    between atoms: C_2  and  C_15
REMARK    3  A    between atoms: C_11  and  C_12
REMARK    4  A    between atoms: C_17  and  C_18
REMARK                            x       y       z     vdW  Elec       q    Type
REMARK                         _______ _______ _______ _____ _____    ______ ____
ROOT
ATOM      1  C   UNL     1       1.366   5.056  17.956  0.00  0.00    +0.000 C 
ATOM      2  C   UNL     1       2.423   5.885  18.001  0.00  0.00    +0.000 C 
ENDROOT
BRANCH   2   3
ATOM      3  C   UNL     1       2.209   7.285  18.569  0.00  0.00    +0.000 A 
ATOM      4  C   UNL     1       2.048   8.451  17.788  0.00  0.00    +0.000 A 
ATOM      5  C   UNL     1       1.539   9.672  18.333  0.00  0.00    +0.000 A 
ATOM      6  C   UNL     1       1.158   9.696  19.707  0.00  0.00    +0.000 A 
ATOM      7  C   UNL     1       1.363   8.544  20.489  0.00  0.00    +0.000 A 
ATOM      8  C   UNL     1       0.896   8.830  21.784  0.00  0.00    +0.000 A 
ATOM      9  C   UNL     1       0.411  10.109  21.782  0.00  0.00    +0.000 A 
ATOM     10  N   UNL     1       0.548  10.671  20.518  0.00  0.00    +0.000 N 
ATOM     11  C   UNL     1       0.126  11.974  20.130  0.00  0.00    +0.000 C 
ATOM     12  C   UNL     1      -0.540  12.836  21.188  0.00  0.00    +0.000 C 
ATOM     13  O   UNL     1       0.330  12.364  18.986  0.00  0.00    +0.000 OA
ATOM     14  C   UNL     1       1.897   7.370  19.916  0.00  0.00    +0.000 A 
ENDBRANCH   2   3
BRANCH   2  15
ATOM     15  C   UNL     1       3.803   5.276  18.028  0.00  0.00    +0.000 A 
ATOM     16  C   UNL     1       4.139   5.089  19.369  0.00  0.00    +0.000 A 
ATOM     17  C   UNL     1       5.109   4.170  19.542  0.00  0.00    +0.000 A 
ATOM     18  C   UNL     1       4.638   2.733  19.202  0.00  0.00    +0.000 C 
ATOM     19  N   UNL     1       6.241   4.561  18.970  0.00  0.00    +0.000 NA
ATOM     20  C   UNL     1       6.121   4.841  17.675  0.00  0.00    +0.000 A 
ATOM     21  C   UNL     1       7.300   4.892  16.953  0.00  0.00    +0.000 A 
ATOM     22  C   UNL     1       7.336   4.445  15.654  0.00  0.00    +0.000 A 
ATOM     23  C   UNL     1       6.137   4.032  15.090  0.00  0.00    +0.000 A 
ATOM     24  C   UNL     1       4.896   4.341  15.723  0.00  0.00    +0.000 A 
ATOM     25  C   UNL     1       4.848   4.870  17.063  0.00  0.00    +0.000 A 
ENDBRANCH   2  15
TORSDOF 2
ENDMDL
MODEL 7
REMARK VINA RESULT:      -8.6      1.071      1.224
REMARK  Name = 
REMARK  4 active torsions:
REMARK  status: ('A' for Active; 'I' for Inactive)
REMARK    1  A    between atoms: C_2  and  C_3
REMARK    2  A    between atoms: C_2  and  C_15
REMARK    3  A    between atoms: C_11  and  C_12
REMARK    4  A    between atoms: C_17  and  C_18
REMARK                            x       y       z     vdW  Elec       q    Type
REMARK                         _______ _______ _______ _____ _____    ______ ____
ROOT
ATOM      1  C   UNL     1       3.749   7.517  17.532  0.00  0.00    +0.000 C 
ATOM      2  C   UNL     1       2.986   7.097  18.555  0.00  0.00    +0.000 C 
ENDROOT
BRANCH   2   3
ATOM      3  C   UNL     1       2.035   8.103  19.197  0.00  0.00    +0.000 A 
ATOM      4  C   UNL     1       1.537   8.007  20.516  0.00  0.00    +0.000 A 
ATOM      5  C   UNL     1       0.918   9.111  21.182  0.00  0.00    +0.000 A 
ATOM      6  C   UNL     1       0.827  10.356  20.492  0.00  0.00    +0.000 A 
ATOM      7  C   UNL     1       1.285  10.432  19.164  0.00  0.00    +0.000 A 
ATOM      8  C   UNL     1       1.094  11.756  18.731  0.00  0.00    +0.000 A 
ATOM      9  C   UNL     1       0.550  12.462  19.769  0.00  0.00    +0.000 A 
ATOM     10  N   UNL     1       0.380  11.636  20.873  0.00  0.00    +0.000 N 
ATOM     11  C   UNL     1      -0.128  12.027  22.144  0.00  0.00    +0.000 C 
ATOM     12  C   UNL     1      -0.520  13.484  22.320  0.00  0.00    +0.000 C 
ATOM     13  O   UNL     1      -0.257  11.193  23.032  0.00  0.00    +0.000 OA
ATOM     14  C   UNL     1       1.863   9.308  18.535  0.00  0.00    +0.000 A 
ENDBRANCH   2   3
BRANCH   2  15
ATOM     15  C   UNL     1       2.686   5.622  18.658  0.00  0.00    +0.000 A 
ATOM     16  C   UNL     1       2.733   5.105  17.364  0.00  0.00    +0.000 A 
ATOM     17  C   UNL     1       2.931   3.773  17.339  0.00  0.00    +0.000 A 
ATOM     18  C   UNL     1       4.349   3.371  17.817  0.00  0.00    +0.000 C 
ATOM     19  N   UNL     1       1.921   3.132  17.915  0.00  0.00    +0.000 NA
ATOM     20  C   UNL     1       1.677   3.522  19.164  0.00  0.00    +0.000 A 
ATOM     21  C   UNL     1       0.907   2.663  19.928  0.00  0.00    +0.000 A 
ATOM     22  C   UNL     1       1.164   2.512  21.269  0.00  0.00    +0.000 A 
ATOM     23  C   UNL     1       2.156   3.311  21.821  0.00  0.00    +0.000 A 
ATOM     24  C   UNL     1       2.663   4.433  21.101  0.00  0.00    +0.000 A 
ATOM     25  C   UNL     1       2.349   4.638  19.710  0.00  0.00    +0.000 A 
ENDBRANCH   2  15
TORSDOF 2
ENDMDL
MODEL 8
REMARK VINA RESULT:      -8.5      2.578      4.377
REMARK  Name = 
REMARK  4 active torsions:
REMARK  status: ('A' for Active; 'I' for Inactive)
REMARK    1  A    between atoms: C_2  and  C_3
REMARK    2  A    between atoms: C_2  and  C_15
REMARK    3  A    between atoms: C_11  and  C_12
REMARK    4  A    between atoms: C_17  and  C_18
REMARK                            x       y       z     vdW  Elec       q    Type
REMARK                         _______ _______ _______ _____ _____    ______ ____
ROOT
ATOM      1  C   UNL     1       3.011   4.465  18.232  0.00  0.00    +0.000 C 
ATOM      2  C   UNL     1       3.498   5.605  17.712  0.00  0.00    +0.000 C 
ENDROOT
BRANCH   2   3
ATOM      3  C   UNL     1       2.980   6.925  18.275  0.00  0.00    +0.000 A 
ATOM      4  C   UNL     1       2.701   8.074  17.500  0.00  0.00    +0.000 A 
ATOM      5  C   UNL     1       1.929   9.167  18.004  0.00  0.00    +0.000 A 
ATOM      6  C   UNL     1       1.403   9.075  19.326  0.00  0.00    +0.000 A 
ATOM      7  C   UNL     1       1.721   7.948  20.107  0.00  0.00    +0.000 A 
ATOM      8  C   UNL     1       1.072   8.102  21.346  0.00  0.00    +0.000 A 
ATOM      9  C   UNL     1       0.374   9.277  21.310  0.00  0.00    +0.000 A 
ATOM     10  N   UNL     1       0.545   9.900  20.079  0.00  0.00    +0.000 N 
ATOM     11  C   UNL     1      -0.054  11.123  19.667  0.00  0.00    +0.000 C 
ATOM     12  C   UNL     1      -0.973  11.818  20.657  0.00  0.00    +0.000 C 
ATOM     13  O   UNL     1       0.201  11.584  18.561  0.00  0.00    +0.000 OA
ATOM     14  C   UNL     1       2.512   6.906  19.579  0.00  0.00    +0.000 A 
ENDBRANCH   2   3
BRANCH   2  15
ATOM     15  C   UNL     1       4.852   5.562  17.048  0.00  0.00    +0.000 A 
ATOM     16  C   UNL     1       5.709   6.343  17.822  0.00  0.00    +0.000 A 
ATOM     17  C   UNL     1       7.008   6.046  17.624  0.00  0.00    +0.000 A 
ATOM     18  C   UNL     1       7.390   4.646  18.168  0.00  0.00    +0.000 C 
ATOM     19  N   UNL     1       7.369   6.301  16.373  0.00  0.00    +0.000 NA
ATOM     20  C   UNL     1       6.627   5.677  15.461  0.00  0.00    +0.000 A 
ATOM     21  C   UNL     1       7.166   5.603  14.188  0.00  0.00    +0.000 A 
ATOM     22  C   UNL     1       6.962   4.485  13.416  0.00  0.00    +0.000 A 
ATOM     23  C   UNL     1       6.136   3.496  13.932  0.00  0.00    +0.000 A 
ATOM     24  C   UNL     1       5.309   3.764  15.063  0.00  0.00    +0.000 A 
ATOM     25  C   UNL     1       5.470   4.964  15.845  0.00  0.00    +0.000 A 
ENDBRANCH   2  15
TORSDOF 2
ENDMDL
MODEL 9
REMARK VINA RESULT:      -8.5      2.387      4.334
REMARK  Name = 
REMARK  4 active torsions:
REMARK  status: ('A' for Active; 'I' for Inactive)
REMARK    1  A    between atoms: C_2  and  C_3
REMARK    2  A    between atoms: C_2  and  C_15
REMARK    3  A    between atoms: C_11  and  C_12
REMARK    4  A    between atoms: C_17  and  C_18
REMARK                            x       y       z     vdW  Elec       q    Type
REMARK                         _______ _______ _______ _____ _____    ______ ____
ROOT
ATOM      1  C   UNL     1       3.102   3.943  17.205  0.00  0.00    +0.000 C 
ATOM      2  C   UNL     1       3.585   5.176  17.432  0.00  0.00    +0.000 C 
ENDROOT
BRANCH   2   3
ATOM      3  C   UNL     1       2.707   6.155  18.207  0.00  0.00    +0.000 A 
ATOM      4  C   UNL     1       2.444   6.073  19.593  0.00  0.00    +0.000 A 
ATOM      5  C   UNL     1       1.891   7.165  20.332  0.00  0.00    +0.000 A 
ATOM      6  C   UNL     1       1.623   8.385  19.644  0.00  0.00    +0.000 A 
ATOM      7  C   UNL     1       1.845   8.445  18.256  0.00  0.00    +0.000 A 
ATOM      8  C   UNL     1       1.518   9.747  17.836  0.00  0.00    +0.000 A 
ATOM      9  C   UNL     1       1.123  10.455  18.937  0.00  0.00    +0.000 A 
ATOM     10  N   UNL     1       1.183   9.653  20.070  0.00  0.00    +0.000 N 
ATOM     11  C   UNL     1       0.878  10.056  21.401  0.00  0.00    +0.000 C 
ATOM     12  C   UNL     1       0.448  11.497  21.612  0.00  0.00    +0.000 C 
ATOM     13  O   UNL     1       0.943   9.241  22.314  0.00  0.00    +0.000 OA
ATOM     14  C   UNL     1       2.365   7.332  17.561  0.00  0.00    +0.000 A 
ENDBRANCH   2   3
BRANCH   2  15
ATOM     15  C   UNL     1       5.082   5.366  17.428  0.00  0.00    +0.000 A 
ATOM     16  C   UNL     1       5.650   4.111  17.215  0.00  0.00    +0.000 A 
ATOM     17  C   UNL     1       6.912   4.180  16.747  0.00  0.00    +0.000 A 
ATOM     18  C   UNL     1       6.981   4.731  15.300  0.00  0.00    +0.000 C 
ATOM     19  N   UNL     1       7.715   4.762  17.628  0.00  0.00    +0.000 NA
ATOM     20  C   UNL     1       7.314   5.974  18.006  0.00  0.00    +0.000 A 
ATOM     21  C   UNL     1       8.268   6.766  18.618  0.00  0.00    +0.000 A 
ATOM     22  C   UNL     1       8.286   8.122  18.398  0.00  0.00    +0.000 A 
ATOM     23  C   UNL     1       7.268   8.654  17.618  0.00  0.00    +0.000 A 
ATOM     24  C   UNL     1       6.107   7.879  17.319  0.00  0.00    +0.000 A 
ATOM     25  C   UNL     1       6.052   6.468  17.604  0.00  0.00    +0.000 A 
ENDBRANCH   2  15
TORSDOF 2
ENDMDL
