MODEL 1
REMARK VINA RESULT:      -7.2      0.000      0.000
REMARK  Name = 
REMARK  4 active torsions:
REMARK  status: ('A' for Active; 'I' for Inactive)
REMARK    1  A    between atoms: C_1  and  C_2
REMARK    2  A    between atoms: C_7  and  C_8
REMARK    3  A    between atoms: C_8  and  N_9
REMARK    4  A    between atoms: C_15  and  C_16
REMARK                            x       y       z     vdW  Elec       q    Type
REMARK                         _______ _______ _______ _____ _____    ______ ____
ROOT
ATOM      1  N   UNL     1       2.167   6.574  19.882  0.00  0.00    +0.000 N 
ATOM      2  C   UNL     1       1.251   5.726  20.469  0.00  0.00    +0.000 A 
ATOM      3  N   UNL     1       1.247   4.435  20.394  0.00  0.00    +0.000 NA
ATOM      4  C   UNL     1       2.222   3.925  19.603  0.00  0.00    +0.000 A 
ATOM      5  S   UNL     1       2.352   2.247  19.373  0.00  0.00    +0.000 S 
ATOM      6  C   UNL     1       3.616   2.446  18.245  0.00  0.00    +0.000 A 
ATOM      7  C   UNL     1       3.975   3.771  18.050  0.00  0.00    +0.000 A 
ATOM      8  C   UNL     1       3.186   4.631  18.907  0.00  0.00    +0.000 A 
ATOM      9  C   UNL     1       3.224   6.076  19.116  0.00  0.00    +0.000 A 
ATOM     10  O   UNL     1       4.109   6.804  18.672  0.00  0.00    +0.000 OA
ENDROOT
BRANCH   7  11
ATOM     11  C   UNL     1       4.996   4.120  17.054  0.00  0.00    +0.000 A 
ATOM     12  C   UNL     1       6.314   4.396  17.443  0.00  0.00    +0.000 A 
ATOM     13  C   UNL     1       7.298   4.698  16.496  0.00  0.00    +0.000 A 
ATOM     14  C   UNL     1       6.965   4.776  15.147  0.00  0.00    +0.000 A 
ATOM     15  C   UNL     1       5.651   4.554  14.746  0.00  0.00    +0.000 A 
ATOM     16  C   UNL     1       4.676   4.218  15.690  0.00  0.00    +0.000 A 
ENDBRANCH   7  11
BRANCH   1  17
ATOM     17  C   UNL     1       2.051   8.016  20.073  0.00  0.00    +0.000 C 
BRANCH  17  24
ATOM     18  C   UNL     1       0.416  13.743  20.225  0.00  0.00    +0.000 C 
ATOM     19  C   UNL     1       1.020  12.883  19.145  0.00  0.00    +0.000 C 
ATOM     20  O   UNL     1       1.325  13.386  18.063  0.00  0.00    +0.000 OA
ATOM     21  N   UNL     1       1.236  11.544  19.436  0.00  0.00    +0.000 N 
ATOM     22  C   UNL     1       1.970  10.737  18.468  0.00  0.00    +0.000 C 
ATOM     23  C   UNL     1       1.189   9.474  18.116  0.00  0.00    +0.000 C 
ATOM     24  C   UNL     1       0.831   8.655  19.369  0.00  0.00    +0.000 C 
ATOM     25  C   UNL     1       0.062   9.574  20.344  0.00  0.00    +0.000 C 
ATOM     26  C   UNL     1       0.831  10.862  20.666  0.00  0.00    +0.000 C 
ENDBRANCH  17  24
ENDBRANCH   1  17
TORSDOF 3
ENDMDL
MODEL 2
REMARK VINA RESULT:      -7.1      1.040      1.085
REMARK  Name = 
REMARK  4 active torsions:
REMARK  status: ('A' for Active; 'I' for Inactive)
REMARK    1  A    between atoms: C_1  and  C_2
REMARK    2  A    between atoms: C_7  and  C_8
REMARK    3  A    between atoms: C_8  and  N_9
REMARK    4  A    between atoms: C_15  and  C_16
REMARK                            x       y       z     vdW  Elec       q    Type
REMARK                         _______ _______ _______ _____ _____    ______ ____
ROOT
ATOM      1  N   UNL     1       2.178   7.305  19.515  0.00  0.00    +0.000 N 
ATOM      2  C   UNL     1       1.472   6.607  20.472  0.00  0.00    +0.000 A 
ATOM      3  N   UNL     1       1.683   5.384  20.837  0.00  0.00    +0.000 NA
ATOM      4  C   UNL     1       2.662   4.761  20.138  0.00  0.00    +0.000 A 
ATOM      5  S   UNL     1       3.058   3.142  20.469  0.00  0.00    +0.000 S 
ATOM      6  C   UNL     1       4.172   3.095  19.179  0.00  0.00    +0.000 A 
ATOM      7  C   UNL     1       4.282   4.301  18.503  0.00  0.00    +0.000 A 
ATOM      8  C   UNL     1       3.431   5.296  19.120  0.00  0.00    +0.000 A 
ATOM      9  C   UNL     1       3.238   6.713  18.826  0.00  0.00    +0.000 A 
ATOM     10  O   UNL     1       3.946   7.347  18.046  0.00  0.00    +0.000 OA
ENDROOT
BRANCH   7  11
ATOM     11  C   UNL     1       5.143   4.406  17.319  0.00  0.00    +0.000 A 
ATOM     12  C   UNL     1       6.511   4.684  17.448  0.00  0.00    +0.000 A 
ATOM     13  C   UNL     1       7.342   4.754  16.324  0.00  0.00    +0.000 A 
ATOM     14  C   UNL     1       6.805   4.597  15.050  0.00  0.00    +0.000 A 
ATOM     15  C   UNL     1       5.441   4.371  14.899  0.00  0.00    +0.000 A 
ATOM     16  C   UNL     1       4.617   4.266  16.024  0.00  0.00    +0.000 A 
ENDBRANCH   7  11
BRANCH   1  17
ATOM     17  C   UNL     1       1.833   8.693  19.225  0.00  0.00    +0.000 C 
BRANCH  17  24
ATOM     18  C   UNL     1       0.493  14.162  21.171  0.00  0.00    +0.000 C 
ATOM     19  C   UNL     1       0.053  13.372  19.967  0.00  0.00    +0.000 C 
ATOM     20  O   UNL     1      -0.685  13.895  19.129  0.00  0.00    +0.000 OA
ATOM     21  N   UNL     1       0.531  12.077  19.837  0.00  0.00    +0.000 N 
ATOM     22  C   UNL     1       0.253  11.357  18.600  0.00  0.00    +0.000 C 
ATOM     23  C   UNL     1      -0.377   9.999  18.895  0.00  0.00    +0.000 C 
ATOM     24  C   UNL     1       0.494   9.159  19.845  0.00  0.00    +0.000 C 
ATOM     25  C   UNL     1       0.749   9.985  21.125  0.00  0.00    +0.000 C 
ATOM     26  C   UNL     1       1.345  11.366  20.824  0.00  0.00    +0.000 C 
ENDBRANCH  17  24
ENDBRANCH   1  17
TORSDOF 3
ENDMDL
MODEL 3
REMARK VINA RESULT:      -7.1      2.534      8.115
REMARK  Name = 
REMARK  4 active torsions:
REMARK  status: ('A' for Active; 'I' for Inactive)
REMARK    1  A    between atoms: C_1  and  C_2
REMARK    2  A    between atoms: C_7  and  C_8
REMARK    3  A    between atoms: C_8  and  N_9
REMARK    4  A    between atoms: C_15  and  C_16
REMARK                            x       y       z     vdW  Elec       q    Type
REMARK                         _______ _______ _______ _____ _____    ______ ____
ROOT
ATOM      1  N   UNL     1       2.137   7.682  19.426  0.00  0.00    +0.000 N 
ATOM      2  C   UNL     1       1.779   6.924  20.521  0.00  0.00    +0.000 A 
ATOM      3  N   UNL     1       1.017   7.302  21.495  0.00  0.00    +0.000 NA
ATOM      4  C   UNL     1       0.609   8.592  21.409  0.00  0.00    +0.000 A 
ATOM      5  S   UNL     1      -0.381   9.263  22.616  0.00  0.00    +0.000 S 
ATOM      6  C   UNL     1      -0.314  10.803  21.888  0.00  0.00    +0.000 A 
ATOM      7  C   UNL     1       0.427  10.826  20.716  0.00  0.00    +0.000 A 
ATOM      8  C   UNL     1       0.914   9.498  20.410  0.00  0.00    +0.000 A 
ATOM      9  C   UNL     1       1.678   8.992  19.273  0.00  0.00    +0.000 A 
ATOM     10  O   UNL     1       1.899   9.648  18.257  0.00  0.00    +0.000 OA
ENDROOT
BRANCH   7  11
ATOM     11  C   UNL     1       0.645  12.093  20.006  0.00  0.00    +0.000 A 
ATOM     12  C   UNL     1      -0.293  12.567  19.078  0.00  0.00    +0.000 A 
ATOM     13  C   UNL     1      -0.105  13.788  18.423  0.00  0.00    +0.000 A 
ATOM     14  C   UNL     1       1.050  14.531  18.649  0.00  0.00    +0.000 A 
ATOM     15  C   UNL     1       2.016  14.052  19.529  0.00  0.00    +0.000 A 
ATOM     16  C   UNL     1       1.811  12.848  20.210  0.00  0.00    +0.000 A 
ENDBRANCH   7  11
BRANCH   1  17
ATOM     17  C   UNL     1       2.994   7.108  18.392  0.00  0.00    +0.000 C 
BRANCH  17  24
ATOM     18  C   UNL     1       6.717   3.812  15.112  0.00  0.00    +0.000 C 
ATOM     19  C   UNL     1       6.864   4.490  16.448  0.00  0.00    +0.000 C 
ATOM     20  O   UNL     1       7.949   4.463  17.031  0.00  0.00    +0.000 OA
ATOM     21  N   UNL     1       5.757   5.152  16.959  0.00  0.00    +0.000 N 
ATOM     22  C   UNL     1       5.926   5.952  18.166  0.00  0.00    +0.000 C 
ATOM     23  C   UNL     1       4.896   5.561  19.221  0.00  0.00    +0.000 C 
ATOM     24  C   UNL     1       3.458   5.661  18.682  0.00  0.00    +0.000 C 
ATOM     25  C   UNL     1       3.359   4.794  17.408  0.00  0.00    +0.000 C 
ATOM     26  C   UNL     1       4.420   5.162  16.363  0.00  0.00    +0.000 C 
ENDBRANCH  17  24
ENDBRANCH   1  17
TORSDOF 3
ENDMDL
MODEL 4
REMARK VINA RESULT:      -7.1      0.783      1.253
REMARK  Name = 
REMARK  4 active torsions:
REMARK  status: ('A' for Active; 'I' for Inactive)
REMARK    1  A    between atoms: C_1  and  C_2
REMARK    2  A    between atoms: C_7  and  C_8
REMARK    3  A    between atoms: C_8  and  N_9
REMARK    4  A    between atoms: C_15  and  C_16
REMARK                            x       y       z     vdW  Elec       q    Type
REMARK                         _______ _______ _______ _____ _____    ______ ____
ROOT
ATOM      1  N   UNL     1       2.111   6.539  19.988  0.00  0.00    +0.000 N 
ATOM      2  C   UNL     1       1.190   5.679  20.550  0.00  0.00    +0.000 A 
ATOM      3  N   UNL     1       1.190   4.389  20.452  0.00  0.00    +0.000 NA
ATOM      4  C   UNL     1       2.174   3.895  19.663  0.00  0.00    +0.000 A 
ATOM      5  S   UNL     1       2.310   2.221  19.404  0.00  0.00    +0.000 S 
ATOM      6  C   UNL     1       3.586   2.443  18.295  0.00  0.00    +0.000 A 
ATOM      7  C   UNL     1       3.944   3.772  18.127  0.00  0.00    +0.000 A 
ATOM      8  C   UNL     1       3.145   4.615  18.990  0.00  0.00    +0.000 A 
ATOM      9  C   UNL     1       3.177   6.056  19.226  0.00  0.00    +0.000 A 
ATOM     10  O   UNL     1       4.066   6.794  18.804  0.00  0.00    +0.000 OA
ENDROOT
BRANCH   7  11
ATOM     11  C   UNL     1       4.976   4.140  17.149  0.00  0.00    +0.000 A 
ATOM     12  C   UNL     1       4.675   4.215  15.782  0.00  0.00    +0.000 A 
ATOM     13  C   UNL     1       5.646   4.596  14.850  0.00  0.00    +0.000 A 
ATOM     14  C   UNL     1       6.948   4.859  15.267  0.00  0.00    +0.000 A 
ATOM     15  C   UNL     1       7.278   4.741  16.613  0.00  0.00    +0.000 A 
ATOM     16  C   UNL     1       6.298   4.394  17.549  0.00  0.00    +0.000 A 
ENDBRANCH   7  11
BRANCH   1  17
ATOM     17  C   UNL     1       1.990   7.977  20.203  0.00  0.00    +0.000 C 
BRANCH  17  24
ATOM     18  C   UNL     1      -0.282  13.173  22.028  0.00  0.00    +0.000 C 
ATOM     19  C   UNL     1       0.226  12.696  20.694  0.00  0.00    +0.000 C 
ATOM     20  O   UNL     1       0.277  13.478  19.744  0.00  0.00    +0.000 OA
ATOM     21  N   UNL     1       0.652  11.378  20.602  0.00  0.00    +0.000 N 
ATOM     22  C   UNL     1       1.301  10.946  19.369  0.00  0.00    +0.000 C 
ATOM     23  C   UNL     1       0.632   9.691  18.818  0.00  0.00    +0.000 C 
ATOM     24  C   UNL     1       0.598   8.557  19.858  0.00  0.00    +0.000 C 
ATOM     25  C   UNL     1      -0.098   9.089  21.131  0.00  0.00    +0.000 C 
ATOM     26  C   UNL     1       0.551  10.374  21.661  0.00  0.00    +0.000 C 
ENDBRANCH  17  24
ENDBRANCH   1  17
TORSDOF 3
ENDMDL
MODEL 5
REMARK VINA RESULT:      -7.1      1.100      1.190
REMARK  Name = 
REMARK  4 active torsions:
REMARK  status: ('A' for Active; 'I' for Inactive)
REMARK    1  A    between atoms: C_1  and  C_2
REMARK    2  A    between atoms: C_7  and  C_8
REMARK    3  A    between atoms: C_8  and  N_9
REMARK    4  A    between atoms: C_15  and  C_16
REMARK                            x       y       z     vdW  Elec       q    Type
REMARK                         _______ _______ _______ _____ _____    ______ ____
ROOT
ATOM      1  N   UNL     1       2.080   6.470  20.145  0.00  0.00    +0.000 N 
ATOM      2  C   UNL     1       1.185   5.578  20.698  0.00  0.00    +0.000 A 
ATOM      3  N   UNL     1       1.215   4.291  20.576  0.00  0.00    +0.000 NA
ATOM      4  C   UNL     1       2.205   3.835  19.770  0.00  0.00    +0.000 A 
ATOM      5  S   UNL     1       2.379   2.170  19.478  0.00  0.00    +0.000 S 
ATOM      6  C   UNL     1       3.639   2.444  18.363  0.00  0.00    +0.000 A 
ATOM      7  C   UNL     1       3.964   3.784  18.218  0.00  0.00    +0.000 A 
ATOM      8  C   UNL     1       3.151   4.591  19.102  0.00  0.00    +0.000 A 
ATOM      9  C   UNL     1       3.151   6.028  19.365  0.00  0.00    +0.000 A 
ATOM     10  O   UNL     1       4.018   6.795  18.951  0.00  0.00    +0.000 OA
ENDROOT
BRANCH   7  11
ATOM     11  C   UNL     1       4.978   4.195  17.238  0.00  0.00    +0.000 A 
ATOM     12  C   UNL     1       6.281   4.516  17.644  0.00  0.00    +0.000 A 
ATOM     13  C   UNL     1       7.259   4.877  16.712  0.00  0.00    +0.000 A 
ATOM     14  C   UNL     1       6.933   4.972  15.362  0.00  0.00    +0.000 A 
ATOM     15  C   UNL     1       5.632   4.707  14.946  0.00  0.00    +0.000 A 
ATOM     16  C   UNL     1       4.664   4.312  15.874  0.00  0.00    +0.000 A 
ENDBRANCH   7  11
BRANCH   1  17
ATOM     17  C   UNL     1       1.925   7.901  20.388  0.00  0.00    +0.000 C 
BRANCH  17  24
ATOM     18  C   UNL     1      -0.729  12.706  22.700  0.00  0.00    +0.000 C 
ATOM     19  C   UNL     1      -0.108  12.433  21.356  0.00  0.00    +0.000 C 
ATOM     20  O   UNL     1      -0.033  13.337  20.522  0.00  0.00    +0.000 OA
ATOM     21  N   UNL     1       0.390  11.159  21.126  0.00  0.00    +0.000 N 
ATOM     22  C   UNL     1       1.143  10.922  19.899  0.00  0.00    +0.000 C 
ATOM     23  C   UNL     1       0.578   9.725  19.141  0.00  0.00    +0.000 C 
ATOM     24  C   UNL     1       0.532   8.463  20.020  0.00  0.00    +0.000 C 
ATOM     25  C   UNL     1      -0.275   8.790  21.296  0.00  0.00    +0.000 C 
ATOM     26  C   UNL     1       0.270  10.019  22.035  0.00  0.00    +0.000 C 
ENDBRANCH  17  24
ENDBRANCH   1  17
TORSDOF 3
ENDMDL
MODEL 6
REMARK VINA RESULT:      -7.0      2.607      7.984
REMARK  Name = 
REMARK  4 active torsions:
REMARK  status: ('A' for Active; 'I' for Inactive)
REMARK    1  A    between atoms: C_1  and  C_2
REMARK    2  A    between atoms: C_7  and  C_8
REMARK    3  A    between atoms: C_8  and  N_9
REMARK    4  A    between atoms: C_15  and  C_16
REMARK                            x       y       z     vdW  Elec       q    Type
REMARK                         _______ _______ _______ _____ _____    ______ ____
ROOT
ATOM      1  N   UNL     1       2.329   7.557  18.932  0.00  0.00    +0.000 N 
ATOM      2  C   UNL     1       2.106   6.731  20.014  0.00  0.00    +0.000 A 
ATOM      3  N   UNL     1       1.404   7.018  21.062  0.00  0.00    +0.000 NA
ATOM      4  C   UNL     1       0.916   8.281  21.071  0.00  0.00    +0.000 A 
ATOM      5  S   UNL     1      -0.011   8.836  22.383  0.00  0.00    +0.000 S 
ATOM      6  C   UNL     1      -0.095  10.408  21.728  0.00  0.00    +0.000 A 
ATOM      7  C   UNL     1       0.546  10.528  20.504  0.00  0.00    +0.000 A 
ATOM      8  C   UNL     1       1.085   9.248  20.097  0.00  0.00    +0.000 A 
ATOM      9  C   UNL     1       1.782   8.841  18.880  0.00  0.00    +0.000 A 
ATOM     10  O   UNL     1       1.881   9.553  17.883  0.00  0.00    +0.000 OA
ENDROOT
BRANCH   7  11
ATOM     11  C   UNL     1       0.631  11.836  19.841  0.00  0.00    +0.000 A 
ATOM     12  C   UNL     1       1.740  12.670  20.037  0.00  0.00    +0.000 A 
ATOM     13  C   UNL     1       1.840  13.903  19.384  0.00  0.00    +0.000 A 
ATOM     14  C   UNL     1       0.806  14.342  18.562  0.00  0.00    +0.000 A 
ATOM     15  C   UNL     1      -0.325  13.550  18.394  0.00  0.00    +0.000 A 
ATOM     16  C   UNL     1      -0.409  12.302  19.020  0.00  0.00    +0.000 A 
ENDBRANCH   7  11
BRANCH   1  17
ATOM     17  C   UNL     1       3.131   7.083  17.809  0.00  0.00    +0.000 C 
BRANCH  17  24
ATOM     18  C   UNL     1       6.342   3.687  14.116  0.00  0.00    +0.000 C 
ATOM     19  C   UNL     1       6.684   4.897  14.944  0.00  0.00    +0.000 C 
ATOM     20  O   UNL     1       7.810   5.392  14.866  0.00  0.00    +0.000 OA
ATOM     21  N   UNL     1       5.687   5.427  15.749  0.00  0.00    +0.000 N 
ATOM     22  C   UNL     1       5.946   6.691  16.428  0.00  0.00    +0.000 C 
ATOM     23  C   UNL     1       5.665   6.569  17.923  0.00  0.00    +0.000 C 
ATOM     24  C   UNL     1       4.235   6.072  18.197  0.00  0.00    +0.000 C 
ATOM     25  C   UNL     1       4.036   4.737  17.446  0.00  0.00    +0.000 C 
ATOM     26  C   UNL     1       4.357   4.851  15.950  0.00  0.00    +0.000 C 
ENDBRANCH  17  24
ENDBRANCH   1  17
TORSDOF 3
ENDMDL
MODEL 7
REMARK VINA RESULT:      -7.0      1.478      1.885
REMARK  Name = 
REMARK  4 active torsions:
REMARK  status: ('A' for Active; 'I' for Inactive)
REMARK    1  A    between atoms: C_1  and  C_2
REMARK    2  A    between atoms: C_7  and  C_8
REMARK    3  A    between atoms: C_8  and  N_9
REMARK    4  A    between atoms: C_15  and  C_16
REMARK                            x       y       z     vdW  Elec       q    Type
REMARK                         _______ _______ _______ _____ _____    ______ ____
ROOT
ATOM      1  N   UNL     1       2.064   6.366  20.014  0.00  0.00    +0.000 N 
ATOM      2  C   UNL     1       1.181   5.461  20.565  0.00  0.00    +0.000 A 
ATOM      3  N   UNL     1       1.233   4.174  20.446  0.00  0.00    +0.000 NA
ATOM      4  C   UNL     1       2.233   3.733  19.645  0.00  0.00    +0.000 A 
ATOM      5  S   UNL     1       2.434   2.071  19.358  0.00  0.00    +0.000 S 
ATOM      6  C   UNL     1       3.695   2.362  18.248  0.00  0.00    +0.000 A 
ATOM      7  C   UNL     1       3.999   3.707  18.101  0.00  0.00    +0.000 A 
ATOM      8  C   UNL     1       3.170   4.503  18.980  0.00  0.00    +0.000 A 
ATOM      9  C   UNL     1       3.146   5.940  19.240  0.00  0.00    +0.000 A 
ATOM     10  O   UNL     1       4.002   6.720  18.828  0.00  0.00    +0.000 OA
ENDROOT
BRANCH   7  11
ATOM     11  C   UNL     1       5.011   4.132  17.125  0.00  0.00    +0.000 A 
ATOM     12  C   UNL     1       4.687   4.269  15.768  0.00  0.00    +0.000 A 
ATOM     13  C   UNL     1       5.639   4.704  14.840  0.00  0.00    +0.000 A 
ATOM     14  C   UNL     1       6.944   4.961  15.248  0.00  0.00    +0.000 A 
ATOM     15  C   UNL     1       7.297   4.782  16.582  0.00  0.00    +0.000 A 
ATOM     16  C   UNL     1       6.337   4.381  17.516  0.00  0.00    +0.000 A 
ENDBRANCH   7  11
BRANCH   1  17
ATOM     17  C   UNL     1       1.886   7.795  20.254  0.00  0.00    +0.000 C 
BRANCH  17  24
ATOM     18  C   UNL     1      -0.132  13.183  21.798  0.00  0.00    +0.000 C 
ATOM     19  C   UNL     1      -0.789  11.999  21.138  0.00  0.00    +0.000 C 
ATOM     20  O   UNL     1      -1.955  12.085  20.752  0.00  0.00    +0.000 OA
ATOM     21  N   UNL     1      -0.025  10.855  20.965  0.00  0.00    +0.000 N 
ATOM     22  C   UNL     1      -0.587   9.760  20.181  0.00  0.00    +0.000 C 
ATOM     23  C   UNL     1      -0.517   8.449  20.958  0.00  0.00    +0.000 C 
ATOM     24  C   UNL     1       0.918   8.130  21.413  0.00  0.00    +0.000 C 
ATOM     25  C   UNL     1       1.444   9.330  22.230  0.00  0.00    +0.000 C 
ATOM     26  C   UNL     1       1.337  10.654  21.463  0.00  0.00    +0.000 C 
ENDBRANCH  17  24
ENDBRANCH   1  17
TORSDOF 3
ENDMDL
MODEL 8
REMARK VINA RESULT:      -6.9      0.639      1.153
REMARK  Name = 
REMARK  4 active torsions:
REMARK  status: ('A' for Active; 'I' for Inactive)
REMARK    1  A    between atoms: C_1  and  C_2
REMARK    2  A    between atoms: C_7  and  C_8
REMARK    3  A    between atoms: C_8  and  N_9
REMARK    4  A    between atoms: C_15  and  C_16
REMARK                            x       y       z     vdW  Elec       q    Type
REMARK                         _______ _______ _______ _____ _____    ______ ____
ROOT
ATOM      1  N   UNL     1       2.154   6.903  19.773  0.00  0.00    +0.000 N 
ATOM      2  C   UNL     1       1.292   6.098  20.489  0.00  0.00    +0.000 A 
ATOM      3  N   UNL     1       1.346   4.809  20.576  0.00  0.00    +0.000 NA
ATOM      4  C   UNL     1       2.323   4.244  19.827  0.00  0.00    +0.000 A 
ATOM      5  S   UNL     1       2.523   2.557  19.804  0.00  0.00    +0.000 S 
ATOM      6  C   UNL     1       3.749   2.665  18.624  0.00  0.00    +0.000 A 
ATOM      7  C   UNL     1       4.042   3.969  18.253  0.00  0.00    +0.000 A 
ATOM      8  C   UNL     1       3.237   4.897  19.019  0.00  0.00    +0.000 A 
ATOM      9  C   UNL     1       3.214   6.356  19.045  0.00  0.00    +0.000 A 
ATOM     10  O   UNL     1       4.054   7.059  18.486  0.00  0.00    +0.000 OA
ENDROOT
BRANCH   7  11
ATOM     11  C   UNL     1       5.022   4.231  17.191  0.00  0.00    +0.000 A 
ATOM     12  C   UNL     1       4.662   4.129  15.841  0.00  0.00    +0.000 A 
ATOM     13  C   UNL     1       5.583   4.408  14.826  0.00  0.00    +0.000 A 
ATOM     14  C   UNL     1       6.894   4.746  15.148  0.00  0.00    +0.000 A 
ATOM     15  C   UNL     1       7.284   4.804  16.482  0.00  0.00    +0.000 A 
ATOM     16  C   UNL     1       6.353   4.559  17.497  0.00  0.00    +0.000 A 
ENDBRANCH   7  11
BRANCH   1  17
ATOM     17  C   UNL     1       1.978   8.351  19.785  0.00  0.00    +0.000 C 
BRANCH  17  24
ATOM     18  C   UNL     1      -0.807  13.595  19.298  0.00  0.00    +0.000 C 
ATOM     19  C   UNL     1       0.496  13.078  18.748  0.00  0.00    +0.000 C 
ATOM     20  O   UNL     1       1.230  13.831  18.107  0.00  0.00    +0.000 OA
ATOM     21  N   UNL     1       0.831  11.760  19.021  0.00  0.00    +0.000 N 
ATOM     22  C   UNL     1       2.159  11.291  18.642  0.00  0.00    +0.000 C 
ATOM     23  C   UNL     1       2.065  10.018  17.807  0.00  0.00    +0.000 C 
ATOM     24  C   UNL     1       1.270   8.917  18.531  0.00  0.00    +0.000 C 
ATOM     25  C   UNL     1      -0.117   9.486  18.902  0.00  0.00    +0.000 C 
ATOM     26  C   UNL     1      -0.021  10.788  19.708  0.00  0.00    +0.000 C 
ENDBRANCH  17  24
ENDBRANCH   1  17
TORSDOF 3
ENDMDL
MODEL 9
REMARK VINA RESULT:      -6.8      1.084      1.273
REMARK  Name = 
REMARK  4 active torsions:
REMARK  status: ('A' for Active; 'I' for Inactive)
REMARK    1  A    between atoms: C_1  and  C_2
REMARK    2  A    between atoms: C_7  and  C_8
REMARK    3  A    between atoms: C_8  and  N_9
REMARK    4  A    between atoms: C_15  and  C_16
REMARK                            x       y       z     vdW  Elec       q    Type
REMARK                         _______ _______ _______ _____ _____    ______ ____
ROOT
ATOM      1  N   UNL     1       2.225   6.966  19.636  0.00  0.00    +0.000 N 
ATOM      2  C   UNL     1       1.401   6.172  20.407  0.00  0.00    +0.000 A 
ATOM      3  N   UNL     1       1.483   4.888  20.538  0.00  0.00    +0.000 NA
ATOM      4  C   UNL     1       2.447   4.315  19.778  0.00  0.00    +0.000 A 
ATOM      5  S   UNL     1       2.679   2.632  19.808  0.00  0.00    +0.000 S 
ATOM      6  C   UNL     1       3.864   2.720  18.586  0.00  0.00    +0.000 A 
ATOM      7  C   UNL     1       4.120   4.015  18.161  0.00  0.00    +0.000 A 
ATOM      8  C   UNL     1       3.321   4.954  18.918  0.00  0.00    +0.000 A 
ATOM      9  C   UNL     1       3.271   6.413  18.894  0.00  0.00    +0.000 A 
ATOM     10  O   UNL     1       4.079   7.111  18.285  0.00  0.00    +0.000 OA
ENDROOT
BRANCH   7  11
ATOM     11  C   UNL     1       5.061   4.257  17.059  0.00  0.00    +0.000 A 
ATOM     12  C   UNL     1       6.397   4.595  17.317  0.00  0.00    +0.000 A 
ATOM     13  C   UNL     1       7.304   4.795  16.271  0.00  0.00    +0.000 A 
ATOM     14  C   UNL     1       6.875   4.710  14.950  0.00  0.00    +0.000 A 
ATOM     15  C   UNL     1       5.542   4.426  14.675  0.00  0.00    +0.000 A 
ATOM     16  C   UNL     1       4.643   4.191  15.720  0.00  0.00    +0.000 A 
ENDBRANCH   7  11
BRANCH   1  17
ATOM     17  C   UNL     1       2.020   8.410  19.604  0.00  0.00    +0.000 C 
BRANCH  17  24
ATOM     18  C   UNL     1      -2.337  12.288  18.394  0.00  0.00    +0.000 C 
ATOM     19  C   UNL     1      -0.837  12.410  18.397  0.00  0.00    +0.000 C 
ATOM     20  O   UNL     1      -0.312  13.502  18.173  0.00  0.00    +0.000 OA
ATOM     21  N   UNL     1      -0.100  11.271  18.686  0.00  0.00    +0.000 N 
ATOM     22  C   UNL     1       1.342  11.405  18.857  0.00  0.00    +0.000 C 
ATOM     23  C   UNL     1       2.086  10.414  17.967  0.00  0.00    +0.000 C 
ATOM     24  C   UNL     1       1.628   8.967  18.215  0.00  0.00    +0.000 C 
ATOM     25  C   UNL     1       0.097   8.904  18.019  0.00  0.00    +0.000 C 
ATOM     26  C   UNL     1      -0.648   9.928  18.885  0.00  0.00    +0.000 C 
ENDBRANCH  17  24
ENDBRANCH   1  17
TORSDOF 3
ENDMDL
