MODEL 1
REMARK VINA RESULT:      -8.4      0.000      0.000
REMARK  Name = 
REMARK  6 active torsions:
REMARK  status: ('A' for Active; 'I' for Inactive)
REMARK    1  A    between atoms: C_1  and  C_2
REMARK    2  A    between atoms: C_9  and  C_10
REMARK    3  A    between atoms: C_15  and  C_16
REMARK    4  A    between atoms: C_16  and  O_17
REMARK    5  A    between atoms: C_16  and  C_18
REMARK    6  A    between atoms: C_18  and  C_19
REMARK                            x       y       z     vdW  Elec       q    Type
REMARK                         _______ _______ _______ _____ _____    ______ ____
ROOT
ATOM      1  C   UNL     1       1.080   9.266  19.660  0.00  0.00    +0.000 C 
ATOM      2  O   UNL     1       0.472   9.702  18.679  0.00  0.00    +0.000 OA
ATOM      3  N   UNL     1       1.906   8.149  19.560  0.00  0.00    +0.000 N 
ATOM      4  C   UNL     1       2.288   7.661  18.237  0.00  0.00    +0.000 C 
ATOM      5  C   UNL     1       1.785   6.234  18.011  0.00  0.00    +0.000 C 
ATOM      6  C   UNL     1       2.153   5.263  19.156  0.00  0.00    +0.000 C 
ATOM      7  C   UNL     1       1.720   5.903  20.490  0.00  0.00    +0.000 C 
ATOM      8  C   UNL     1       2.293   7.304  20.684  0.00  0.00    +0.000 C 
ENDROOT
BRANCH   1  17
ATOM      9  C   UNL     1      -0.205  15.791  21.234  0.00  0.00    +0.000 C 
ATOM     10  C   UNL     1       0.457  14.579  20.646  0.00  0.00    +0.000 A 
ATOM     11  N   UNL     1      -0.025  13.395  21.076  0.00  0.00    +0.000 NA
ATOM     12  C   UNL     1       0.558  12.277  20.632  0.00  0.00    +0.000 A 
ATOM     13  N   UNL     1       0.076  11.074  21.059  0.00  0.00    +0.000 N 
ATOM     14  C   UNL     1      -1.097  10.919  21.881  0.00  0.00    +0.000 C 
ATOM     15  C   UNL     1      -0.684   9.824  22.858  0.00  0.00    +0.000 C 
ATOM     16  C   UNL     1       0.220   8.927  22.025  0.00  0.00    +0.000 C 
ATOM     17  C   UNL     1       0.935   9.894  21.064  0.00  0.00    +0.000 C 
ATOM     18  N   UNL     1       1.611  12.286  19.801  0.00  0.00    +0.000 NA
ATOM     19  C   UNL     1       2.039  13.458  19.320  0.00  0.00    +0.000 A 
ATOM     20  C   UNL     1       3.062  13.466  18.378  0.00  0.00    +0.000 A 
ATOM     21  C   UNL     1       3.549  14.654  17.822  0.00  0.00    +0.000 A 
ATOM     22  C   UNL     1       3.017  15.872  18.225  0.00  0.00    +0.000 A 
ATOM     23  C   UNL     1       1.999  15.891  19.175  0.00  0.00    +0.000 A 
ATOM     24  C   UNL     1       1.496  14.682  19.718  0.00  0.00    +0.000 A 
ENDBRANCH   1  17
BRANCH   6  25
ATOM     25  C   UNL     1       3.642   4.827  19.106  0.00  0.00    +0.000 C 
BRANCH  25  26
ATOM     26  O   UNL     1       3.770   3.449  19.449  0.00  0.00    +0.000 OA
ATOM     27  H   UNL     1       4.708   3.214  19.490  0.00  0.00    +0.000 HD
ENDBRANCH  25  26
BRANCH  25  28
ATOM     28  C   UNL     1       4.311   5.131  17.747  0.00  0.00    +0.000 C 
BRANCH  28  29
ATOM     29  C   UNL     1       5.672   5.765  17.920  0.00  0.00    +0.000 A 
ATOM     30  C   UNL     1       6.519   5.341  18.959  0.00  0.00    +0.000 A 
ATOM     31  C   UNL     1       7.724   5.994  19.203  0.00  0.00    +0.000 A 
ATOM     32  C   UNL     1       8.104   7.066  18.399  0.00  0.00    +0.000 A 
ATOM     33  C   UNL     1       7.286   7.474  17.345  0.00  0.00    +0.000 A 
ATOM     34  C   UNL     1       6.070   6.832  17.109  0.00  0.00    +0.000 A 
ENDBRANCH  28  29
ENDBRANCH  25  28
ENDBRANCH   6  25
TORSDOF 5
ENDMDL
MODEL 2
REMARK VINA RESULT:      -8.2      4.524      8.113
REMARK  Name = 
REMARK  6 active torsions:
REMARK  status: ('A' for Active; 'I' for Inactive)
REMARK    1  A    between atoms: C_1  and  C_2
REMARK    2  A    between atoms: C_9  and  C_10
REMARK    3  A    between atoms: C_15  and  C_16
REMARK    4  A    between atoms: C_16  and  O_17
REMARK    5  A    between atoms: C_16  and  C_18
REMARK    6  A    between atoms: C_18  and  C_19
REMARK                            x       y       z     vdW  Elec       q    Type
REMARK                         _______ _______ _______ _____ _____    ______ ____
ROOT
ATOM      1  C   UNL     1       4.966  15.227  19.001  0.00  0.00    +0.000 C 
ATOM      2  O   UNL     1       5.035  15.554  17.813  0.00  0.00    +0.000 OA
ATOM      3  N   UNL     1       4.040  14.283  19.438  0.00  0.00    +0.000 N 
ATOM      4  C   UNL     1       3.342  13.460  18.452  0.00  0.00    +0.000 C 
ATOM      5  C   UNL     1       1.832  13.696  18.510  0.00  0.00    +0.000 C 
ATOM      6  C   UNL     1       1.245  13.582  19.936  0.00  0.00    +0.000 C 
ATOM      7  C   UNL     1       2.081  14.474  20.875  0.00  0.00    +0.000 C 
ATOM      8  C   UNL     1       3.573  14.159  20.813  0.00  0.00    +0.000 C 
ENDROOT
BRANCH   1  17
ATOM      9  C   UNL     1      11.775  15.818  19.011  0.00  0.00    +0.000 C 
ATOM     10  C   UNL     1      10.406  15.206  18.953  0.00  0.00    +0.000 A 
ATOM     11  N   UNL     1       9.388  16.045  19.235  0.00  0.00    +0.000 NA
ATOM     12  C   UNL     1       8.147  15.548  19.254  0.00  0.00    +0.000 A 
ATOM     13  N   UNL     1       7.110  16.390  19.534  0.00  0.00    +0.000 N 
ATOM     14  C   UNL     1       7.249  17.813  19.711  0.00  0.00    +0.000 C 
ATOM     15  C   UNL     1       6.321  18.102  20.885  0.00  0.00    +0.000 C 
ATOM     16  C   UNL     1       5.185  17.108  20.692  0.00  0.00    +0.000 C 
ATOM     17  C   UNL     1       5.863  15.868  20.083  0.00  0.00    +0.000 C 
ATOM     18  N   UNL     1       7.877  14.254  19.029  0.00  0.00    +0.000 NA
ATOM     19  C   UNL     1       8.880  13.442  18.679  0.00  0.00    +0.000 A 
ATOM     20  C   UNL     1       8.591  12.123  18.343  0.00  0.00    +0.000 A 
ATOM     21  C   UNL     1       9.588  11.222  17.954  0.00  0.00    +0.000 A 
ATOM     22  C   UNL     1      10.913  11.636  17.912  0.00  0.00    +0.000 A 
ATOM     23  C   UNL     1      11.229  12.948  18.254  0.00  0.00    +0.000 A 
ATOM     24  C   UNL     1      10.211  13.862  18.626  0.00  0.00    +0.000 A 
ENDBRANCH   1  17
BRANCH   6  25
ATOM     25  C   UNL     1       1.109  12.108  20.403  0.00  0.00    +0.000 C 
BRANCH  25  26
ATOM     26  O   UNL     1       0.524  12.049  21.702  0.00  0.00    +0.000 OA
ATOM     27  H   UNL     1       0.289  11.131  21.906  0.00  0.00    +0.000 HD
ENDBRANCH  25  26
BRANCH  25  28
ATOM     28  C   UNL     1       0.332  11.228  19.398  0.00  0.00    +0.000 C 
BRANCH  28  29
ATOM     29  C   UNL     1       0.997   9.886  19.195  0.00  0.00    +0.000 A 
ATOM     30  C   UNL     1       1.139   9.001  20.277  0.00  0.00    +0.000 A 
ATOM     31  C   UNL     1       1.850   7.813  20.133  0.00  0.00    +0.000 A 
ATOM     32  C   UNL     1       2.412   7.489  18.901  0.00  0.00    +0.000 A 
ATOM     33  C   UNL     1       2.250   8.346  17.812  0.00  0.00    +0.000 A 
ATOM     34  C   UNL     1       1.551   9.545  17.958  0.00  0.00    +0.000 A 
ENDBRANCH  28  29
ENDBRANCH  25  28
ENDBRANCH   6  25
TORSDOF 5
ENDMDL
MODEL 3
REMARK VINA RESULT:      -8.1      1.204      1.483
REMARK  Name = 
REMARK  6 active torsions:
REMARK  status: ('A' for Active; 'I' for Inactive)
REMARK    1  A    between atoms: C_1  and  C_2
REMARK    2  A    between atoms: C_9  and  C_10
REMARK    3  A    between atoms: C_15  and  C_16
REMARK    4  A    between atoms: C_16  and  O_17
REMARK    5  A    between atoms: C_16  and  C_18
REMARK    6  A    between atoms: C_18  and  C_19
REMARK                            x       y       z     vdW  Elec       q    Type
REMARK                         _______ _______ _______ _____ _____    ______ ____
ROOT
ATOM      1  C   UNL     1       0.883   9.643  19.539  0.00  0.00    +0.000 C 
ATOM      2  O   UNL     1       0.184  10.039  18.603  0.00  0.00    +0.000 OA
ATOM      3  N   UNL     1       1.783   8.592  19.377  0.00  0.00    +0.000 N 
ATOM      4  C   UNL     1       2.116   8.143  18.027  0.00  0.00    +0.000 C 
ATOM      5  C   UNL     1       1.709   6.684  17.817  0.00  0.00    +0.000 C 
ATOM      6  C   UNL     1       2.219   5.736  18.927  0.00  0.00    +0.000 C 
ATOM      7  C   UNL     1       1.824   6.333  20.293  0.00  0.00    +0.000 C 
ATOM      8  C   UNL     1       2.301   7.772  20.466  0.00  0.00    +0.000 C 
ENDROOT
BRANCH   1  17
ATOM      9  C   UNL     1       0.195  16.223  21.255  0.00  0.00    +0.000 C 
ATOM     10  C   UNL     1       0.748  14.968  20.645  0.00  0.00    +0.000 A 
ATOM     11  N   UNL     1       0.152  13.825  21.042  0.00  0.00    +0.000 NA
ATOM     12  C   UNL     1       0.633  12.668  20.577  0.00  0.00    +0.000 A 
ATOM     13  N   UNL     1       0.035  11.506  20.970  0.00  0.00    +0.000 N 
ATOM     14  C   UNL     1      -1.158  11.443  21.776  0.00  0.00    +0.000 C 
ATOM     15  C   UNL     1      -0.862  10.292  22.731  0.00  0.00    +0.000 C 
ATOM     16  C   UNL     1      -0.035   9.333  21.886  0.00  0.00    +0.000 C 
ATOM     17  C   UNL     1       0.779  10.250  20.957  0.00  0.00    +0.000 C 
ATOM     18  N   UNL     1       1.693  12.596  19.758  0.00  0.00    +0.000 NA
ATOM     19  C   UNL     1       2.235  13.733  19.310  0.00  0.00    +0.000 A 
ATOM     20  C   UNL     1       3.266  13.666  18.379  0.00  0.00    +0.000 A 
ATOM     21  C   UNL     1       3.869  14.816  17.857  0.00  0.00    +0.000 A 
ATOM     22  C   UNL     1       3.449  16.069  18.283  0.00  0.00    +0.000 A 
ATOM     23  C   UNL     1       2.425  16.162  19.222  0.00  0.00    +0.000 A 
ATOM     24  C   UNL     1       1.804  14.994  19.731  0.00  0.00    +0.000 A 
ENDBRANCH   1  17
BRANCH   6  25
ATOM     25  C   UNL     1       3.730   5.413  18.781  0.00  0.00    +0.000 C 
BRANCH  25  26
ATOM     26  O   UNL     1       4.361   5.388  20.059  0.00  0.00    +0.000 OA
ATOM     27  H   UNL     1       3.866   5.952  20.672  0.00  0.00    +0.000 HD
ENDBRANCH  25  26
BRANCH  25  28
ATOM     28  C   UNL     1       3.992   4.105  18.001  0.00  0.00    +0.000 C 
BRANCH  28  29
ATOM     29  C   UNL     1       5.094   4.272  16.980  0.00  0.00    +0.000 A 
ATOM     30  C   UNL     1       6.406   4.553  17.399  0.00  0.00    +0.000 A 
ATOM     31  C   UNL     1       7.406   4.823  16.469  0.00  0.00    +0.000 A 
ATOM     32  C   UNL     1       7.109   4.797  15.109  0.00  0.00    +0.000 A 
ATOM     33  C   UNL     1       5.817   4.488  14.681  0.00  0.00    +0.000 A 
ATOM     34  C   UNL     1       4.810   4.232  15.611  0.00  0.00    +0.000 A 
ENDBRANCH  28  29
ENDBRANCH  25  28
ENDBRANCH   6  25
TORSDOF 5
ENDMDL
MODEL 4
REMARK VINA RESULT:      -8.0      1.062      1.501
REMARK  Name = 
REMARK  6 active torsions:
REMARK  status: ('A' for Active; 'I' for Inactive)
REMARK    1  A    between atoms: C_1  and  C_2
REMARK    2  A    between atoms: C_9  and  C_10
REMARK    3  A    between atoms: C_15  and  C_16
REMARK    4  A    between atoms: C_16  and  O_17
REMARK    5  A    between atoms: C_16  and  C_18
REMARK    6  A    between atoms: C_18  and  C_19
REMARK                            x       y       z     vdW  Elec       q    Type
REMARK                         _______ _______ _______ _____ _____    ______ ____
ROOT
ATOM      1  C   UNL     1       1.206   9.173  19.621  0.00  0.00    +0.000 C 
ATOM      2  O   UNL     1       0.617   9.664  18.655  0.00  0.00    +0.000 OA
ATOM      3  N   UNL     1       1.977   8.021  19.489  0.00  0.00    +0.000 N 
ATOM      4  C   UNL     1       2.332   7.551  18.152  0.00  0.00    +0.000 C 
ATOM      5  C   UNL     1       1.760   6.156  17.891  0.00  0.00    +0.000 C 
ATOM      6  C   UNL     1       2.085   5.138  19.009  0.00  0.00    +0.000 C 
ATOM      7  C   UNL     1       1.686   5.763  20.361  0.00  0.00    +0.000 C 
ATOM      8  C   UNL     1       2.326   7.129  20.589  0.00  0.00    +0.000 C 
ENDROOT
BRANCH   1  17
ATOM      9  C   UNL     1      -0.086  15.653  21.368  0.00  0.00    +0.000 C 
ATOM     10  C   UNL     1       0.569  14.459  20.737  0.00  0.00    +0.000 A 
ATOM     11  N   UNL     1       0.109  13.262  21.154  0.00  0.00    +0.000 NA
ATOM     12  C   UNL     1       0.688  12.159  20.671  0.00  0.00    +0.000 A 
ATOM     13  N   UNL     1       0.226  10.943  21.085  0.00  0.00    +0.000 N 
ATOM     14  C   UNL     1      -0.922  10.761  21.936  0.00  0.00    +0.000 C 
ATOM     15  C   UNL     1      -0.474   9.650  22.878  0.00  0.00    +0.000 C 
ATOM     16  C   UNL     1       0.413   8.778  22.001  0.00  0.00    +0.000 C 
ATOM     17  C   UNL     1       1.094   9.770  21.042  0.00  0.00    +0.000 C 
ATOM     18  N   UNL     1       1.717  12.194  19.812  0.00  0.00    +0.000 NA
ATOM     19  C   UNL     1       2.122  13.379  19.345  0.00  0.00    +0.000 A 
ATOM     20  C   UNL     1       3.119  13.415  18.375  0.00  0.00    +0.000 A 
ATOM     21  C   UNL     1       3.581  14.619  17.831  0.00  0.00    +0.000 A 
ATOM     22  C   UNL     1       3.051  15.823  18.274  0.00  0.00    +0.000 A 
ATOM     23  C   UNL     1       2.060  15.814  19.252  0.00  0.00    +0.000 A 
ATOM     24  C   UNL     1       1.581  14.590  19.783  0.00  0.00    +0.000 A 
ENDBRANCH   1  17
BRANCH   6  25
ATOM     25  C   UNL     1       3.551   4.633  18.942  0.00  0.00    +0.000 C 
BRANCH  25  26
ATOM     26  O   UNL     1       3.903   3.964  20.150  0.00  0.00    +0.000 OA
ATOM     27  H   UNL     1       3.104   3.809  20.676  0.00  0.00    +0.000 HD
ENDBRANCH  25  26
BRANCH  25  28
ATOM     28  C   UNL     1       3.823   3.743  17.709  0.00  0.00    +0.000 C 
BRANCH  28  29
ATOM     29  C   UNL     1       5.022   4.222  16.923  0.00  0.00    +0.000 A 
ATOM     30  C   UNL     1       4.943   4.349  15.526  0.00  0.00    +0.000 A 
ATOM     31  C   UNL     1       6.070   4.677  14.778  0.00  0.00    +0.000 A 
ATOM     32  C   UNL     1       7.285   4.900  15.422  0.00  0.00    +0.000 A 
ATOM     33  C   UNL     1       7.367   4.807  16.811  0.00  0.00    +0.000 A 
ATOM     34  C   UNL     1       6.242   4.463  17.561  0.00  0.00    +0.000 A 
ENDBRANCH  28  29
ENDBRANCH  25  28
ENDBRANCH   6  25
TORSDOF 5
ENDMDL
MODEL 5
REMARK VINA RESULT:      -7.9      5.696      8.930
REMARK  Name = 
REMARK  6 active torsions:
REMARK  status: ('A' for Active; 'I' for Inactive)
REMARK    1  A    between atoms: C_1  and  C_2
REMARK    2  A    between atoms: C_9  and  C_10
REMARK    3  A    between atoms: C_15  and  C_16
REMARK    4  A    between atoms: C_16  and  O_17
REMARK    5  A    between atoms: C_16  and  C_18
REMARK    6  A    between atoms: C_18  and  C_19
REMARK                            x       y       z     vdW  Elec       q    Type
REMARK                         _______ _______ _______ _____ _____    ______ ____
ROOT
ATOM      1  C   UNL     1      -6.079  13.411  20.391  0.00  0.00    +0.000 C 
ATOM      2  O   UNL     1      -7.110  12.983  20.917  0.00  0.00    +0.000 OA
ATOM      3  N   UNL     1      -4.872  13.440  21.085  0.00  0.00    +0.000 N 
ATOM      4  C   UNL     1      -4.752  12.698  22.338  0.00  0.00    +0.000 C 
ATOM      5  C   UNL     1      -4.453  13.637  23.507  0.00  0.00    +0.000 C 
ATOM      6  C   UNL     1      -3.267  14.594  23.241  0.00  0.00    +0.000 C 
ATOM      7  C   UNL     1      -3.505  15.293  21.887  0.00  0.00    +0.000 C 
ATOM      8  C   UNL     1      -3.747  14.305  20.749  0.00  0.00    +0.000 C 
ENDROOT
BRANCH   1  17
ATOM      9  C   UNL     1      -3.985  10.319  14.667  0.00  0.00    +0.000 C 
ATOM     10  C   UNL     1      -3.977  10.878  16.060  0.00  0.00    +0.000 A 
ATOM     11  N   UNL     1      -5.056  11.616  16.390  0.00  0.00    +0.000 NA
ATOM     12  C   UNL     1      -5.085  12.188  17.597  0.00  0.00    +0.000 A 
ATOM     13  N   UNL     1      -6.175  12.934  17.942  0.00  0.00    +0.000 N 
ATOM     14  C   UNL     1      -7.355  13.065  17.126  0.00  0.00    +0.000 C 
ATOM     15  C   UNL     1      -7.707  14.541  17.273  0.00  0.00    +0.000 C 
ATOM     16  C   UNL     1      -7.299  14.863  18.703  0.00  0.00    +0.000 C 
ATOM     17  C   UNL     1      -6.064  13.980  18.955  0.00  0.00    +0.000 C 
ATOM     18  N   UNL     1      -4.081  12.078  18.480  0.00  0.00    +0.000 NA
ATOM     19  C   UNL     1      -3.047  11.286  18.178  0.00  0.00    +0.000 A 
ATOM     20  C   UNL     1      -2.053  11.085  19.130  0.00  0.00    +0.000 A 
ATOM     21  C   UNL     1      -0.950  10.259  18.887  0.00  0.00    +0.000 A 
ATOM     22  C   UNL     1      -0.820   9.626  17.658  0.00  0.00    +0.000 A 
ATOM     23  C   UNL     1      -1.797   9.820  16.685  0.00  0.00    +0.000 A 
ATOM     24  C   UNL     1      -2.922  10.641  16.945  0.00  0.00    +0.000 A 
ENDBRANCH   1  17
BRANCH   6  25
ATOM     25  C   UNL     1      -1.894  13.881  23.363  0.00  0.00    +0.000 C 
BRANCH  25  26
ATOM     26  O   UNL     1      -1.087  14.521  24.349  0.00  0.00    +0.000 OA
ATOM     27  H   UNL     1      -1.633  14.736  25.120  0.00  0.00    +0.000 HD
ENDBRANCH  25  26
BRANCH  25  28
ATOM     28  C   UNL     1      -2.025  12.367  23.642  0.00  0.00    +0.000 C 
BRANCH  28  29
ATOM     29  C   UNL     1      -1.003  11.563  22.873  0.00  0.00    +0.000 A 
ATOM     30  C   UNL     1      -0.846  10.191  23.135  0.00  0.00    +0.000 A 
ATOM     31  C   UNL     1       0.168   9.463  22.518  0.00  0.00    +0.000 A 
ATOM     32  C   UNL     1       1.025  10.095  21.621  0.00  0.00    +0.000 A 
ATOM     33  C   UNL     1       0.858  11.450  21.331  0.00  0.00    +0.000 A 
ATOM     34  C   UNL     1      -0.148  12.185  21.959  0.00  0.00    +0.000 A 
ENDBRANCH  28  29
ENDBRANCH  25  28
ENDBRANCH   6  25
TORSDOF 5
ENDMDL
MODEL 6
REMARK VINA RESULT:      -7.9      3.557      5.630
REMARK  Name = 
REMARK  6 active torsions:
REMARK  status: ('A' for Active; 'I' for Inactive)
REMARK    1  A    between atoms: C_1  and  C_2
REMARK    2  A    between atoms: C_9  and  C_10
REMARK    3  A    between atoms: C_15  and  C_16
REMARK    4  A    between atoms: C_16  and  O_17
REMARK    5  A    between atoms: C_16  and  C_18
REMARK    6  A    between atoms: C_18  and  C_19
REMARK                            x       y       z     vdW  Elec       q    Type
REMARK                         _______ _______ _______ _____ _____    ______ ____
ROOT
ATOM      1  C   UNL     1      -1.370  11.322  21.913  0.00  0.00    +0.000 C 
ATOM      2  O   UNL     1      -1.529  10.812  23.025  0.00  0.00    +0.000 OA
ATOM      3  N   UNL     1      -0.668  10.661  20.908  0.00  0.00    +0.000 N 
ATOM      4  C   UNL     1      -0.367   9.240  21.066  0.00  0.00    +0.000 C 
ATOM      5  C   UNL     1       1.143   8.997  21.085  0.00  0.00    +0.000 C 
ATOM      6  C   UNL     1       1.888   9.659  19.902  0.00  0.00    +0.000 C 
ATOM      7  C   UNL     1       1.467  11.140  19.833  0.00  0.00    +0.000 C 
ATOM      8  C   UNL     1      -0.047  11.319  19.764  0.00  0.00    +0.000 C 
ENDROOT
BRANCH   1  17
ATOM      9  C   UNL     1      -6.381  13.025  17.590  0.00  0.00    +0.000 C 
ATOM     10  C   UNL     1      -5.109  12.434  18.121  0.00  0.00    +0.000 A 
ATOM     11  N   UNL     1      -4.780  12.806  19.376  0.00  0.00    +0.000 NA
ATOM     12  C   UNL     1      -3.631  12.357  19.887  0.00  0.00    +0.000 A 
ATOM     13  N   UNL     1      -3.292  12.725  21.158  0.00  0.00    +0.000 N 
ATOM     14  C   UNL     1      -4.146  13.487  22.033  0.00  0.00    +0.000 C 
ATOM     15  C   UNL     1      -3.172  14.449  22.703  0.00  0.00    +0.000 C 
ATOM     16  C   UNL     1      -1.894  13.633  22.825  0.00  0.00    +0.000 C 
ATOM     17  C   UNL     1      -1.893  12.736  21.575  0.00  0.00    +0.000 C 
ATOM     18  N   UNL     1      -2.783  11.577  19.201  0.00  0.00    +0.000 NA
ATOM     19  C   UNL     1      -3.145  11.151  17.986  0.00  0.00    +0.000 A 
ATOM     20  C   UNL     1      -2.319  10.258  17.312  0.00  0.00    +0.000 A 
ATOM     21  C   UNL     1      -2.642   9.761  16.045  0.00  0.00    +0.000 A 
ATOM     22  C   UNL     1      -3.812  10.174  15.420  0.00  0.00    +0.000 A 
ATOM     23  C   UNL     1      -4.650  11.075  16.070  0.00  0.00    +0.000 A 
ATOM     24  C   UNL     1      -4.327  11.558  17.363  0.00  0.00    +0.000 A 
ENDBRANCH   1  17
BRANCH   6  25
ATOM     25  C   UNL     1       1.703   8.876  18.574  0.00  0.00    +0.000 C 
BRANCH  25  26
ATOM     26  O   UNL     1       1.649   9.775  17.469  0.00  0.00    +0.000 OA
ATOM     27  H   UNL     1       1.999   9.335  16.680  0.00  0.00    +0.000 HD
ENDBRANCH  25  26
BRANCH  25  28
ATOM     28  C   UNL     1       2.781   7.790  18.362  0.00  0.00    +0.000 C 
BRANCH  28  29
ATOM     29  C   UNL     1       2.274   6.415  18.731  0.00  0.00    +0.000 A 
ATOM     30  C   UNL     1       2.223   6.022  20.079  0.00  0.00    +0.000 A 
ATOM     31  C   UNL     1       1.869   4.722  20.427  0.00  0.00    +0.000 A 
ATOM     32  C   UNL     1       1.546   3.804  19.430  0.00  0.00    +0.000 A 
ATOM     33  C   UNL     1       1.563   4.193  18.090  0.00  0.00    +0.000 A 
ATOM     34  C   UNL     1       1.933   5.491  17.738  0.00  0.00    +0.000 A 
ENDBRANCH  28  29
ENDBRANCH  25  28
ENDBRANCH   6  25
TORSDOF 5
ENDMDL
MODEL 7
REMARK VINA RESULT:      -7.9      3.776      6.024
REMARK  Name = 
REMARK  6 active torsions:
REMARK  status: ('A' for Active; 'I' for Inactive)
REMARK    1  A    between atoms: C_1  and  C_2
REMARK    2  A    between atoms: C_9  and  C_10
REMARK    3  A    between atoms: C_15  and  C_16
REMARK    4  A    between atoms: C_16  and  O_17
REMARK    5  A    between atoms: C_16  and  C_18
REMARK    6  A    between atoms: C_18  and  C_19
REMARK                            x       y       z     vdW  Elec       q    Type
REMARK                         _______ _______ _______ _____ _____    ______ ____
ROOT
ATOM      1  C   UNL     1      -1.514  11.806  22.317  0.00  0.00    +0.000 C 
ATOM      2  O   UNL     1      -1.757  11.142  23.328  0.00  0.00    +0.000 OA
ATOM      3  N   UNL     1      -0.960  11.218  21.182  0.00  0.00    +0.000 N 
ATOM      4  C   UNL     1      -0.934   9.761  21.076  0.00  0.00    +0.000 C 
ATOM      5  C   UNL     1       0.502   9.242  20.987  0.00  0.00    +0.000 C 
ATOM      6  C   UNL     1       1.348   9.955  19.906  0.00  0.00    +0.000 C 
ATOM      7  C   UNL     1       1.217  11.477  20.116  0.00  0.00    +0.000 C 
ATOM      8  C   UNL     1      -0.236  11.944  20.145  0.00  0.00    +0.000 C 
ENDROOT
BRANCH   1  17
ATOM      9  C   UNL     1      -7.355  15.061  20.903  0.00  0.00    +0.000 C 
ATOM     10  C   UNL     1      -6.175  14.143  20.766  0.00  0.00    +0.000 A 
ATOM     11  N   UNL     1      -5.219  14.291  21.706  0.00  0.00    +0.000 NA
ATOM     12  C   UNL     1      -4.117  13.541  21.609  0.00  0.00    +0.000 A 
ATOM     13  N   UNL     1      -3.145  13.681  22.558  0.00  0.00    +0.000 N 
ATOM     14  C   UNL     1      -3.270  14.515  23.726  0.00  0.00    +0.000 C 
ATOM     15  C   UNL     1      -1.890  15.153  23.836  0.00  0.00    +0.000 C 
ATOM     16  C   UNL     1      -0.953  14.061  23.341  0.00  0.00    +0.000 C 
ATOM     17  C   UNL     1      -1.761  13.330  22.254  0.00  0.00    +0.000 C 
ATOM     18  N   UNL     1      -3.914  12.670  20.610  0.00  0.00    +0.000 NA
ATOM     19  C   UNL     1      -4.895  12.473  19.722  0.00  0.00    +0.000 A 
ATOM     20  C   UNL     1      -4.732  11.496  18.745  0.00  0.00    +0.000 A 
ATOM     21  C   UNL     1      -5.722  11.227  17.794  0.00  0.00    +0.000 A 
ATOM     22  C   UNL     1      -6.902  11.960  17.801  0.00  0.00    +0.000 A 
ATOM     23  C   UNL     1      -7.084  12.950  18.763  0.00  0.00    +0.000 A 
ATOM     24  C   UNL     1      -6.086  13.203  19.737  0.00  0.00    +0.000 A 
ENDBRANCH   1  17
BRANCH   6  25
ATOM     25  C   UNL     1       1.004   9.472  18.472  0.00  0.00    +0.000 C 
BRANCH  25  26
ATOM     26  O   UNL     1       0.159  10.416  17.818  0.00  0.00    +0.000 OA
ATOM     27  H   UNL     1       0.387  10.452  16.877  0.00  0.00    +0.000 HD
ENDBRANCH  25  26
BRANCH  25  28
ATOM     28  C   UNL     1       2.259   9.162  17.625  0.00  0.00    +0.000 C 
BRANCH  28  29
ATOM     29  C   UNL     1       2.753   7.752  17.848  0.00  0.00    +0.000 A 
ATOM     30  C   UNL     1       4.036   7.379  17.412  0.00  0.00    +0.000 A 
ATOM     31  C   UNL     1       4.460   6.056  17.506  0.00  0.00    +0.000 A 
ATOM     32  C   UNL     1       3.612   5.095  18.052  0.00  0.00    +0.000 A 
ATOM     33  C   UNL     1       2.348   5.462  18.516  0.00  0.00    +0.000 A 
ATOM     34  C   UNL     1       1.915   6.783  18.409  0.00  0.00    +0.000 A 
ENDBRANCH  28  29
ENDBRANCH  25  28
ENDBRANCH   6  25
TORSDOF 5
ENDMDL
MODEL 8
REMARK VINA RESULT:      -7.8      4.202      7.123
REMARK  Name = 
REMARK  6 active torsions:
REMARK  status: ('A' for Active; 'I' for Inactive)
REMARK    1  A    between atoms: C_1  and  C_2
REMARK    2  A    between atoms: C_9  and  C_10
REMARK    3  A    between atoms: C_15  and  C_16
REMARK    4  A    between atoms: C_16  and  O_17
REMARK    5  A    between atoms: C_16  and  C_18
REMARK    6  A    between atoms: C_18  and  C_19
REMARK                            x       y       z     vdW  Elec       q    Type
REMARK                         _______ _______ _______ _____ _____    ______ ____
ROOT
ATOM      1  C   UNL     1       2.675  15.172  21.142  0.00  0.00    +0.000 C 
ATOM      2  O   UNL     1       2.581  14.907  22.344  0.00  0.00    +0.000 OA
ATOM      3  N   UNL     1       3.874  14.998  20.454  0.00  0.00    +0.000 N 
ATOM      4  C   UNL     1       4.947  14.227  21.079  0.00  0.00    +0.000 C 
ATOM      5  C   UNL     1       6.193  15.090  21.286  0.00  0.00    +0.000 C 
ATOM      6  C   UNL     1       6.637  15.847  20.013  0.00  0.00    +0.000 C 
ATOM      7  C   UNL     1       5.414  16.595  19.444  0.00  0.00    +0.000 C 
ATOM      8  C   UNL     1       4.218  15.675  19.210  0.00  0.00    +0.000 C 
ENDROOT
BRANCH   1  17
ATOM      9  C   UNL     1      -2.895  11.903  18.906  0.00  0.00    +0.000 C 
ATOM     10  C   UNL     1      -1.454  12.254  19.133  0.00  0.00    +0.000 A 
ATOM     11  N   UNL     1      -1.239  13.433  19.752  0.00  0.00    +0.000 NA
ATOM     12  C   UNL     1       0.024  13.830  19.934  0.00  0.00    +0.000 A 
ATOM     13  N   UNL     1       0.251  15.021  20.563  0.00  0.00    +0.000 N 
ATOM     14  C   UNL     1      -0.784  15.839  21.143  0.00  0.00    +0.000 C 
ATOM     15  C   UNL     1      -0.356  17.250  20.758  0.00  0.00    +0.000 C 
ATOM     16  C   UNL     1       1.164  17.183  20.795  0.00  0.00    +0.000 C 
ATOM     17  C   UNL     1       1.493  15.752  20.333  0.00  0.00    +0.000 C 
ATOM     18  N   UNL     1       1.079  13.121  19.508  0.00  0.00    +0.000 NA
ATOM     19  C   UNL     1       0.865  11.920  18.961  0.00  0.00    +0.000 A 
ATOM     20  C   UNL     1       1.959  11.134  18.614  0.00  0.00    +0.000 A 
ATOM     21  C   UNL     1       1.809   9.862  18.050  0.00  0.00    +0.000 A 
ATOM     22  C   UNL     1       0.537   9.361  17.809  0.00  0.00    +0.000 A 
ATOM     23  C   UNL     1      -0.574  10.133  18.139  0.00  0.00    +0.000 A 
ATOM     24  C   UNL     1      -0.415  11.411  18.729  0.00  0.00    +0.000 A 
ENDBRANCH   1  17
BRANCH   6  25
ATOM     25  C   UNL     1       7.354  14.922  18.994  0.00  0.00    +0.000 C 
BRANCH  25  26
ATOM     26  O   UNL     1       7.268  15.467  17.679  0.00  0.00    +0.000 OA
ATOM     27  H   UNL     1       8.106  15.322  17.216  0.00  0.00    +0.000 HD
ENDBRANCH  25  26
BRANCH  25  28
ATOM     28  C   UNL     1       8.820  14.623  19.382  0.00  0.00    +0.000 C 
BRANCH  28  29
ATOM     29  C   UNL     1       9.097  13.138  19.427  0.00  0.00    +0.000 A 
ATOM     30  C   UNL     1       9.169  12.400  18.233  0.00  0.00    +0.000 A 
ATOM     31  C   UNL     1       9.309  11.015  18.264  0.00  0.00    +0.000 A 
ATOM     32  C   UNL     1       9.396  10.356  19.487  0.00  0.00    +0.000 A 
ATOM     33  C   UNL     1       9.357  11.084  20.677  0.00  0.00    +0.000 A 
ATOM     34  C   UNL     1       9.202  12.469  20.650  0.00  0.00    +0.000 A 
ENDBRANCH  28  29
ENDBRANCH  25  28
ENDBRANCH   6  25
TORSDOF 5
ENDMDL
MODEL 9
REMARK VINA RESULT:      -7.8      4.808      8.224
REMARK  Name = 
REMARK  6 active torsions:
REMARK  status: ('A' for Active; 'I' for Inactive)
REMARK    1  A    between atoms: C_1  and  C_2
REMARK    2  A    between atoms: C_9  and  C_10
REMARK    3  A    between atoms: C_15  and  C_16
REMARK    4  A    between atoms: C_16  and  O_17
REMARK    5  A    between atoms: C_16  and  C_18
REMARK    6  A    between atoms: C_18  and  C_19
REMARK                            x       y       z     vdW  Elec       q    Type
REMARK                         _______ _______ _______ _____ _____    ______ ____
ROOT
ATOM      1  C   UNL     1      -1.009  13.866  22.403  0.00  0.00    +0.000 C 
ATOM      2  O   UNL     1      -0.809  13.429  23.539  0.00  0.00    +0.000 OA
ATOM      3  N   UNL     1      -0.762  13.087  21.275  0.00  0.00    +0.000 N 
ATOM      4  C   UNL     1      -0.543  11.651  21.435  0.00  0.00    +0.000 C 
ATOM      5  C   UNL     1       0.852  11.251  20.952  0.00  0.00    +0.000 C 
ATOM      6  C   UNL     1       1.186  11.772  19.535  0.00  0.00    +0.000 C 
ATOM      7  C   UNL     1       0.891  13.285  19.494  0.00  0.00    +0.000 C 
ATOM      8  C   UNL     1      -0.530  13.619  19.937  0.00  0.00    +0.000 C 
ENDROOT
BRANCH   1  17
ATOM      9  C   UNL     1      -7.284  16.401  23.359  0.00  0.00    +0.000 C 
ATOM     10  C   UNL     1      -6.169  15.527  22.863  0.00  0.00    +0.000 A 
ATOM     11  N   UNL     1      -4.925  15.954  23.164  0.00  0.00    +0.000 NA
ATOM     12  C   UNL     1      -3.887  15.249  22.704  0.00  0.00    +0.000 A 
ATOM     13  N   UNL     1      -2.624  15.671  23.008  0.00  0.00    +0.000 N 
ATOM     14  C   UNL     1      -2.330  16.775  23.885  0.00  0.00    +0.000 C 
ATOM     15  C   UNL     1      -1.177  17.475  23.175  0.00  0.00    +0.000 C 
ATOM     16  C   UNL     1      -0.412  16.331  22.528  0.00  0.00    +0.000 C 
ATOM     17  C   UNL     1      -1.499  15.309  22.151  0.00  0.00    +0.000 C 
ATOM     18  N   UNL     1      -4.029  14.157  21.939  0.00  0.00    +0.000 NA
ATOM     19  C   UNL     1      -5.262  13.696  21.704  0.00  0.00    +0.000 A 
ATOM     20  C   UNL     1      -5.413  12.506  21.000  0.00  0.00    +0.000 A 
ATOM     21  C   UNL     1      -6.671  11.958  20.730  0.00  0.00    +0.000 A 
ATOM     22  C   UNL     1      -7.816  12.619  21.155  0.00  0.00    +0.000 A 
ATOM     23  C   UNL     1      -7.692  13.818  21.853  0.00  0.00    +0.000 A 
ATOM     24  C   UNL     1      -6.413  14.356  22.142  0.00  0.00    +0.000 A 
ENDBRANCH   1  17
BRANCH   6  25
ATOM     25  C   UNL     1       0.482  10.950  18.422  0.00  0.00    +0.000 C 
BRANCH  25  26
ATOM     26  O   UNL     1       1.383   9.999  17.859  0.00  0.00    +0.000 OA
ATOM     27  H   UNL     1       2.214  10.440  17.630  0.00  0.00    +0.000 HD
ENDBRANCH  25  26
BRANCH  25  28
ATOM     28  C   UNL     1      -0.818  10.271  18.907  0.00  0.00    +0.000 C 
BRANCH  28  29
ATOM     29  C   UNL     1      -1.981  10.560  17.986  0.00  0.00    +0.000 A 
ATOM     30  C   UNL     1      -3.055  11.348  18.435  0.00  0.00    +0.000 A 
ATOM     31  C   UNL     1      -4.184  11.527  17.640  0.00  0.00    +0.000 A 
ATOM     32  C   UNL     1      -4.244  10.934  16.381  0.00  0.00    +0.000 A 
ATOM     33  C   UNL     1      -3.169  10.176  15.914  0.00  0.00    +0.000 A 
ATOM     34  C   UNL     1      -2.044   9.983  16.715  0.00  0.00    +0.000 A 
ENDBRANCH  28  29
ENDBRANCH  25  28
ENDBRANCH   6  25
TORSDOF 5
ENDMDL
