MODEL 1
REMARK VINA RESULT:      -7.5      0.000      0.000
REMARK  Name = 
REMARK  4 active torsions:
REMARK  status: ('A' for Active; 'I' for Inactive)
REMARK    1  A    between atoms: C_1  and  C_2
REMARK    2  A    between atoms: C_6  and  C_7
REMARK    3  A    between atoms: N_9  and  C_10
REMARK    4  A    between atoms: C_10  and  C_11
REMARK                            x       y       z     vdW  Elec       q    Type
REMARK                         _______ _______ _______ _____ _____    ______ ____
ROOT
ATOM      1  C   UNL     1       5.857   4.172  13.980  0.00  0.00    +0.000 C 
ATOM      2  C   UNL     1       5.926   4.670  15.439  0.00  0.00    +0.000 C 
ATOM      3  C   UNL     1       7.358   5.196  15.698  0.00  0.00    +0.000 C 
ATOM      4  N   UNL     1       7.575   5.986  16.906  0.00  0.00    +0.000 NA
ATOM      5  C   UNL     1       6.470   6.852  17.301  0.00  0.00    +0.000 C 
ATOM      6  C   UNL     1       5.042   6.291  17.076  0.00  0.00    +0.000 C 
ATOM      7  C   UNL     1       4.033   7.435  17.312  0.00  0.00    +0.000 C 
ATOM      8  C   UNL     1       4.718   5.145  18.069  0.00  0.00    +0.000 C 
ATOM      9  N   UNL     1       4.853   3.745  17.642  0.00  0.00    +0.000 NA
ATOM     10  C   UNL     1       5.552   3.492  16.372  0.00  0.00    +0.000 C 
ATOM     11  C   UNL     1       4.932   5.819  15.625  0.00  0.00    +0.000 C 
ATOM     12  H   UNL     1       8.405   6.568  16.766  0.00  0.00    +0.000 HD
ENDROOT
BRANCH   9  13
ATOM     13  C   UNL     1       3.582   2.995  17.706  0.00  0.00    +0.000 C 
BRANCH  13  14
ATOM     14  C   UNL     1       2.807   3.053  19.013  0.00  0.00    +0.000 A 
ATOM     15  C   UNL     1       1.486   3.524  19.012  0.00  0.00    +0.000 A 
ATOM     16  C   UNL     1       0.726   3.538  20.186  0.00  0.00    +0.000 A 
ATOM     17  C   UNL     1       1.268   3.070  21.380  0.00  0.00    +0.000 A 
ATOM     18  C   UNL     1       2.579   2.577  21.394  0.00  0.00    +0.000 A 
ATOM     19  C   UNL     1       3.331   2.550  20.216  0.00  0.00    +0.000 A 
ENDBRANCH  13  14
ENDBRANCH   9  13
TORSDOF 2
ENDMDL
MODEL 2
REMARK VINA RESULT:      -7.5      0.112      1.140
REMARK  Name = 
REMARK  4 active torsions:
REMARK  status: ('A' for Active; 'I' for Inactive)
REMARK    1  A    between atoms: C_1  and  C_2
REMARK    2  A    between atoms: C_6  and  C_7
REMARK    3  A    between atoms: N_9  and  C_10
REMARK    4  A    between atoms: C_10  and  C_11
REMARK                            x       y       z     vdW  Elec       q    Type
REMARK                         _______ _______ _______ _____ _____    ______ ____
ROOT
ATOM      1  C   UNL     1       5.830   4.215  13.919  0.00  0.00    +0.000 C 
ATOM      2  C   UNL     1       5.903   4.677  15.391  0.00  0.00    +0.000 C 
ATOM      3  C   UNL     1       7.346   5.162  15.669  0.00  0.00    +0.000 C 
ATOM      4  N   UNL     1       7.574   5.917  16.898  0.00  0.00    +0.000 NA
ATOM      5  C   UNL     1       6.488   6.800  17.308  0.00  0.00    +0.000 C 
ATOM      6  C   UNL     1       5.049   6.279  17.062  0.00  0.00    +0.000 C 
ATOM      7  C   UNL     1       4.066   7.441  17.321  0.00  0.00    +0.000 C 
ATOM      8  C   UNL     1       4.692   5.117  18.025  0.00  0.00    +0.000 C 
ATOM      9  N   UNL     1       4.796   3.725  17.565  0.00  0.00    +0.000 NA
ATOM     10  C   UNL     1       5.496   3.486  16.294  0.00  0.00    +0.000 C 
ATOM     11  C   UNL     1       4.936   5.844  15.599  0.00  0.00    +0.000 C 
ATOM     12  H   UNL     1       8.419   6.483  16.776  0.00  0.00    +0.000 HD
ENDROOT
BRANCH   9  13
ATOM     13  C   UNL     1       3.507   3.004  17.604  0.00  0.00    +0.000 C 
BRANCH  13  14
ATOM     14  C   UNL     1       2.723   3.055  18.907  0.00  0.00    +0.000 A 
ATOM     15  C   UNL     1       3.307   2.560  20.083  0.00  0.00    +0.000 A 
ATOM     16  C   UNL     1       2.638   2.643  21.308  0.00  0.00    +0.000 A 
ATOM     17  C   UNL     1       1.379   3.232  21.384  0.00  0.00    +0.000 A 
ATOM     18  C   UNL     1       0.791   3.749  20.222  0.00  0.00    +0.000 A 
ATOM     19  C   UNL     1       1.468   3.678  19.002  0.00  0.00    +0.000 A 
ENDBRANCH  13  14
ENDBRANCH   9  13
TORSDOF 2
ENDMDL
MODEL 3
REMARK VINA RESULT:      -7.4      1.890      5.502
REMARK  Name = 
REMARK  4 active torsions:
REMARK  status: ('A' for Active; 'I' for Inactive)
REMARK    1  A    between atoms: C_1  and  C_2
REMARK    2  A    between atoms: C_6  and  C_7
REMARK    3  A    between atoms: N_9  and  C_10
REMARK    4  A    between atoms: C_10  and  C_11
REMARK                            x       y       z     vdW  Elec       q    Type
REMARK                         _______ _______ _______ _____ _____    ______ ____
ROOT
ATOM      1  C   UNL     1       4.465   2.058  20.460  0.00  0.00    +0.000 C 
ATOM      2  C   UNL     1       3.334   2.860  19.782  0.00  0.00    +0.000 C 
ATOM      3  C   UNL     1       1.985   2.368  20.361  0.00  0.00    +0.000 C 
ATOM      4  N   UNL     1       0.803   3.181  20.092  0.00  0.00    +0.000 NA
ATOM      5  C   UNL     1       1.022   4.622  20.057  0.00  0.00    +0.000 C 
ATOM      6  C   UNL     1       2.359   5.100  19.433  0.00  0.00    +0.000 C 
ATOM      7  C   UNL     1       2.510   6.609  19.718  0.00  0.00    +0.000 C 
ATOM      8  C   UNL     1       2.376   4.891  17.896  0.00  0.00    +0.000 C 
ATOM      9  N   UNL     1       3.043   3.714  17.323  0.00  0.00    +0.000 NA
ATOM     10  C   UNL     1       3.433   2.641  18.252  0.00  0.00    +0.000 C 
ATOM     11  C   UNL     1       3.505   4.345  20.110  0.00  0.00    +0.000 C 
ATOM     12  H   UNL     1       0.103   2.981  20.812  0.00  0.00    +0.000 HD
ENDROOT
BRANCH   9  13
ATOM     13  C   UNL     1       4.159   4.063  16.419  0.00  0.00    +0.000 C 
BRANCH  13  14
ATOM     14  C   UNL     1       5.243   4.973  16.976  0.00  0.00    +0.000 A 
ATOM     15  C   UNL     1       6.317   4.413  17.683  0.00  0.00    +0.000 A 
ATOM     16  C   UNL     1       7.360   5.214  18.160  0.00  0.00    +0.000 A 
ATOM     17  C   UNL     1       7.355   6.587  17.928  0.00  0.00    +0.000 A 
ATOM     18  C   UNL     1       6.300   7.158  17.206  0.00  0.00    +0.000 A 
ATOM     19  C   UNL     1       5.267   6.354  16.718  0.00  0.00    +0.000 A 
ENDBRANCH  13  14
ENDBRANCH   9  13
TORSDOF 2
ENDMDL
MODEL 4
REMARK VINA RESULT:      -7.4      1.344      2.874
REMARK  Name = 
REMARK  4 active torsions:
REMARK  status: ('A' for Active; 'I' for Inactive)
REMARK    1  A    between atoms: C_1  and  C_2
REMARK    2  A    between atoms: C_6  and  C_7
REMARK    3  A    between atoms: N_9  and  C_10
REMARK    4  A    between atoms: C_10  and  C_11
REMARK                            x       y       z     vdW  Elec       q    Type
REMARK                         _______ _______ _______ _____ _____    ______ ____
ROOT
ATOM      1  C   UNL     1       2.977   6.599  19.207  0.00  0.00    +0.000 C 
ATOM      2  C   UNL     1       3.876   6.016  18.096  0.00  0.00    +0.000 C 
ATOM      3  C   UNL     1       4.098   7.118  17.032  0.00  0.00    +0.000 C 
ATOM      4  N   UNL     1       5.151   6.896  16.046  0.00  0.00    +0.000 NA
ATOM      5  C   UNL     1       6.335   6.197  16.533  0.00  0.00    +0.000 C 
ATOM      6  C   UNL     1       6.090   5.066  17.564  0.00  0.00    +0.000 C 
ATOM      7  C   UNL     1       7.457   4.633  18.137  0.00  0.00    +0.000 C 
ATOM      8  C   UNL     1       5.425   3.829  16.905  0.00  0.00    +0.000 C 
ATOM      9  N   UNL     1       3.973   3.633  17.013  0.00  0.00    +0.000 NA
ATOM     10  C   UNL     1       3.175   4.765  17.511  0.00  0.00    +0.000 C 
ATOM     11  C   UNL     1       5.227   5.625  18.698  0.00  0.00    +0.000 C 
ATOM     12  H   UNL     1       5.444   7.805  15.677  0.00  0.00    +0.000 HD
ENDROOT
BRANCH   9  13
ATOM     13  C   UNL     1       3.607   2.381  17.706  0.00  0.00    +0.000 C 
BRANCH  13  14
ATOM     14  C   UNL     1       2.796   2.509  18.987  0.00  0.00    +0.000 A 
ATOM     15  C   UNL     1       3.461   2.600  20.219  0.00  0.00    +0.000 A 
ATOM     16  C   UNL     1       2.749   2.776  21.409  0.00  0.00    +0.000 A 
ATOM     17  C   UNL     1       1.361   2.876  21.390  0.00  0.00    +0.000 A 
ATOM     18  C   UNL     1       0.683   2.807  20.167  0.00  0.00    +0.000 A 
ATOM     19  C   UNL     1       1.398   2.647  18.977  0.00  0.00    +0.000 A 
ENDBRANCH  13  14
ENDBRANCH   9  13
TORSDOF 2
ENDMDL
MODEL 5
REMARK VINA RESULT:      -7.3      1.817      5.624
REMARK  Name = 
REMARK  4 active torsions:
REMARK  status: ('A' for Active; 'I' for Inactive)
REMARK    1  A    between atoms: C_1  and  C_2
REMARK    2  A    between atoms: C_6  and  C_7
REMARK    3  A    between atoms: N_9  and  C_10
REMARK    4  A    between atoms: C_10  and  C_11
REMARK                            x       y       z     vdW  Elec       q    Type
REMARK                         _______ _______ _______ _____ _____    ______ ____
ROOT
ATOM      1  C   UNL     1       2.327   7.107  18.625  0.00  0.00    +0.000 C 
ATOM      2  C   UNL     1       2.618   5.696  19.181  0.00  0.00    +0.000 C 
ATOM      3  C   UNL     1       1.657   5.442  20.367  0.00  0.00    +0.000 C 
ATOM      4  N   UNL     1       1.543   4.071  20.857  0.00  0.00    +0.000 NA
ATOM      5  C   UNL     1       1.631   3.029  19.840  0.00  0.00    +0.000 C 
ATOM      6  C   UNL     1       2.631   3.279  18.682  0.00  0.00    +0.000 C 
ATOM      7  C   UNL     1       2.393   2.205  17.600  0.00  0.00    +0.000 C 
ATOM      8  C   UNL     1       4.101   3.166  19.165  0.00  0.00    +0.000 C 
ATOM      9  N   UNL     1       4.861   4.380  19.491  0.00  0.00    +0.000 NA
ATOM     10  C   UNL     1       4.106   5.638  19.604  0.00  0.00    +0.000 C 
ATOM     11  C   UNL     1       2.345   4.660  18.088  0.00  0.00    +0.000 C 
ATOM     12  H   UNL     1       0.646   3.974  21.339  0.00  0.00    +0.000 HD
ENDROOT
BRANCH   9  13
ATOM     13  C   UNL     1       6.061   4.557  18.646  0.00  0.00    +0.000 C 
BRANCH  13  14
ATOM     14  C   UNL     1       5.834   4.777  17.158  0.00  0.00    +0.000 A 
ATOM     15  C   UNL     1       5.486   6.055  16.695  0.00  0.00    +0.000 A 
ATOM     16  C   UNL     1       5.325   6.306  15.329  0.00  0.00    +0.000 A 
ATOM     17  C   UNL     1       5.522   5.289  14.399  0.00  0.00    +0.000 A 
ATOM     18  C   UNL     1       5.890   4.013  14.843  0.00  0.00    +0.000 A 
ATOM     19  C   UNL     1       6.064   3.768  16.208  0.00  0.00    +0.000 A 
ENDBRANCH  13  14
ENDBRANCH   9  13
TORSDOF 2
ENDMDL
MODEL 6
REMARK VINA RESULT:      -7.3      1.117      2.684
REMARK  Name = 
REMARK  4 active torsions:
REMARK  status: ('A' for Active; 'I' for Inactive)
REMARK    1  A    between atoms: C_1  and  C_2
REMARK    2  A    between atoms: C_6  and  C_7
REMARK    3  A    between atoms: N_9  and  C_10
REMARK    4  A    between atoms: C_10  and  C_11
REMARK                            x       y       z     vdW  Elec       q    Type
REMARK                         _______ _______ _______ _____ _____    ______ ____
ROOT
ATOM      1  C   UNL     1       7.825   5.546  18.888  0.00  0.00    +0.000 C 
ATOM      2  C   UNL     1       6.688   5.558  17.845  0.00  0.00    +0.000 C 
ATOM      3  C   UNL     1       6.536   7.006  17.319  0.00  0.00    +0.000 C 
ATOM      4  N   UNL     1       5.731   7.202  16.117  0.00  0.00    +0.000 NA
ATOM      5  C   UNL     1       5.816   6.141  15.120  0.00  0.00    +0.000 C 
ATOM      6  C   UNL     1       5.923   4.693  15.664  0.00  0.00    +0.000 C 
ATOM      7  C   UNL     1       6.255   3.759  14.481  0.00  0.00    +0.000 C 
ATOM      8  C   UNL     1       4.586   4.223  16.294  0.00  0.00    +0.000 C 
ATOM      9  N   UNL     1       4.403   4.281  17.751  0.00  0.00    +0.000 NA
ATOM     10  C   UNL     1       5.397   5.039  18.526  0.00  0.00    +0.000 C 
ATOM     11  C   UNL     1       7.067   4.642  16.679  0.00  0.00    +0.000 C 
ATOM     12  H   UNL     1       6.019   8.080  15.677  0.00  0.00    +0.000 HD
ENDROOT
BRANCH   9  13
ATOM     13  C   UNL     1       4.157   2.956  18.358  0.00  0.00    +0.000 C 
BRANCH  13  14
ATOM     14  C   UNL     1       3.072   2.871  19.421  0.00  0.00    +0.000 A 
ATOM     15  C   UNL     1       3.427   2.578  20.746  0.00  0.00    +0.000 A 
ATOM     16  C   UNL     1       2.463   2.548  21.759  0.00  0.00    +0.000 A 
ATOM     17  C   UNL     1       1.129   2.822  21.469  0.00  0.00    +0.000 A 
ATOM     18  C   UNL     1       0.762   3.137  20.155  0.00  0.00    +0.000 A 
ATOM     19  C   UNL     1       1.730   3.181  19.147  0.00  0.00    +0.000 A 
ENDBRANCH  13  14
ENDBRANCH   9  13
TORSDOF 2
ENDMDL
MODEL 7
REMARK VINA RESULT:      -7.3      1.797      5.663
REMARK  Name = 
REMARK  4 active torsions:
REMARK  status: ('A' for Active; 'I' for Inactive)
REMARK    1  A    between atoms: C_1  and  C_2
REMARK    2  A    between atoms: C_6  and  C_7
REMARK    3  A    between atoms: N_9  and  C_10
REMARK    4  A    between atoms: C_10  and  C_11
REMARK                            x       y       z     vdW  Elec       q    Type
REMARK                         _______ _______ _______ _____ _____    ______ ____
ROOT
ATOM      1  C   UNL     1       2.227   6.997  18.666  0.00  0.00    +0.000 C 
ATOM      2  C   UNL     1       2.569   5.585  19.189  0.00  0.00    +0.000 C 
ATOM      3  C   UNL     1       1.579   5.244  20.328  0.00  0.00    +0.000 C 
ATOM      4  N   UNL     1       1.518   3.854  20.770  0.00  0.00    +0.000 NA
ATOM      5  C   UNL     1       1.698   2.851  19.726  0.00  0.00    +0.000 C 
ATOM      6  C   UNL     1       2.726   3.190  18.616  0.00  0.00    +0.000 C 
ATOM      7  C   UNL     1       2.584   2.142  17.493  0.00  0.00    +0.000 C 
ATOM      8  C   UNL     1       4.180   3.135  19.152  0.00  0.00    +0.000 C 
ATOM      9  N   UNL     1       4.864   4.375  19.545  0.00  0.00    +0.000 NA
ATOM     10  C   UNL     1       4.042   5.589  19.668  0.00  0.00    +0.000 C 
ATOM     11  C   UNL     1       2.391   4.574  18.055  0.00  0.00    +0.000 C 
ATOM     12  H   UNL     1       0.609   3.696  21.213  0.00  0.00    +0.000 HD
ENDROOT
BRANCH   9  13
ATOM     13  C   UNL     1       6.084   4.640  18.754  0.00  0.00    +0.000 C 
BRANCH  13  14
ATOM     14  C   UNL     1       5.905   4.874  17.262  0.00  0.00    +0.000 A 
ATOM     15  C   UNL     1       6.090   3.808  16.369  0.00  0.00    +0.000 A 
ATOM     16  C   UNL     1       5.878   3.974  14.996  0.00  0.00    +0.000 A 
ATOM     17  C   UNL     1       5.466   5.205  14.492  0.00  0.00    +0.000 A 
ATOM     18  C   UNL     1       5.258   6.274  15.373  0.00  0.00    +0.000 A 
ATOM     19  C   UNL     1       5.455   6.101  16.745  0.00  0.00    +0.000 A 
ENDBRANCH  13  14
ENDBRANCH   9  13
TORSDOF 2
ENDMDL
MODEL 8
REMARK VINA RESULT:      -7.2      1.905      5.361
REMARK  Name = 
REMARK  4 active torsions:
REMARK  status: ('A' for Active; 'I' for Inactive)
REMARK    1  A    between atoms: C_1  and  C_2
REMARK    2  A    between atoms: C_6  and  C_7
REMARK    3  A    between atoms: N_9  and  C_10
REMARK    4  A    between atoms: C_10  and  C_11
REMARK                            x       y       z     vdW  Elec       q    Type
REMARK                         _______ _______ _______ _____ _____    ______ ____
ROOT
ATOM      1  C   UNL     1       4.511   2.118  20.513  0.00  0.00    +0.000 C 
ATOM      2  C   UNL     1       3.359   2.891  19.835  0.00  0.00    +0.000 C 
ATOM      3  C   UNL     1       2.029   2.426  20.477  0.00  0.00    +0.000 C 
ATOM      4  N   UNL     1       0.839   3.227  20.208  0.00  0.00    +0.000 NA
ATOM      5  C   UNL     1       1.056   4.666  20.103  0.00  0.00    +0.000 C 
ATOM      6  C   UNL     1       2.373   5.114  19.418  0.00  0.00    +0.000 C 
ATOM      7  C   UNL     1       2.533   6.634  19.632  0.00  0.00    +0.000 C 
ATOM      8  C   UNL     1       2.342   4.838  17.892  0.00  0.00    +0.000 C 
ATOM      9  N   UNL     1       2.993   3.636  17.351  0.00  0.00    +0.000 NA
ATOM     10  C   UNL     1       3.411   2.605  18.314  0.00  0.00    +0.000 C 
ATOM     11  C   UNL     1       3.539   4.388  20.093  0.00  0.00    +0.000 C 
ATOM     12  H   UNL     1       0.161   3.060  20.957  0.00  0.00    +0.000 HD
ENDROOT
BRANCH   9  13
ATOM     13  C   UNL     1       4.080   3.944  16.399  0.00  0.00    +0.000 C 
BRANCH  13  14
ATOM     14  C   UNL     1       5.207   4.834  16.899  0.00  0.00    +0.000 A 
ATOM     15  C   UNL     1       5.139   6.220  16.687  0.00  0.00    +0.000 A 
ATOM     16  C   UNL     1       6.130   7.073  17.182  0.00  0.00    +0.000 A 
ATOM     17  C   UNL     1       7.201   6.560  17.909  0.00  0.00    +0.000 A 
ATOM     18  C   UNL     1       7.273   5.182  18.147  0.00  0.00    +0.000 A 
ATOM     19  C   UNL     1       6.274   4.333  17.664  0.00  0.00    +0.000 A 
ENDBRANCH  13  14
ENDBRANCH   9  13
TORSDOF 2
ENDMDL
MODEL 9
REMARK VINA RESULT:      -7.2      1.150      2.429
REMARK  Name = 
REMARK  4 active torsions:
REMARK  status: ('A' for Active; 'I' for Inactive)
REMARK    1  A    between atoms: C_1  and  C_2
REMARK    2  A    between atoms: C_6  and  C_7
REMARK    3  A    between atoms: N_9  and  C_10
REMARK    4  A    between atoms: C_10  and  C_11
REMARK                            x       y       z     vdW  Elec       q    Type
REMARK                         _______ _______ _______ _____ _____    ______ ____
ROOT
ATOM      1  C   UNL     1       7.932   5.385  18.881  0.00  0.00    +0.000 C 
ATOM      2  C   UNL     1       6.779   5.469  17.858  0.00  0.00    +0.000 C 
ATOM      3  C   UNL     1       6.695   6.929  17.351  0.00  0.00    +0.000 C 
ATOM      4  N   UNL     1       5.881   7.181  16.165  0.00  0.00    +0.000 NA
ATOM      5  C   UNL     1       5.893   6.129  15.155  0.00  0.00    +0.000 C 
ATOM      6  C   UNL     1       5.933   4.671  15.682  0.00  0.00    +0.000 C 
ATOM      7  C   UNL     1       6.195   3.734  14.483  0.00  0.00    +0.000 C 
ATOM      8  C   UNL     1       4.585   4.263  16.331  0.00  0.00    +0.000 C 
ATOM      9  N   UNL     1       4.429   4.314  17.791  0.00  0.00    +0.000 NA
ATOM     10  C   UNL     1       5.475   5.011  18.557  0.00  0.00    +0.000 C 
ATOM     11  C   UNL     1       7.090   4.548  16.676  0.00  0.00    +0.000 C 
ATOM     12  H   UNL     1       6.207   8.048  15.729  0.00  0.00    +0.000 HD
ENDROOT
BRANCH   9  13
ATOM     13  C   UNL     1       4.124   2.997  18.388  0.00  0.00    +0.000 C 
BRANCH  13  14
ATOM     14  C   UNL     1       3.084   2.963  19.497  0.00  0.00    +0.000 A 
ATOM     15  C   UNL     1       1.736   3.197  19.186  0.00  0.00    +0.000 A 
ATOM     16  C   UNL     1       0.747   3.117  20.171  0.00  0.00    +0.000 A 
ATOM     17  C   UNL     1       1.084   2.791  21.482  0.00  0.00    +0.000 A 
ATOM     18  C   UNL     1       2.422   2.535  21.804  0.00  0.00    +0.000 A 
ATOM     19  C   UNL     1       3.407   2.601  20.815  0.00  0.00    +0.000 A 
ENDBRANCH  13  14
ENDBRANCH   9  13
TORSDOF 2
ENDMDL
