MODEL 1
REMARK VINA RESULT:      -7.2      0.000      0.000
REMARK  Name = 
REMARK  11 active torsions:
REMARK  status: ('A' for Active; 'I' for Inactive)
REMARK    1  A    between atoms: C_5  and  C_7
REMARK    2  A    between atoms: C_7  and  O_8
REMARK    3  A    between atoms: O_8  and  C_9
REMARK    4  A    between atoms: C_9  and  C_11
REMARK    5  A    between atoms: C_11  and  C_12
REMARK    6  A    between atoms: C_12  and  C_13
REMARK    7  A    between atoms: C_13  and  C_14
REMARK    8  A    between atoms: C_14  and  C_15
REMARK    9  A    between atoms: C_15  and  N_16
REMARK   10  A    between atoms: N_16  and  S_17
REMARK   11  A    between atoms: S_17  and  C_20
REMARK                            x       y       z     vdW  Elec       q    Type
REMARK                         _______ _______ _______ _____ _____    ______ ____
ROOT
ATOM      1  C   UNL     1       4.806   7.477  16.960  0.00  0.00    +0.000 C 
ENDROOT
BRANCH   1   2
ATOM      2  C   UNL     1       3.363   7.138  17.357  0.00  0.00    +0.000 C 
BRANCH   2   3
ATOM      3  C   UNL     1       2.566   8.343  17.858  0.00  0.00    +0.000 C 
BRANCH   3   4
ATOM      4  C   UNL     1       1.895   8.107  19.210  0.00  0.00    +0.000 C 
BRANCH   4   5
ATOM      5  C   UNL     1       1.083   9.301  19.636  0.00  0.00    +0.000 C 
ATOM      6  O   UNL     1       0.742   9.550  20.783  0.00  0.00    +0.000 OA
BRANCH   5   7
ATOM      7  O   UNL     1       0.820  10.085  18.553  0.00  0.00    +0.000 OA
BRANCH   7   8
ATOM      8  C   UNL     1       0.356  11.404  18.846  0.00  0.00    +0.000 C 
BRANCH   8  13
ATOM      9  N   UNL     1      -3.591  11.820  17.147  0.00  0.00    +0.000 N 
ATOM     10  C   UNL     1      -2.643  11.044  16.584  0.00  0.00    +0.000 C 
ATOM     11  O   UNL     1      -2.849  10.416  15.555  0.00  0.00    +0.000 OA
ATOM     12  N   UNL     1      -1.436  10.996  17.223  0.00  0.00    +0.000 N 
ATOM     13  C   UNL     1      -1.077  11.636  18.393  0.00  0.00    +0.000 C 
ATOM     14  O   UNL     1      -1.836  12.351  19.049  0.00  0.00    +0.000 OA
ATOM     15  H   UNL     1      -4.514  11.865  16.738  0.00  0.00    +0.000 HD
ATOM     16  H   UNL     1      -3.417  12.282  18.036  0.00  0.00    +0.000 HD
ATOM     17  H   UNL     1      -0.757  10.401  16.771  0.00  0.00    +0.000 HD
ENDBRANCH   8  13
ENDBRANCH   7   8
ENDBRANCH   5   7
ENDBRANCH   4   5
ENDBRANCH   3   4
ENDBRANCH   2   3
ENDBRANCH   1   2
BRANCH   1  18
ATOM     18  C   UNL     1       5.262   6.595  15.800  0.00  0.00    +0.000 C 
BRANCH  18  19
ATOM     19  N   UNL     1       6.620   6.081  16.040  0.00  0.00    +0.000 NA
ATOM     20  H   UNL     1       7.196   6.591  16.713  0.00  0.00    +0.000 HD
BRANCH  19  21
ATOM     21  S   UNL     1       6.737   4.419  16.355  0.00  0.00    +0.000 S 
ATOM     22  O   UNL     1       6.376   3.747  15.126  0.00  0.00    +0.000 OA
ATOM     23  O   UNL     1       8.011   4.186  17.001  0.00  0.00    +0.000 OA
BRANCH  21  24
ATOM     24  C   UNL     1       5.441   4.114  17.528  0.00  0.00    +0.000 A 
ATOM     25  C   UNL     1       5.628   4.455  18.874  0.00  0.00    +0.000 A 
ATOM     26  C   UNL     1       4.630   4.167  19.806  0.00  0.00    +0.000 A 
ATOM     27  C   UNL     1       3.455   3.539  19.395  0.00  0.00    +0.000 A 
ATOM     28  C   UNL     1       3.271   3.206  18.047  0.00  0.00    +0.000 A 
ATOM     29  C   UNL     1       4.271   3.475  17.112  0.00  0.00    +0.000 A 
ATOM     30  O   UNL     1       2.133   2.602  17.576  0.00  0.00    +0.000 OA
ATOM     31  C   UNL     1       1.056   2.712  18.514  0.00  0.00    +0.000 C 
ATOM     32  C   UNL     1       1.520   2.368  19.919  0.00  0.00    +0.000 C 
ATOM     33  O   UNL     1       2.522   3.287  20.368  0.00  0.00    +0.000 OA
ENDBRANCH  21  24
ENDBRANCH  19  21
ENDBRANCH  18  19
ENDBRANCH   1  18
TORSDOF 11
ENDMDL
MODEL 2
REMARK VINA RESULT:      -7.1      3.042      4.856
REMARK  Name = 
REMARK  11 active torsions:
REMARK  status: ('A' for Active; 'I' for Inactive)
REMARK    1  A    between atoms: C_5  and  C_7
REMARK    2  A    between atoms: C_7  and  O_8
REMARK    3  A    between atoms: O_8  and  C_9
REMARK    4  A    between atoms: C_9  and  C_11
REMARK    5  A    between atoms: C_11  and  C_12
REMARK    6  A    between atoms: C_12  and  C_13
REMARK    7  A    between atoms: C_13  and  C_14
REMARK    8  A    between atoms: C_14  and  C_15
REMARK    9  A    between atoms: C_15  and  N_16
REMARK   10  A    between atoms: N_16  and  S_17
REMARK   11  A    between atoms: S_17  and  C_20
REMARK                            x       y       z     vdW  Elec       q    Type
REMARK                         _______ _______ _______ _____ _____    ______ ____
ROOT
ATOM      1  C   UNL     1       2.162   4.552  21.137  0.00  0.00    +0.000 C 
ENDROOT
BRANCH   1   2
ATOM      2  C   UNL     1       1.244   5.657  20.598  0.00  0.00    +0.000 C 
BRANCH   2   3
ATOM      3  C   UNL     1       1.976   6.962  20.281  0.00  0.00    +0.000 C 
BRANCH   3   4
ATOM      4  C   UNL     1       1.372   8.181  20.977  0.00  0.00    +0.000 C 
BRANCH   4   5
ATOM      5  C   UNL     1       0.980   9.242  19.985  0.00  0.00    +0.000 C 
ATOM      6  O   UNL     1       1.549   9.464  18.926  0.00  0.00    +0.000 OA
BRANCH   5   7
ATOM      7  O   UNL     1      -0.134   9.892  20.426  0.00  0.00    +0.000 OA
BRANCH   7   8
ATOM      8  C   UNL     1       0.088  11.195  20.969  0.00  0.00    +0.000 C 
BRANCH   8  13
ATOM      9  N   UNL     1      -3.037  12.447  23.672  0.00  0.00    +0.000 N 
ATOM     10  C   UNL     1      -3.152  12.565  22.334  0.00  0.00    +0.000 C 
ATOM     11  O   UNL     1      -4.151  13.038  21.810  0.00  0.00    +0.000 OA
ATOM     12  N   UNL     1      -2.093  12.128  21.589  0.00  0.00    +0.000 N 
ATOM     13  C   UNL     1      -0.920  11.561  22.047  0.00  0.00    +0.000 C 
ATOM     14  O   UNL     1      -0.673  11.351  23.236  0.00  0.00    +0.000 OA
ATOM     15  H   UNL     1      -3.804  12.721  24.269  0.00  0.00    +0.000 HD
ATOM     16  H   UNL     1      -2.224  11.993  24.080  0.00  0.00    +0.000 HD
ATOM     17  H   UNL     1      -2.222  12.231  20.593  0.00  0.00    +0.000 HD
ENDBRANCH   8  13
ENDBRANCH   7   8
ENDBRANCH   5   7
ENDBRANCH   4   5
ENDBRANCH   3   4
ENDBRANCH   2   3
ENDBRANCH   1   2
BRANCH   1  18
ATOM     18  C   UNL     1       1.609   3.175  20.776  0.00  0.00    +0.000 C 
BRANCH  18  19
ATOM     19  N   UNL     1       2.670   2.317  20.225  0.00  0.00    +0.000 NA
ATOM     20  H   UNL     1       2.693   1.347  20.545  0.00  0.00    +0.000 HD
BRANCH  19  21
ATOM     21  S   UNL     1       2.847   2.352  18.538  0.00  0.00    +0.000 S 
ATOM     22  O   UNL     1       3.653   1.202  18.192  0.00  0.00    +0.000 OA
ATOM     23  O   UNL     1       1.534   2.558  17.966  0.00  0.00    +0.000 OA
BRANCH  21  24
ATOM     24  C   UNL     1       3.830   3.799  18.242  0.00  0.00    +0.000 A 
ATOM     25  C   UNL     1       3.269   4.895  17.574  0.00  0.00    +0.000 A 
ATOM     26  C   UNL     1       4.058   6.012  17.294  0.00  0.00    +0.000 A 
ATOM     27  C   UNL     1       5.398   6.030  17.677  0.00  0.00    +0.000 A 
ATOM     28  C   UNL     1       5.953   4.935  18.350  0.00  0.00    +0.000 A 
ATOM     29  C   UNL     1       5.176   3.806  18.618  0.00  0.00    +0.000 A 
ATOM     30  O   UNL     1       7.259   4.897  18.766  0.00  0.00    +0.000 OA
ATOM     31  C   UNL     1       7.842   6.205  18.780  0.00  0.00    +0.000 C 
ATOM     32  C   UNL     1       7.519   6.957  17.499  0.00  0.00    +0.000 C 
ATOM     33  O   UNL     1       6.109   7.162  17.366  0.00  0.00    +0.000 OA
ENDBRANCH  21  24
ENDBRANCH  19  21
ENDBRANCH  18  19
ENDBRANCH   1  18
TORSDOF 11
ENDMDL
MODEL 3
REMARK VINA RESULT:      -7.1      6.371      7.728
REMARK  Name = 
REMARK  11 active torsions:
REMARK  status: ('A' for Active; 'I' for Inactive)
REMARK    1  A    between atoms: C_5  and  C_7
REMARK    2  A    between atoms: C_7  and  O_8
REMARK    3  A    between atoms: O_8  and  C_9
REMARK    4  A    between atoms: C_9  and  C_11
REMARK    5  A    between atoms: C_11  and  C_12
REMARK    6  A    between atoms: C_12  and  C_13
REMARK    7  A    between atoms: C_13  and  C_14
REMARK    8  A    between atoms: C_14  and  C_15
REMARK    9  A    between atoms: C_15  and  N_16
REMARK   10  A    between atoms: N_16  and  S_17
REMARK   11  A    between atoms: S_17  and  C_20
REMARK                            x       y       z     vdW  Elec       q    Type
REMARK                         _______ _______ _______ _____ _____    ______ ____
ROOT
ATOM      1  C   UNL     1       8.430   8.274  18.454  0.00  0.00    +0.000 C 
ENDROOT
BRANCH   1   2
ATOM      2  C   UNL     1       8.597   9.786  18.257  0.00  0.00    +0.000 C 
BRANCH   2   3
ATOM      3  C   UNL     1       9.381  10.467  19.380  0.00  0.00    +0.000 C 
BRANCH   3   4
ATOM      4  C   UNL     1       9.510  11.979  19.198  0.00  0.00    +0.000 C 
BRANCH   4   5
ATOM      5  C   UNL     1      10.458  12.319  18.080  0.00  0.00    +0.000 C 
ATOM      6  O   UNL     1      11.462  11.686  17.789  0.00  0.00    +0.000 OA
BRANCH   5   7
ATOM      7  O   UNL     1      10.005  13.418  17.414  0.00  0.00    +0.000 OA
BRANCH   7   8
ATOM      8  C   UNL     1      10.894  14.536  17.392  0.00  0.00    +0.000 C 
BRANCH   8  13
ATOM      9  N   UNL     1       9.335  17.780  19.776  0.00  0.00    +0.000 N 
ATOM     10  C   UNL     1       8.701  17.324  18.677  0.00  0.00    +0.000 C 
ATOM     11  O   UNL     1       7.646  17.809  18.291  0.00  0.00    +0.000 OA
ATOM     12  N   UNL     1       9.298  16.290  18.012  0.00  0.00    +0.000 N 
ATOM     13  C   UNL     1      10.471  15.642  18.347  0.00  0.00    +0.000 C 
ATOM     14  O   UNL     1      11.150  15.912  19.338  0.00  0.00    +0.000 OA
ATOM     15  H   UNL     1       8.921  18.519  20.326  0.00  0.00    +0.000 HD
ATOM     16  H   UNL     1      10.177  17.320  20.112  0.00  0.00    +0.000 HD
ATOM     17  H   UNL     1       8.789  15.977  17.199  0.00  0.00    +0.000 HD
ENDBRANCH   8  13
ENDBRANCH   7   8
ENDBRANCH   5   7
ENDBRANCH   4   5
ENDBRANCH   3   4
ENDBRANCH   2   3
ENDBRANCH   1   2
BRANCH   1  18
ATOM     18  C   UNL     1       7.644   7.667  17.294  0.00  0.00    +0.000 C 
BRANCH  18  19
ATOM     19  N   UNL     1       6.520   6.859  17.793  0.00  0.00    +0.000 NA
ATOM     20  H   UNL     1       5.649   6.899  17.261  0.00  0.00    +0.000 HD
BRANCH  19  21
ATOM     21  S   UNL     1       6.876   5.242  18.157  0.00  0.00    +0.000 S 
ATOM     22  O   UNL     1       7.622   4.727  17.030  0.00  0.00    +0.000 OA
ATOM     23  O   UNL     1       7.410   5.205  19.501  0.00  0.00    +0.000 OA
BRANCH  21  24
ATOM     24  C   UNL     1       5.290   4.444  18.154  0.00  0.00    +0.000 A 
ATOM     25  C   UNL     1       4.692   4.094  16.937  0.00  0.00    +0.000 A 
ATOM     26  C   UNL     1       3.421   3.516  16.933  0.00  0.00    +0.000 A 
ATOM     27  C   UNL     1       2.754   3.293  18.136  0.00  0.00    +0.000 A 
ATOM     28  C   UNL     1       3.359   3.640  19.350  0.00  0.00    +0.000 A 
ATOM     29  C   UNL     1       4.622   4.235  19.363  0.00  0.00    +0.000 A 
ATOM     30  O   UNL     1       2.763   3.433  20.568  0.00  0.00    +0.000 OA
ATOM     31  C   UNL     1       1.677   2.505  20.468  0.00  0.00    +0.000 C 
ATOM     32  C   UNL     1       0.787   2.836  19.281  0.00  0.00    +0.000 C 
ATOM     33  O   UNL     1       1.509   2.723  18.051  0.00  0.00    +0.000 OA
ENDBRANCH  21  24
ENDBRANCH  19  21
ENDBRANCH  18  19
ENDBRANCH   1  18
TORSDOF 11
ENDMDL
MODEL 4
REMARK VINA RESULT:      -7.0      3.201      9.153
REMARK  Name = 
REMARK  11 active torsions:
REMARK  status: ('A' for Active; 'I' for Inactive)
REMARK    1  A    between atoms: C_5  and  C_7
REMARK    2  A    between atoms: C_7  and  O_8
REMARK    3  A    between atoms: O_8  and  C_9
REMARK    4  A    between atoms: C_9  and  C_11
REMARK    5  A    between atoms: C_11  and  C_12
REMARK    6  A    between atoms: C_12  and  C_13
REMARK    7  A    between atoms: C_13  and  C_14
REMARK    8  A    between atoms: C_14  and  C_15
REMARK    9  A    between atoms: C_15  and  N_16
REMARK   10  A    between atoms: N_16  and  S_17
REMARK   11  A    between atoms: S_17  and  C_20
REMARK                            x       y       z     vdW  Elec       q    Type
REMARK                         _______ _______ _______ _____ _____    ______ ____
ROOT
ATOM      1  C   UNL     1       2.269   7.524  17.742  0.00  0.00    +0.000 C 
ENDROOT
BRANCH   1   2
ATOM      2  C   UNL     1       3.686   7.078  18.128  0.00  0.00    +0.000 C 
BRANCH   2   3
ATOM      3  C   UNL     1       4.374   6.229  17.057  0.00  0.00    +0.000 C 
BRANCH   3   4
ATOM      4  C   UNL     1       5.588   5.462  17.580  0.00  0.00    +0.000 C 
BRANCH   4   5
ATOM      5  C   UNL     1       5.188   4.141  18.178  0.00  0.00    +0.000 C 
ATOM      6  O   UNL     1       5.469   3.761  19.306  0.00  0.00    +0.000 OA
BRANCH   5   7
ATOM      7  O   UNL     1       4.427   3.446  17.285  0.00  0.00    +0.000 OA
BRANCH   7   8
ATOM      8  C   UNL     1       3.733   2.316  17.816  0.00  0.00    +0.000 C 
BRANCH   8  13
ATOM      9  N   UNL     1       0.360   3.233  20.349  0.00  0.00    +0.000 N 
ATOM     10  C   UNL     1       1.537   2.803  20.846  0.00  0.00    +0.000 C 
ATOM     11  O   UNL     1       1.714   2.644  22.046  0.00  0.00    +0.000 OA
ATOM     12  N   UNL     1       2.527   2.550  19.937  0.00  0.00    +0.000 N 
ATOM     13  C   UNL     1       2.468   2.703  18.566  0.00  0.00    +0.000 C 
ATOM     14  O   UNL     1       1.480   3.120  17.960  0.00  0.00    +0.000 OA
ATOM     15  H   UNL     1      -0.395   3.470  20.977  0.00  0.00    +0.000 HD
ATOM     16  H   UNL     1       0.257   3.417  19.355  0.00  0.00    +0.000 HD
ATOM     17  H   UNL     1       3.391   2.234  20.351  0.00  0.00    +0.000 HD
ENDBRANCH   8  13
ENDBRANCH   7   8
ENDBRANCH   5   7
ENDBRANCH   4   5
ENDBRANCH   3   4
ENDBRANCH   2   3
ENDBRANCH   1   2
BRANCH   1  18
ATOM     18  C   UNL     1       2.092   9.019  17.999  0.00  0.00    +0.000 C 
BRANCH  18  19
ATOM     19  N   UNL     1       1.193   9.247  19.142  0.00  0.00    +0.000 NA
ATOM     20  H   UNL     1       1.478   8.853  20.040  0.00  0.00    +0.000 HD
BRANCH  19  21
ATOM     21  S   UNL     1       0.680  10.847  19.371  0.00  0.00    +0.000 S 
ATOM     22  O   UNL     1       0.586  11.040  20.801  0.00  0.00    +0.000 OA
ATOM     23  O   UNL     1       1.511  11.694  18.543  0.00  0.00    +0.000 OA
BRANCH  21  24
ATOM     24  C   UNL     1      -0.972  10.862  18.723  0.00  0.00    +0.000 A 
ATOM     25  C   UNL     1      -1.278  10.104  17.586  0.00  0.00    +0.000 A 
ATOM     26  C   UNL     1      -2.564  10.159  17.044  0.00  0.00    +0.000 A 
ATOM     27  C   UNL     1      -3.533  10.967  17.634  0.00  0.00    +0.000 A 
ATOM     28  C   UNL     1      -3.224  11.718  18.775  0.00  0.00    +0.000 A 
ATOM     29  C   UNL     1      -1.936  11.684  19.312  0.00  0.00    +0.000 A 
ATOM     30  O   UNL     1      -4.136  12.521  19.412  0.00  0.00    +0.000 OA
ATOM     31  C   UNL     1      -5.476  12.202  19.020  0.00  0.00    +0.000 C 
ATOM     32  C   UNL     1      -5.582  12.053  17.512  0.00  0.00    +0.000 C 
ATOM     33  O   UNL     1      -4.772  10.969  17.045  0.00  0.00    +0.000 OA
ENDBRANCH  21  24
ENDBRANCH  19  21
ENDBRANCH  18  19
ENDBRANCH   1  18
TORSDOF 11
ENDMDL
MODEL 5
REMARK VINA RESULT:      -7.0      6.016      7.443
REMARK  Name = 
REMARK  11 active torsions:
REMARK  status: ('A' for Active; 'I' for Inactive)
REMARK    1  A    between atoms: C_5  and  C_7
REMARK    2  A    between atoms: C_7  and  O_8
REMARK    3  A    between atoms: O_8  and  C_9
REMARK    4  A    between atoms: C_9  and  C_11
REMARK    5  A    between atoms: C_11  and  C_12
REMARK    6  A    between atoms: C_12  and  C_13
REMARK    7  A    between atoms: C_13  and  C_14
REMARK    8  A    between atoms: C_14  and  C_15
REMARK    9  A    between atoms: C_15  and  N_16
REMARK   10  A    between atoms: N_16  and  S_17
REMARK   11  A    between atoms: S_17  and  C_20
REMARK                            x       y       z     vdW  Elec       q    Type
REMARK                         _______ _______ _______ _____ _____    ______ ____
ROOT
ATOM      1  C   UNL     1       8.264   8.851  17.507  0.00  0.00    +0.000 C 
ENDROOT
BRANCH   1   2
ATOM      2  C   UNL     1       8.705   9.567  18.790  0.00  0.00    +0.000 C 
BRANCH   2   3
ATOM      3  C   UNL     1       9.420  10.895  18.536  0.00  0.00    +0.000 C 
BRANCH   3   4
ATOM      4  C   UNL     1      10.490  11.217  19.578  0.00  0.00    +0.000 C 
BRANCH   4   5
ATOM      5  C   UNL     1      11.518  12.172  19.034  0.00  0.00    +0.000 C 
ATOM      6  O   UNL     1      12.002  12.125  17.912  0.00  0.00    +0.000 OA
BRANCH   5   7
ATOM      7  O   UNL     1      11.796  13.125  19.967  0.00  0.00    +0.000 OA
BRANCH   7   8
ATOM      8  C   UNL     1      10.675  13.880  20.431  0.00  0.00    +0.000 C 
BRANCH   8  13
ATOM      9  N   UNL     1       8.803  16.305  17.390  0.00  0.00    +0.000 N 
ATOM     10  C   UNL     1       8.211  15.208  17.901  0.00  0.00    +0.000 C 
ATOM     11  O   UNL     1       7.107  14.835  17.527  0.00  0.00    +0.000 OA
ATOM     12  N   UNL     1       8.908  14.529  18.860  0.00  0.00    +0.000 N 
ATOM     13  C   UNL     1      10.145  14.847  19.384  0.00  0.00    +0.000 C 
ATOM     14  O   UNL     1      10.802  15.835  19.052  0.00  0.00    +0.000 OA
ATOM     15  H   UNL     1       8.318  16.866  16.703  0.00  0.00    +0.000 HD
ATOM     16  H   UNL     1       9.692  16.630  17.761  0.00  0.00    +0.000 HD
ATOM     17  H   UNL     1       8.427  13.717  19.219  0.00  0.00    +0.000 HD
ENDBRANCH   8  13
ENDBRANCH   7   8
ENDBRANCH   5   7
ENDBRANCH   4   5
ENDBRANCH   3   4
ENDBRANCH   2   3
ENDBRANCH   1   2
BRANCH   1  18
ATOM     18  C   UNL     1       7.741   7.452  17.828  0.00  0.00    +0.000 C 
BRANCH  18  19
ATOM     19  N   UNL     1       7.043   6.879  16.667  0.00  0.00    +0.000 NA
ATOM     20  H   UNL     1       7.387   7.145  15.743  0.00  0.00    +0.000 HD
BRANCH  19  21
ATOM     21  S   UNL     1       6.795   5.202  16.707  0.00  0.00    +0.000 S 
ATOM     22  O   UNL     1       6.601   4.787  15.336  0.00  0.00    +0.000 OA
ATOM     23  O   UNL     1       7.834   4.627  17.535  0.00  0.00    +0.000 OA
BRANCH  21  24
ATOM     24  C   UNL     1       5.239   5.021  17.542  0.00  0.00    +0.000 A 
ATOM     25  C   UNL     1       4.352   6.103  17.598  0.00  0.00    +0.000 A 
ATOM     26  C   UNL     1       3.152   5.977  18.301  0.00  0.00    +0.000 A 
ATOM     27  C   UNL     1       2.845   4.780  18.944  0.00  0.00    +0.000 A 
ATOM     28  C   UNL     1       3.733   3.699  18.880  0.00  0.00    +0.000 A 
ATOM     29  C   UNL     1       4.943   3.821  18.195  0.00  0.00    +0.000 A 
ATOM     30  O   UNL     1       3.483   2.490  19.477  0.00  0.00    +0.000 OA
ATOM     31  C   UNL     1       2.098   2.351  19.818  0.00  0.00    +0.000 C 
ATOM     32  C   UNL     1       1.576   3.607  20.496  0.00  0.00    +0.000 C 
ATOM     33  O   UNL     1       1.649   4.733  19.615  0.00  0.00    +0.000 OA
ENDBRANCH  21  24
ENDBRANCH  19  21
ENDBRANCH  18  19
ENDBRANCH   1  18
TORSDOF 11
ENDMDL
MODEL 6
REMARK VINA RESULT:      -7.0      5.417      8.047
REMARK  Name = 
REMARK  11 active torsions:
REMARK  status: ('A' for Active; 'I' for Inactive)
REMARK    1  A    between atoms: C_5  and  C_7
REMARK    2  A    between atoms: C_7  and  O_8
REMARK    3  A    between atoms: O_8  and  C_9
REMARK    4  A    between atoms: C_9  and  C_11
REMARK    5  A    between atoms: C_11  and  C_12
REMARK    6  A    between atoms: C_12  and  C_13
REMARK    7  A    between atoms: C_13  and  C_14
REMARK    8  A    between atoms: C_14  and  C_15
REMARK    9  A    between atoms: C_15  and  N_16
REMARK   10  A    between atoms: N_16  and  S_17
REMARK   11  A    between atoms: S_17  and  C_20
REMARK                            x       y       z     vdW  Elec       q    Type
REMARK                         _______ _______ _______ _____ _____    ______ ____
ROOT
ATOM      1  C   UNL     1       6.276   6.583  17.671  0.00  0.00    +0.000 C 
ENDROOT
BRANCH   1   2
ATOM      2  C   UNL     1       7.773   6.898  17.557  0.00  0.00    +0.000 C 
BRANCH   2   3
ATOM      3  C   UNL     1       8.240   8.007  18.501  0.00  0.00    +0.000 C 
BRANCH   3   4
ATOM      4  C   UNL     1       8.165   9.402  17.882  0.00  0.00    +0.000 C 
BRANCH   4   5
ATOM      5  C   UNL     1       9.103  10.359  18.569  0.00  0.00    +0.000 C 
ATOM      6  O   UNL     1       9.472  10.274  19.731  0.00  0.00    +0.000 OA
BRANCH   5   7
ATOM      7  O   UNL     1       9.512  11.311  17.685  0.00  0.00    +0.000 OA
BRANCH   7   8
ATOM      8  C   UNL     1      10.772  11.919  17.973  0.00  0.00    +0.000 C 
BRANCH   8  13
ATOM      9  N   UNL     1      10.907  15.842  16.177  0.00  0.00    +0.000 N 
ATOM     10  C   UNL     1      10.056  15.537  17.177  0.00  0.00    +0.000 C 
ATOM     11  O   UNL     1       9.270  16.357  17.630  0.00  0.00    +0.000 OA
ATOM     12  N   UNL     1      10.116  14.260  17.660  0.00  0.00    +0.000 N 
ATOM     13  C   UNL     1      10.962  13.247  17.256  0.00  0.00    +0.000 C 
ATOM     14  O   UNL     1      11.820  13.372  16.381  0.00  0.00    +0.000 OA
ATOM     15  H   UNL     1      10.932  16.781  15.805  0.00  0.00    +0.000 HD
ATOM     16  H   UNL     1      11.594  15.163  15.860  0.00  0.00    +0.000 HD
ATOM     17  H   UNL     1       9.466  14.076  18.410  0.00  0.00    +0.000 HD
ENDBRANCH   8  13
ENDBRANCH   7   8
ENDBRANCH   5   7
ENDBRANCH   4   5
ENDBRANCH   3   4
ENDBRANCH   2   3
ENDBRANCH   1   2
BRANCH   1  18
ATOM     18  C   UNL     1       6.063   5.101  17.971  0.00  0.00    +0.000 C 
BRANCH  18  19
ATOM     19  N   UNL     1       4.892   4.586  17.242  0.00  0.00    +0.000 NA
ATOM     20  H   UNL     1       5.064   3.861  16.543  0.00  0.00    +0.000 HD
BRANCH  19  21
ATOM     21  S   UNL     1       3.566   4.135  18.198  0.00  0.00    +0.000 S 
ATOM     22  O   UNL     1       2.594   3.558  17.296  0.00  0.00    +0.000 OA
ATOM     23  O   UNL     1       4.078   3.400  19.335  0.00  0.00    +0.000 OA
BRANCH  21  24
ATOM     24  C   UNL     1       2.908   5.681  18.771  0.00  0.00    +0.000 A 
ATOM     25  C   UNL     1       2.487   5.806  20.100  0.00  0.00    +0.000 A 
ATOM     26  C   UNL     1       1.919   7.005  20.537  0.00  0.00    +0.000 A 
ATOM     27  C   UNL     1       1.772   8.068  19.647  0.00  0.00    +0.000 A 
ATOM     28  C   UNL     1       2.200   7.939  18.320  0.00  0.00    +0.000 A 
ATOM     29  C   UNL     1       2.752   6.739  17.871  0.00  0.00    +0.000 A 
ATOM     30  O   UNL     1       2.097   8.952  17.401  0.00  0.00    +0.000 OA
ATOM     31  C   UNL     1       1.877  10.216  18.037  0.00  0.00    +0.000 C 
ATOM     32  C   UNL     1       0.803  10.107  19.107  0.00  0.00    +0.000 C 
ATOM     33  O   UNL     1       1.205   9.212  20.149  0.00  0.00    +0.000 OA
ENDBRANCH  21  24
ENDBRANCH  19  21
ENDBRANCH  18  19
ENDBRANCH   1  18
TORSDOF 11
ENDMDL
MODEL 7
REMARK VINA RESULT:      -7.0      2.712      9.350
REMARK  Name = 
REMARK  11 active torsions:
REMARK  status: ('A' for Active; 'I' for Inactive)
REMARK    1  A    between atoms: C_5  and  C_7
REMARK    2  A    between atoms: C_7  and  O_8
REMARK    3  A    between atoms: O_8  and  C_9
REMARK    4  A    between atoms: C_9  and  C_11
REMARK    5  A    between atoms: C_11  and  C_12
REMARK    6  A    between atoms: C_12  and  C_13
REMARK    7  A    between atoms: C_13  and  C_14
REMARK    8  A    between atoms: C_14  and  C_15
REMARK    9  A    between atoms: C_15  and  N_16
REMARK   10  A    between atoms: N_16  and  S_17
REMARK   11  A    between atoms: S_17  and  C_20
REMARK                            x       y       z     vdW  Elec       q    Type
REMARK                         _______ _______ _______ _____ _____    ______ ____
ROOT
ATOM      1  C   UNL     1       2.432   6.966  19.539  0.00  0.00    +0.000 C 
ENDROOT
BRANCH   1   2
ATOM      2  C   UNL     1       2.428   5.875  20.617  0.00  0.00    +0.000 C 
BRANCH   2   3
ATOM      3  C   UNL     1       1.364   4.798  20.395  0.00  0.00    +0.000 C 
BRANCH   3   4
ATOM      4  C   UNL     1       1.949   3.429  20.054  0.00  0.00    +0.000 C 
BRANCH   4   5
ATOM      5  C   UNL     1       1.631   3.032  18.638  0.00  0.00    +0.000 C 
ATOM      6  O   UNL     1       0.541   2.647  18.240  0.00  0.00    +0.000 OA
BRANCH   5   7
ATOM      7  O   UNL     1       2.733   3.207  17.856  0.00  0.00    +0.000 OA
BRANCH   7   8
ATOM      8  C   UNL     1       3.979   3.274  18.552  0.00  0.00    +0.000 C 
BRANCH   8  13
ATOM      9  N   UNL     1       7.150   5.691  16.898  0.00  0.00    +0.000 N 
ATOM     10  C   UNL     1       7.394   4.561  17.592  0.00  0.00    +0.000 C 
ATOM     11  O   UNL     1       8.531   4.158  17.794  0.00  0.00    +0.000 OA
ATOM     12  N   UNL     1       6.302   3.886  18.060  0.00  0.00    +0.000 N 
ATOM     13  C   UNL     1       4.972   4.216  17.889  0.00  0.00    +0.000 C 
ATOM     14  O   UNL     1       4.580   5.195  17.252  0.00  0.00    +0.000 OA
ATOM     15  H   UNL     1       7.918   6.212  16.498  0.00  0.00    +0.000 HD
ATOM     16  H   UNL     1       6.196   5.972  16.689  0.00  0.00    +0.000 HD
ATOM     17  H   UNL     1       6.528   3.044  18.569  0.00  0.00    +0.000 HD
ENDBRANCH   8  13
ENDBRANCH   7   8
ENDBRANCH   5   7
ENDBRANCH   4   5
ENDBRANCH   3   4
ENDBRANCH   2   3
ENDBRANCH   1   2
BRANCH   1  18
ATOM     18  C   UNL     1       1.568   8.148  19.970  0.00  0.00    +0.000 C 
BRANCH  18  19
ATOM     19  N   UNL     1       1.422   9.115  18.870  0.00  0.00    +0.000 NA
ATOM     20  H   UNL     1       0.922   8.797  18.038  0.00  0.00    +0.000 HD
BRANCH  19  21
ATOM     21  S   UNL     1       0.854  10.652  19.307  0.00  0.00    +0.000 S 
ATOM     22  O   UNL     1       0.737  10.646  20.749  0.00  0.00    +0.000 OA
ATOM     23  O   UNL     1       1.666  11.630  18.615  0.00  0.00    +0.000 OA
BRANCH  21  24
ATOM     24  C   UNL     1      -0.790  10.705  18.641  0.00  0.00    +0.000 A 
ATOM     25  C   UNL     1      -1.093   9.980  17.481  0.00  0.00    +0.000 A 
ATOM     26  C   UNL     1      -2.371  10.065  16.927  0.00  0.00    +0.000 A 
ATOM     27  C   UNL     1      -3.338  10.870  17.527  0.00  0.00    +0.000 A 
ATOM     28  C   UNL     1      -3.032  11.588  18.690  0.00  0.00    +0.000 A 
ATOM     29  C   UNL     1      -1.751  11.523  19.241  0.00  0.00    +0.000 A 
ATOM     30  O   UNL     1      -3.941  12.385  19.337  0.00  0.00    +0.000 OA
ATOM     31  C   UNL     1      -5.281  12.093  18.923  0.00  0.00    +0.000 C 
ATOM     32  C   UNL     1      -5.371  11.984  17.410  0.00  0.00    +0.000 C 
ATOM     33  O   UNL     1      -4.569  10.902  16.924  0.00  0.00    +0.000 OA
ENDBRANCH  21  24
ENDBRANCH  19  21
ENDBRANCH  18  19
ENDBRANCH   1  18
TORSDOF 11
ENDMDL
MODEL 8
REMARK VINA RESULT:      -6.9      2.436      4.352
REMARK  Name = 
REMARK  11 active torsions:
REMARK  status: ('A' for Active; 'I' for Inactive)
REMARK    1  A    between atoms: C_5  and  C_7
REMARK    2  A    between atoms: C_7  and  O_8
REMARK    3  A    between atoms: O_8  and  C_9
REMARK    4  A    between atoms: C_9  and  C_11
REMARK    5  A    between atoms: C_11  and  C_12
REMARK    6  A    between atoms: C_12  and  C_13
REMARK    7  A    between atoms: C_13  and  C_14
REMARK    8  A    between atoms: C_14  and  C_15
REMARK    9  A    between atoms: C_15  and  N_16
REMARK   10  A    between atoms: N_16  and  S_17
REMARK   11  A    between atoms: S_17  and  C_20
REMARK                            x       y       z     vdW  Elec       q    Type
REMARK                         _______ _______ _______ _____ _____    ______ ____
ROOT
ATOM      1  C   UNL     1       2.169   4.634  21.299  0.00  0.00    +0.000 C 
ENDROOT
BRANCH   1   2
ATOM      2  C   UNL     1       1.676   5.596  20.211  0.00  0.00    +0.000 C 
BRANCH   2   3
ATOM      3  C   UNL     1       1.789   7.071  20.600  0.00  0.00    +0.000 C 
BRANCH   3   4
ATOM      4  C   UNL     1       0.639   7.555  21.482  0.00  0.00    +0.000 C 
BRANCH   4   5
ATOM      5  C   UNL     1       0.700   9.044  21.696  0.00  0.00    +0.000 C 
ATOM      6  O   UNL     1       1.627   9.644  22.221  0.00  0.00    +0.000 OA
BRANCH   5   7
ATOM      7  O   UNL     1      -0.418   9.627  21.179  0.00  0.00    +0.000 OA
BRANCH   7   8
ATOM      8  C   UNL     1      -0.385  11.053  21.094  0.00  0.00    +0.000 C 
BRANCH   8  13
ATOM      9  N   UNL     1      -1.798  12.053  17.140  0.00  0.00    +0.000 N 
ATOM     10  C   UNL     1      -1.769  10.784  17.594  0.00  0.00    +0.000 C 
ATOM     11  O   UNL     1      -2.140   9.842  16.907  0.00  0.00    +0.000 OA
ATOM     12  N   UNL     1      -1.302  10.602  18.866  0.00  0.00    +0.000 N 
ATOM     13  C   UNL     1      -0.872  11.572  19.750  0.00  0.00    +0.000 C 
ATOM     14  O   UNL     1      -0.869  12.779  19.503  0.00  0.00    +0.000 OA
ATOM     15  H   UNL     1      -2.167  12.250  16.220  0.00  0.00    +0.000 HD
ATOM     16  H   UNL     1      -1.545  12.825  17.751  0.00  0.00    +0.000 HD
ATOM     17  H   UNL     1      -1.301   9.639  19.168  0.00  0.00    +0.000 HD
ENDBRANCH   8  13
ENDBRANCH   7   8
ENDBRANCH   5   7
ENDBRANCH   4   5
ENDBRANCH   3   4
ENDBRANCH   2   3
ENDBRANCH   1   2
BRANCH   1  18
ATOM     18  C   UNL     1       1.890   3.187  20.899  0.00  0.00    +0.000 C 
BRANCH  18  19
ATOM     19  N   UNL     1       2.125   2.990  19.460  0.00  0.00    +0.000 NA
ATOM     20  H   UNL     1       1.833   3.745  18.836  0.00  0.00    +0.000 HD
BRANCH  19  21
ATOM     21  S   UNL     1       3.685   2.483  19.028  0.00  0.00    +0.000 S 
ATOM     22  O   UNL     1       4.344   2.106  20.259  0.00  0.00    +0.000 OA
ATOM     23  O   UNL     1       3.552   1.558  17.923  0.00  0.00    +0.000 OA
BRANCH  21  24
ATOM     24  C   UNL     1       4.467   3.964  18.439  0.00  0.00    +0.000 A 
ATOM     25  C   UNL     1       3.821   4.756  17.481  0.00  0.00    +0.000 A 
ATOM     26  C   UNL     1       4.459   5.891  16.978  0.00  0.00    +0.000 A 
ATOM     27  C   UNL     1       5.735   6.228  17.428  0.00  0.00    +0.000 A 
ATOM     28  C   UNL     1       6.373   5.436  18.390  0.00  0.00    +0.000 A 
ATOM     29  C   UNL     1       5.750   4.290  18.885  0.00  0.00    +0.000 A 
ATOM     30  O   UNL     1       7.621   5.722  18.885  0.00  0.00    +0.000 OA
ATOM     31  C   UNL     1       7.997   7.075  18.604  0.00  0.00    +0.000 C 
ATOM     32  C   UNL     1       7.701   7.433  17.157  0.00  0.00    +0.000 C 
ATOM     33  O   UNL     1       6.297   7.357  16.887  0.00  0.00    +0.000 OA
ENDBRANCH  21  24
ENDBRANCH  19  21
ENDBRANCH  18  19
ENDBRANCH   1  18
TORSDOF 11
ENDMDL
MODEL 9
REMARK VINA RESULT:      -6.9      6.110      7.613
REMARK  Name = 
REMARK  11 active torsions:
REMARK  status: ('A' for Active; 'I' for Inactive)
REMARK    1  A    between atoms: C_5  and  C_7
REMARK    2  A    between atoms: C_7  and  O_8
REMARK    3  A    between atoms: O_8  and  C_9
REMARK    4  A    between atoms: C_9  and  C_11
REMARK    5  A    between atoms: C_11  and  C_12
REMARK    6  A    between atoms: C_12  and  C_13
REMARK    7  A    between atoms: C_13  and  C_14
REMARK    8  A    between atoms: C_14  and  C_15
REMARK    9  A    between atoms: C_15  and  N_16
REMARK   10  A    between atoms: N_16  and  S_17
REMARK   11  A    between atoms: S_17  and  C_20
REMARK                            x       y       z     vdW  Elec       q    Type
REMARK                         _______ _______ _______ _____ _____    ______ ____
ROOT
ATOM      1  C   UNL     1       8.316   7.656  18.505  0.00  0.00    +0.000 C 
ENDROOT
BRANCH   1   2
ATOM      2  C   UNL     1       7.989   9.020  17.883  0.00  0.00    +0.000 C 
BRANCH   2   3
ATOM      3  C   UNL     1       9.155  10.009  17.925  0.00  0.00    +0.000 C 
BRANCH   3   4
ATOM      4  C   UNL     1       8.804  11.333  18.602  0.00  0.00    +0.000 C 
BRANCH   4   5
ATOM      5  C   UNL     1       9.594  11.529  19.868  0.00  0.00    +0.000 C 
ATOM      6  O   UNL     1       9.318  11.040  20.955  0.00  0.00    +0.000 OA
BRANCH   5   7
ATOM      7  O   UNL     1      10.687  12.300  19.611  0.00  0.00    +0.000 OA
BRANCH   7   8
ATOM      8  C   UNL     1      10.513  13.703  19.817  0.00  0.00    +0.000 C 
BRANCH   8  13
ATOM      9  N   UNL     1      10.504  16.321  16.384  0.00  0.00    +0.000 N 
ATOM     10  C   UNL     1      10.062  16.719  17.593  0.00  0.00    +0.000 C 
ATOM     11  O   UNL     1       9.629  17.847  17.785  0.00  0.00    +0.000 OA
ATOM     12  N   UNL     1      10.121  15.795  18.599  0.00  0.00    +0.000 N 
ATOM     13  C   UNL     1      10.600  14.502  18.525  0.00  0.00    +0.000 C 
ATOM     14  O   UNL     1      11.071  13.997  17.505  0.00  0.00    +0.000 OA
ATOM     15  H   UNL     1      10.517  16.973  15.613  0.00  0.00    +0.000 HD
ATOM     16  H   UNL     1      10.918  15.400  16.264  0.00  0.00    +0.000 HD
ATOM     17  H   UNL     1       9.784  16.134  19.488  0.00  0.00    +0.000 HD
ENDBRANCH   8  13
ENDBRANCH   7   8
ENDBRANCH   5   7
ENDBRANCH   4   5
ENDBRANCH   3   4
ENDBRANCH   2   3
ENDBRANCH   1   2
BRANCH   1  18
ATOM     18  C   UNL     1       7.414   6.572  17.919  0.00  0.00    +0.000 C 
BRANCH  18  19
ATOM     19  N   UNL     1       6.471   7.149  16.948  0.00  0.00    +0.000 NA
ATOM     20  H   UNL     1       6.841   7.852  16.306  0.00  0.00    +0.000 HD
BRANCH  19  21
ATOM     21  S   UNL     1       5.535   6.036  16.076  0.00  0.00    +0.000 S 
ATOM     22  O   UNL     1       4.975   6.764  14.959  0.00  0.00    +0.000 OA
ATOM     23  O   UNL     1       6.338   4.848  15.881  0.00  0.00    +0.000 OA
BRANCH  21  24
ATOM     24  C   UNL     1       4.200   5.644  17.178  0.00  0.00    +0.000 A 
ATOM     25  C   UNL     1       3.699   6.629  18.039  0.00  0.00    +0.000 A 
ATOM     26  C   UNL     1       2.686   6.307  18.944  0.00  0.00    +0.000 A 
ATOM     27  C   UNL     1       2.181   5.009  18.988  0.00  0.00    +0.000 A 
ATOM     28  C   UNL     1       2.681   4.030  18.121  0.00  0.00    +0.000 A 
ATOM     29  C   UNL     1       3.706   4.338  17.226  0.00  0.00    +0.000 A 
ATOM     30  O   UNL     1       2.216   2.739  18.104  0.00  0.00    +0.000 OA
ATOM     31  C   UNL     1       0.952   2.630  18.769  0.00  0.00    +0.000 C 
ATOM     32  C   UNL     1       0.971   3.367  20.098  0.00  0.00    +0.000 C 
ATOM     33  O   UNL     1       1.188   4.769  19.904  0.00  0.00    +0.000 OA
ENDBRANCH  21  24
ENDBRANCH  19  21
ENDBRANCH  18  19
ENDBRANCH   1  18
TORSDOF 11
ENDMDL
