MODEL 1
REMARK VINA RESULT:      -7.9      0.000      0.000
REMARK  Name = 
REMARK  9 active torsions:
REMARK  status: ('A' for Active; 'I' for Inactive)
REMARK    1  A    between atoms: C_1  and  O_2
REMARK    2  A    between atoms: O_2  and  C_3
REMARK    3  A    between atoms: C_5  and  C_6
REMARK    4  A    between atoms: C_11  and  C_12
REMARK    5  A    between atoms: C_16  and  N_17
REMARK    6  A    between atoms: C_20  and  O_21
REMARK    7  A    between atoms: O_21  and  C_22
REMARK    8  A    between atoms: C_23  and  O_24
REMARK    9  A    between atoms: O_24  and  C_25
REMARK                            x       y       z     vdW  Elec       q    Type
REMARK                         _______ _______ _______ _____ _____    ______ ____
ROOT
ATOM      1  C   UNL     1       5.333   4.814  15.683  0.00  0.00    +0.000 A 
ATOM      2  N   UNL     1       5.291   4.203  14.444  0.00  0.00    +0.000 NA
ATOM      3  C   UNL     1       6.455   4.434  13.902  0.00  0.00    +0.000 A 
ATOM      4  N   UNL     1       6.895   4.040  12.699  0.00  0.00    +0.000 N 
ATOM      5  N   UNL     1       7.259   5.152  14.738  0.00  0.00    +0.000 N 
ATOM      6  C   UNL     1       6.580   5.401  15.913  0.00  0.00    +0.000 A 
ATOM      7  H   UNL     1       6.186   3.655  12.085  0.00  0.00    +0.000 HD
ATOM      8  H   UNL     1       7.603   4.570  12.203  0.00  0.00    +0.000 HD
ATOM      9  H   UNL     1       8.218   5.394  14.552  0.00  0.00    +0.000 HD
ENDROOT
BRANCH   1  12
ATOM     10  C   UNL     1       2.863   3.310  18.076  0.00  0.00    +0.000 A 
ATOM     11  C   UNL     1       3.736   3.462  16.983  0.00  0.00    +0.000 A 
ATOM     12  C   UNL     1       4.224   4.716  16.622  0.00  0.00    +0.000 A 
ATOM     13  C   UNL     1       3.698   5.836  17.257  0.00  0.00    +0.000 A 
ATOM     14  C   UNL     1       2.810   5.720  18.339  0.00  0.00    +0.000 A 
ATOM     15  C   UNL     1       2.377   4.446  18.763  0.00  0.00    +0.000 A 
BRANCH  10  17
ATOM     16  C   UNL     1       3.536   1.137  18.768  0.00  0.00    +0.000 C 
ATOM     17  O   UNL     1       2.481   2.056  18.480  0.00  0.00    +0.000 OA
ENDBRANCH  10  17
BRANCH  14  18
ATOM     18  O   UNL     1       2.540   6.953  18.880  0.00  0.00    +0.000 OA
ATOM     19  C   UNL     1       2.272   8.056  18.031  0.00  0.00    +0.000 C 
ENDBRANCH  14  18
BRANCH  15  20
ATOM     20  O   UNL     1       1.525   4.438  19.834  0.00  0.00    +0.000 OA
ATOM     21  C   UNL     1       1.983   4.148  21.142  0.00  0.00    +0.000 C 
ENDBRANCH  15  20
ENDBRANCH   1  12
BRANCH   6  22
ATOM     22  C   UNL     1       7.204   6.082  17.051  0.00  0.00    +0.000 A 
ATOM     23  C   UNL     1       7.487   7.453  17.023  0.00  0.00    +0.000 A 
ATOM     24  C   UNL     1       8.151   8.072  18.081  0.00  0.00    +0.000 A 
ATOM     25  C   UNL     1       8.493   7.337  19.213  0.00  0.00    +0.000 A 
ATOM     26  C   UNL     1       8.220   5.969  19.277  0.00  0.00    +0.000 A 
ATOM     27  C   UNL     1       7.549   5.362  18.208  0.00  0.00    +0.000 A 
BRANCH  26  28
ATOM     28  N   UNL     1       8.409   5.272  20.478  0.00  0.00    +0.000 N 
ATOM     29  H   UNL     1       7.764   4.498  20.605  0.00  0.00    +0.000 HD
ATOM     30  H   UNL     1       8.465   5.866  21.297  0.00  0.00    +0.000 HD
ENDBRANCH  26  28
ENDBRANCH   6  22
TORSDOF 6
ENDMDL
MODEL 2
REMARK VINA RESULT:      -7.4      0.969      1.367
REMARK  Name = 
REMARK  9 active torsions:
REMARK  status: ('A' for Active; 'I' for Inactive)
REMARK    1  A    between atoms: C_1  and  O_2
REMARK    2  A    between atoms: O_2  and  C_3
REMARK    3  A    between atoms: C_5  and  C_6
REMARK    4  A    between atoms: C_11  and  C_12
REMARK    5  A    between atoms: C_16  and  N_17
REMARK    6  A    between atoms: C_20  and  O_21
REMARK    7  A    between atoms: O_21  and  C_22
REMARK    8  A    between atoms: C_23  and  O_24
REMARK    9  A    between atoms: O_24  and  C_25
REMARK                            x       y       z     vdW  Elec       q    Type
REMARK                         _______ _______ _______ _____ _____    ______ ____
ROOT
ATOM      1  C   UNL     1       5.383   4.840  15.644  0.00  0.00    +0.000 A 
ATOM      2  N   UNL     1       5.325   4.241  14.400  0.00  0.00    +0.000 NA
ATOM      3  C   UNL     1       6.499   4.432  13.866  0.00  0.00    +0.000 A 
ATOM      4  N   UNL     1       6.931   4.031  12.661  0.00  0.00    +0.000 N 
ATOM      5  N   UNL     1       7.325   5.111  14.712  0.00  0.00    +0.000 N 
ATOM      6  C   UNL     1       6.651   5.377  15.885  0.00  0.00    +0.000 A 
ATOM      7  H   UNL     1       6.210   3.678  12.041  0.00  0.00    +0.000 HD
ATOM      8  H   UNL     1       7.661   4.537  12.174  0.00  0.00    +0.000 HD
ATOM      9  H   UNL     1       8.295   5.318  14.532  0.00  0.00    +0.000 HD
ENDROOT
BRANCH   1  12
ATOM     10  C   UNL     1       2.820   3.408  17.983  0.00  0.00    +0.000 A 
ATOM     11  C   UNL     1       3.705   3.543  16.897  0.00  0.00    +0.000 A 
ATOM     12  C   UNL     1       4.267   4.778  16.576  0.00  0.00    +0.000 A 
ATOM     13  C   UNL     1       3.803   5.907  17.245  0.00  0.00    +0.000 A 
ATOM     14  C   UNL     1       2.905   5.809  18.320  0.00  0.00    +0.000 A 
ATOM     15  C   UNL     1       2.397   4.550  18.704  0.00  0.00    +0.000 A 
BRANCH  10  17
ATOM     16  C   UNL     1       3.341   1.264  18.867  0.00  0.00    +0.000 C 
ATOM     17  O   UNL     1       2.364   2.167  18.347  0.00  0.00    +0.000 OA
ENDBRANCH  10  17
BRANCH  14  18
ATOM     18  O   UNL     1       2.704   7.038  18.899  0.00  0.00    +0.000 OA
ATOM     19  C   UNL     1       2.160   8.100  18.134  0.00  0.00    +0.000 C 
ENDBRANCH  14  18
BRANCH  15  20
ATOM     20  O   UNL     1       1.542   4.557  19.771  0.00  0.00    +0.000 OA
ATOM     21  C   UNL     1       1.997   4.299  21.087  0.00  0.00    +0.000 C 
ENDBRANCH  15  20
ENDBRANCH   1  12
BRANCH   6  22
ATOM     22  C   UNL     1       7.295   6.024  17.032  0.00  0.00    +0.000 A 
ATOM     23  C   UNL     1       7.649   5.303  18.179  0.00  0.00    +0.000 A 
ATOM     24  C   UNL     1       8.188   5.945  19.293  0.00  0.00    +0.000 A 
ATOM     25  C   UNL     1       8.436   7.315  19.255  0.00  0.00    +0.000 A 
ATOM     26  C   UNL     1       8.101   8.063  18.124  0.00  0.00    +0.000 A 
ATOM     27  C   UNL     1       7.564   7.403  17.011  0.00  0.00    +0.000 A 
BRANCH  26  28
ATOM     28  N   UNL     1       8.505   9.401  18.022  0.00  0.00    +0.000 N 
ATOM     29  H   UNL     1       8.044  10.016  18.685  0.00  0.00    +0.000 HD
ATOM     30  H   UNL     1       8.488   9.768  17.078  0.00  0.00    +0.000 HD
ENDBRANCH  26  28
ENDBRANCH   6  22
TORSDOF 6
ENDMDL
MODEL 3
REMARK VINA RESULT:      -7.4      3.008      4.998
REMARK  Name = 
REMARK  9 active torsions:
REMARK  status: ('A' for Active; 'I' for Inactive)
REMARK    1  A    between atoms: C_1  and  O_2
REMARK    2  A    between atoms: O_2  and  C_3
REMARK    3  A    between atoms: C_5  and  C_6
REMARK    4  A    between atoms: C_11  and  C_12
REMARK    5  A    between atoms: C_16  and  N_17
REMARK    6  A    between atoms: C_20  and  O_21
REMARK    7  A    between atoms: O_21  and  C_22
REMARK    8  A    between atoms: C_23  and  O_24
REMARK    9  A    between atoms: O_24  and  C_25
REMARK                            x       y       z     vdW  Elec       q    Type
REMARK                         _______ _______ _______ _____ _____    ______ ____
ROOT
ATOM      1  C   UNL     1       2.671   5.519  18.557  0.00  0.00    +0.000 A 
ATOM      2  N   UNL     1       1.740   4.500  18.488  0.00  0.00    +0.000 NA
ATOM      3  C   UNL     1       2.412   3.437  18.145  0.00  0.00    +0.000 A 
ATOM      4  N   UNL     1       1.946   2.194  17.954  0.00  0.00    +0.000 N 
ATOM      5  N   UNL     1       3.741   3.712  18.005  0.00  0.00    +0.000 N 
ATOM      6  C   UNL     1       3.957   5.045  18.284  0.00  0.00    +0.000 A 
ATOM      7  H   UNL     1       0.935   2.114  17.921  0.00  0.00    +0.000 HD
ATOM      8  H   UNL     1       2.416   1.552  17.326  0.00  0.00    +0.000 HD
ATOM      9  H   UNL     1       4.454   3.031  17.802  0.00  0.00    +0.000 HD
ENDROOT
BRANCH   1  12
ATOM     10  C   UNL     1       1.807   9.167  18.353  0.00  0.00    +0.000 A 
ATOM     11  C   UNL     1       2.400   7.921  18.077  0.00  0.00    +0.000 A 
ATOM     12  C   UNL     1       2.305   6.863  18.981  0.00  0.00    +0.000 A 
ATOM     13  C   UNL     1       1.759   7.116  20.235  0.00  0.00    +0.000 A 
ATOM     14  C   UNL     1       1.177   8.354  20.550  0.00  0.00    +0.000 A 
ATOM     15  C   UNL     1       1.196   9.403  19.606  0.00  0.00    +0.000 A 
BRANCH  10  17
ATOM     16  C   UNL     1       2.502  11.361  17.759  0.00  0.00    +0.000 C 
ATOM     17  O   UNL     1       1.820  10.157  17.405  0.00  0.00    +0.000 OA
ENDBRANCH  10  17
BRANCH  14  18
ATOM     18  O   UNL     1       0.591   8.314  21.792  0.00  0.00    +0.000 OA
ATOM     19  C   UNL     1       0.994   9.231  22.794  0.00  0.00    +0.000 C 
ENDBRANCH  14  18
BRANCH  15  20
ATOM     20  O   UNL     1       0.590  10.564  20.001  0.00  0.00    +0.000 OA
ATOM     21  C   UNL     1      -0.774  10.820  19.721  0.00  0.00    +0.000 C 
ENDBRANCH  15  20
ENDBRANCH   1  12
BRANCH   6  22
ATOM     22  C   UNL     1       5.298   5.636  18.303  0.00  0.00    +0.000 A 
ATOM     23  C   UNL     1       5.674   6.635  17.396  0.00  0.00    +0.000 A 
ATOM     24  C   UNL     1       6.976   7.132  17.375  0.00  0.00    +0.000 A 
ATOM     25  C   UNL     1       7.911   6.678  18.301  0.00  0.00    +0.000 A 
ATOM     26  C   UNL     1       7.567   5.687  19.224  0.00  0.00    +0.000 A 
ATOM     27  C   UNL     1       6.255   5.200  19.237  0.00  0.00    +0.000 A 
BRANCH  26  28
ATOM     28  N   UNL     1       8.452   5.356  20.259  0.00  0.00    +0.000 N 
ATOM     29  H   UNL     1       8.942   4.480  20.111  0.00  0.00    +0.000 HD
ATOM     30  H   UNL     1       8.046   5.419  21.186  0.00  0.00    +0.000 HD
ENDBRANCH  26  28
ENDBRANCH   6  22
TORSDOF 6
ENDMDL
MODEL 4
REMARK VINA RESULT:      -7.2      0.439      2.653
REMARK  Name = 
REMARK  9 active torsions:
REMARK  status: ('A' for Active; 'I' for Inactive)
REMARK    1  A    between atoms: C_1  and  O_2
REMARK    2  A    between atoms: O_2  and  C_3
REMARK    3  A    between atoms: C_5  and  C_6
REMARK    4  A    between atoms: C_11  and  C_12
REMARK    5  A    between atoms: C_16  and  N_17
REMARK    6  A    between atoms: C_20  and  O_21
REMARK    7  A    between atoms: O_21  and  C_22
REMARK    8  A    between atoms: C_23  and  O_24
REMARK    9  A    between atoms: O_24  and  C_25
REMARK                            x       y       z     vdW  Elec       q    Type
REMARK                         _______ _______ _______ _____ _____    ______ ____
ROOT
ATOM      1  C   UNL     1       5.394   4.756  15.820  0.00  0.00    +0.000 A 
ATOM      2  N   UNL     1       5.319   4.151  14.579  0.00  0.00    +0.000 NA
ATOM      3  C   UNL     1       6.421   4.480  13.964  0.00  0.00    +0.000 A 
ATOM      4  N   UNL     1       6.810   4.130  12.730  0.00  0.00    +0.000 N 
ATOM      5  N   UNL     1       7.217   5.256  14.753  0.00  0.00    +0.000 N 
ATOM      6  C   UNL     1       6.601   5.442  15.973  0.00  0.00    +0.000 A 
ATOM      7  H   UNL     1       6.095   3.691  12.160  0.00  0.00    +0.000 HD
ATOM      8  H   UNL     1       7.437   4.720  12.195  0.00  0.00    +0.000 HD
ATOM      9  H   UNL     1       8.139   5.578  14.506  0.00  0.00    +0.000 HD
ENDROOT
BRANCH   1  12
ATOM     10  C   UNL     1       2.486   5.497  18.076  0.00  0.00    +0.000 A 
ATOM     11  C   UNL     1       3.658   5.663  17.316  0.00  0.00    +0.000 A 
ATOM     12  C   UNL     1       4.362   4.562  16.829  0.00  0.00    +0.000 A 
ATOM     13  C   UNL     1       3.978   3.295  17.254  0.00  0.00    +0.000 A 
ATOM     14  C   UNL     1       2.824   3.096  18.029  0.00  0.00    +0.000 A 
ATOM     15  C   UNL     1       2.060   4.203  18.455  0.00  0.00    +0.000 A 
BRANCH  10  17
ATOM     16  C   UNL     1       2.261   7.864  18.046  0.00  0.00    +0.000 C 
ATOM     17  O   UNL     1       1.752   6.593  18.452  0.00  0.00    +0.000 OA
ENDBRANCH  10  17
BRANCH  14  18
ATOM     18  O   UNL     1       2.582   1.755  18.206  0.00  0.00    +0.000 OA
ATOM     19  C   UNL     1       3.621   0.901  18.652  0.00  0.00    +0.000 C 
ENDBRANCH  14  18
BRANCH  15  20
ATOM     20  O   UNL     1       0.947   3.905  19.192  0.00  0.00    +0.000 OA
ATOM     21  C   UNL     1       1.027   3.640  20.580  0.00  0.00    +0.000 C 
ENDBRANCH  15  20
ENDBRANCH   1  12
BRANCH   6  22
ATOM     22  C   UNL     1       7.242   6.166  17.075  0.00  0.00    +0.000 A 
ATOM     23  C   UNL     1       7.530   7.534  16.987  0.00  0.00    +0.000 A 
ATOM     24  C   UNL     1       8.210   8.192  18.011  0.00  0.00    +0.000 A 
ATOM     25  C   UNL     1       8.563   7.502  19.167  0.00  0.00    +0.000 A 
ATOM     26  C   UNL     1       8.286   6.139  19.290  0.00  0.00    +0.000 A 
ATOM     27  C   UNL     1       7.599   5.492  18.256  0.00  0.00    +0.000 A 
BRANCH  26  28
ATOM     28  N   UNL     1       8.488   5.490  20.516  0.00  0.00    +0.000 N 
ATOM     29  H   UNL     1       8.935   4.583  20.427  0.00  0.00    +0.000 HD
ATOM     30  H   UNL     1       7.665   5.458  21.107  0.00  0.00    +0.000 HD
ENDBRANCH  26  28
ENDBRANCH   6  22
TORSDOF 6
ENDMDL
MODEL 5
REMARK VINA RESULT:      -7.1      1.093      3.000
REMARK  Name = 
REMARK  9 active torsions:
REMARK  status: ('A' for Active; 'I' for Inactive)
REMARK    1  A    between atoms: C_1  and  O_2
REMARK    2  A    between atoms: O_2  and  C_3
REMARK    3  A    between atoms: C_5  and  C_6
REMARK    4  A    between atoms: C_11  and  C_12
REMARK    5  A    between atoms: C_16  and  N_17
REMARK    6  A    between atoms: C_20  and  O_21
REMARK    7  A    between atoms: O_21  and  C_22
REMARK    8  A    between atoms: C_23  and  O_24
REMARK    9  A    between atoms: O_24  and  C_25
REMARK                            x       y       z     vdW  Elec       q    Type
REMARK                         _______ _______ _______ _____ _____    ______ ____
ROOT
ATOM      1  C   UNL     1       5.451   4.799  15.875  0.00  0.00    +0.000 A 
ATOM      2  N   UNL     1       5.354   4.172  14.647  0.00  0.00    +0.000 NA
ATOM      3  C   UNL     1       6.453   4.475  14.014  0.00  0.00    +0.000 A 
ATOM      4  N   UNL     1       6.824   4.098  12.782  0.00  0.00    +0.000 N 
ATOM      5  N   UNL     1       7.268   5.256  14.779  0.00  0.00    +0.000 N 
ATOM      6  C   UNL     1       6.669   5.472  16.002  0.00  0.00    +0.000 A 
ATOM      7  H   UNL     1       6.097   3.658  12.229  0.00  0.00    +0.000 HD
ATOM      8  H   UNL     1       7.452   4.669  12.229  0.00  0.00    +0.000 HD
ATOM      9  H   UNL     1       8.191   5.561  14.516  0.00  0.00    +0.000 HD
ENDROOT
BRANCH   1  12
ATOM     10  C   UNL     1       2.612   5.634  18.185  0.00  0.00    +0.000 A 
ATOM     11  C   UNL     1       3.777   5.760  17.407  0.00  0.00    +0.000 A 
ATOM     12  C   UNL     1       4.428   4.637  16.899  0.00  0.00    +0.000 A 
ATOM     13  C   UNL     1       4.001   3.381  17.319  0.00  0.00    +0.000 A 
ATOM     14  C   UNL     1       2.853   3.221  18.112  0.00  0.00    +0.000 A 
ATOM     15  C   UNL     1       2.140   4.354  18.559  0.00  0.00    +0.000 A 
BRANCH  10  17
ATOM     16  C   UNL     1       2.333   7.986  17.985  0.00  0.00    +0.000 C 
ATOM     17  O   UNL     1       1.927   6.754  18.582  0.00  0.00    +0.000 OA
ENDBRANCH  10  17
BRANCH  14  18
ATOM     18  O   UNL     1       2.560   1.890  18.280  0.00  0.00    +0.000 OA
ATOM     19  C   UNL     1       3.577   0.987  18.678  0.00  0.00    +0.000 C 
ENDBRANCH  14  18
BRANCH  15  20
ATOM     20  O   UNL     1       1.027   4.094  19.312  0.00  0.00    +0.000 OA
ATOM     21  C   UNL     1       1.119   3.819  20.697  0.00  0.00    +0.000 C 
ENDBRANCH  15  20
ENDBRANCH   1  12
BRANCH   6  22
ATOM     22  C   UNL     1       7.331   6.208  17.083  0.00  0.00    +0.000 A 
ATOM     23  C   UNL     1       7.741   5.571  18.261  0.00  0.00    +0.000 A 
ATOM     24  C   UNL     1       8.299   6.297  19.313  0.00  0.00    +0.000 A 
ATOM     25  C   UNL     1       8.508   7.667  19.179  0.00  0.00    +0.000 A 
ATOM     26  C   UNL     1       8.117   8.332  18.015  0.00  0.00    +0.000 A 
ATOM     27  C   UNL     1       7.562   7.589  16.965  0.00  0.00    +0.000 A 
BRANCH  26  28
ATOM     28  N   UNL     1       8.482   9.670  17.815  0.00  0.00    +0.000 N 
ATOM     29  H   UNL     1       9.404   9.899  18.175  0.00  0.00    +0.000 HD
ATOM     30  H   UNL     1       7.778  10.339  18.106  0.00  0.00    +0.000 HD
ENDBRANCH  26  28
ENDBRANCH   6  22
TORSDOF 6
ENDMDL
MODEL 6
REMARK VINA RESULT:      -7.1      3.523      6.197
REMARK  Name = 
REMARK  9 active torsions:
REMARK  status: ('A' for Active; 'I' for Inactive)
REMARK    1  A    between atoms: C_1  and  O_2
REMARK    2  A    between atoms: O_2  and  C_3
REMARK    3  A    between atoms: C_5  and  C_6
REMARK    4  A    between atoms: C_11  and  C_12
REMARK    5  A    between atoms: C_16  and  N_17
REMARK    6  A    between atoms: C_20  and  O_21
REMARK    7  A    between atoms: O_21  and  C_22
REMARK    8  A    between atoms: C_23  and  O_24
REMARK    9  A    between atoms: O_24  and  C_25
REMARK                            x       y       z     vdW  Elec       q    Type
REMARK                         _______ _______ _______ _____ _____    ______ ____
ROOT
ATOM      1  C   UNL     1       3.033   7.161  18.124  0.00  0.00    +0.000 A 
ATOM      2  N   UNL     1       3.972   7.711  17.271  0.00  0.00    +0.000 NA
ATOM      3  C   UNL     1       4.691   6.707  16.850  0.00  0.00    +0.000 A 
ATOM      4  N   UNL     1       5.726   6.736  16.000  0.00  0.00    +0.000 N 
ATOM      5  N   UNL     1       4.252   5.527  17.375  0.00  0.00    +0.000 N 
ATOM      6  C   UNL     1       3.166   5.771  18.188  0.00  0.00    +0.000 A 
ATOM      7  H   UNL     1       6.083   7.662  15.787  0.00  0.00    +0.000 HD
ATOM      8  H   UNL     1       6.452   6.030  16.038  0.00  0.00    +0.000 HD
ATOM      9  H   UNL     1       4.620   4.619  17.144  0.00  0.00    +0.000 HD
ENDROOT
BRANCH   1  12
ATOM     10  C   UNL     1       1.143   9.047  20.763  0.00  0.00    +0.000 A 
ATOM     11  C   UNL     1       1.943   8.073  20.136  0.00  0.00    +0.000 A 
ATOM     12  C   UNL     1       1.997   7.972  18.747  0.00  0.00    +0.000 A 
ATOM     13  C   UNL     1       1.114   8.740  17.996  0.00  0.00    +0.000 A 
ATOM     14  C   UNL     1       0.288   9.708  18.592  0.00  0.00    +0.000 A 
ATOM     15  C   UNL     1       0.292   9.873  19.993  0.00  0.00    +0.000 A 
BRANCH  10  17
ATOM     16  C   UNL     1      -0.050   9.050  22.819  0.00  0.00    +0.000 C 
ATOM     17  O   UNL     1       1.189   9.199  22.125  0.00  0.00    +0.000 OA
ENDBRANCH  10  17
BRANCH  14  18
ATOM     18  O   UNL     1      -0.389  10.425  17.636  0.00  0.00    +0.000 OA
ATOM     19  C   UNL     1      -1.702  10.044  17.264  0.00  0.00    +0.000 C 
ENDBRANCH  14  18
BRANCH  15  20
ATOM     20  O   UNL     1      -0.535  10.850  20.475  0.00  0.00    +0.000 OA
ATOM     21  C   UNL     1      -0.072  12.171  20.692  0.00  0.00    +0.000 C 
ENDBRANCH  15  20
ENDBRANCH   1  12
BRANCH   6  22
ATOM     22  C   UNL     1       2.412   4.694  18.837  0.00  0.00    +0.000 A 
ATOM     23  C   UNL     1       1.491   3.912  18.129  0.00  0.00    +0.000 A 
ATOM     24  C   UNL     1       0.725   2.943  18.776  0.00  0.00    +0.000 A 
ATOM     25  C   UNL     1       0.910   2.701  20.135  0.00  0.00    +0.000 A 
ATOM     26  C   UNL     1       1.826   3.458  20.869  0.00  0.00    +0.000 A 
ATOM     27  C   UNL     1       2.591   4.425  20.205  0.00  0.00    +0.000 A 
BRANCH  26  28
ATOM     28  N   UNL     1       2.132   3.101  22.189  0.00  0.00    +0.000 N 
ATOM     29  H   UNL     1       1.805   3.771  22.878  0.00  0.00    +0.000 HD
ATOM     30  H   UNL     1       3.101   2.842  22.333  0.00  0.00    +0.000 HD
ENDBRANCH  26  28
ENDBRANCH   6  22
TORSDOF 6
ENDMDL
MODEL 7
REMARK VINA RESULT:      -7.1      2.601      5.015
REMARK  Name = 
REMARK  9 active torsions:
REMARK  status: ('A' for Active; 'I' for Inactive)
REMARK    1  A    between atoms: C_1  and  O_2
REMARK    2  A    between atoms: O_2  and  C_3
REMARK    3  A    between atoms: C_5  and  C_6
REMARK    4  A    between atoms: C_11  and  C_12
REMARK    5  A    between atoms: C_16  and  N_17
REMARK    6  A    between atoms: C_20  and  O_21
REMARK    7  A    between atoms: O_21  and  C_22
REMARK    8  A    between atoms: C_23  and  O_24
REMARK    9  A    between atoms: O_24  and  C_25
REMARK                            x       y       z     vdW  Elec       q    Type
REMARK                         _______ _______ _______ _____ _____    ______ ____
ROOT
ATOM      1  C   UNL     1       4.520   6.101  16.971  0.00  0.00    +0.000 A 
ATOM      2  N   UNL     1       5.249   6.629  15.922  0.00  0.00    +0.000 NA
ATOM      3  C   UNL     1       5.830   5.610  15.353  0.00  0.00    +0.000 A 
ATOM      4  N   UNL     1       6.643   5.616  14.286  0.00  0.00    +0.000 N 
ATOM      5  N   UNL     1       5.498   4.441  15.970  0.00  0.00    +0.000 N 
ATOM      6  C   UNL     1       4.634   4.708  17.010  0.00  0.00    +0.000 A 
ATOM      7  H   UNL     1       6.961   6.533  13.992  0.00  0.00    +0.000 HD
ATOM      8  H   UNL     1       7.343   4.894  14.161  0.00  0.00    +0.000 HD
ATOM      9  H   UNL     1       5.784   3.524  15.665  0.00  0.00    +0.000 HD
ENDROOT
BRANCH   1  12
ATOM     10  C   UNL     1       2.252   8.908  18.004  0.00  0.00    +0.000 A 
ATOM     11  C   UNL     1       3.276   8.192  17.357  0.00  0.00    +0.000 A 
ATOM     12  C   UNL     1       3.672   6.935  17.811  0.00  0.00    +0.000 A 
ATOM     13  C   UNL     1       3.153   6.476  19.017  0.00  0.00    +0.000 A 
ATOM     14  C   UNL     1       2.144   7.175  19.698  0.00  0.00    +0.000 A 
ATOM     15  C   UNL     1       1.679   8.410  19.197  0.00  0.00    +0.000 A 
BRANCH  10  17
ATOM     16  C   UNL     1       2.460  11.276  17.938  0.00  0.00    +0.000 C 
ATOM     17  O   UNL     1       1.805  10.093  17.478  0.00  0.00    +0.000 OA
ENDBRANCH  10  17
BRANCH  14  18
ATOM     18  O   UNL     1       1.704   6.459  20.784  0.00  0.00    +0.000 OA
ATOM     19  C   UNL     1       1.844   5.049  20.806  0.00  0.00    +0.000 C 
ENDBRANCH  14  18
BRANCH  15  20
ATOM     20  O   UNL     1       0.684   9.006  19.924  0.00  0.00    +0.000 OA
ATOM     21  C   UNL     1       0.974   9.857  21.017  0.00  0.00    +0.000 C 
ENDBRANCH  15  20
ENDBRANCH   1  12
BRANCH   6  22
ATOM     22  C   UNL     1       4.026   3.648  17.820  0.00  0.00    +0.000 A 
ATOM     23  C   UNL     1       2.785   3.090  17.490  0.00  0.00    +0.000 A 
ATOM     24  C   UNL     1       2.184   2.139  18.312  0.00  0.00    +0.000 A 
ATOM     25  C   UNL     1       2.843   1.687  19.452  0.00  0.00    +0.000 A 
ATOM     26  C   UNL     1       4.085   2.217  19.807  0.00  0.00    +0.000 A 
ATOM     27  C   UNL     1       4.679   3.169  18.969  0.00  0.00    +0.000 A 
BRANCH  26  28
ATOM     28  N   UNL     1       4.820   1.643  20.853  0.00  0.00    +0.000 N 
ATOM     29  H   UNL     1       5.788   1.451  20.613  0.00  0.00    +0.000 HD
ATOM     30  H   UNL     1       4.367   0.848  21.289  0.00  0.00    +0.000 HD
ENDBRANCH  26  28
ENDBRANCH   6  22
TORSDOF 6
ENDMDL
MODEL 8
REMARK VINA RESULT:      -7.0      3.292      6.093
REMARK  Name = 
REMARK  9 active torsions:
REMARK  status: ('A' for Active; 'I' for Inactive)
REMARK    1  A    between atoms: C_1  and  O_2
REMARK    2  A    between atoms: O_2  and  C_3
REMARK    3  A    between atoms: C_5  and  C_6
REMARK    4  A    between atoms: C_11  and  C_12
REMARK    5  A    between atoms: C_16  and  N_17
REMARK    6  A    between atoms: C_20  and  O_21
REMARK    7  A    between atoms: O_21  and  C_22
REMARK    8  A    between atoms: C_23  and  O_24
REMARK    9  A    between atoms: O_24  and  C_25
REMARK                            x       y       z     vdW  Elec       q    Type
REMARK                         _______ _______ _______ _____ _____    ______ ____
ROOT
ATOM      1  C   UNL     1       3.278   7.084  17.886  0.00  0.00    +0.000 A 
ATOM      2  N   UNL     1       4.210   7.524  16.965  0.00  0.00    +0.000 NA
ATOM      3  C   UNL     1       4.807   6.448  16.532  0.00  0.00    +0.000 A 
ATOM      4  N   UNL     1       5.788   6.360  15.622  0.00  0.00    +0.000 N 
ATOM      5  N   UNL     1       4.294   5.327  17.115  0.00  0.00    +0.000 N 
ATOM      6  C   UNL     1       3.286   5.690  17.982  0.00  0.00    +0.000 A 
ATOM      7  H   UNL     1       6.215   7.243  15.363  0.00  0.00    +0.000 HD
ATOM      8  H   UNL     1       6.447   5.591  15.639  0.00  0.00    +0.000 HD
ATOM      9  H   UNL     1       4.562   4.383  16.888  0.00  0.00    +0.000 HD
ENDROOT
BRANCH   1  12
ATOM     10  C   UNL     1       0.529   9.599  18.339  0.00  0.00    +0.000 A 
ATOM     11  C   UNL     1       1.610   8.894  17.779  0.00  0.00    +0.000 A 
ATOM     12  C   UNL     1       2.361   8.003  18.545  0.00  0.00    +0.000 A 
ATOM     13  C   UNL     1       2.127   7.952  19.915  0.00  0.00    +0.000 A 
ATOM     14  C   UNL     1       1.068   8.658  20.508  0.00  0.00    +0.000 A 
ATOM     15  C   UNL     1       0.251   9.498  19.722  0.00  0.00    +0.000 A 
BRANCH  10  17
ATOM     16  C   UNL     1      -1.575   9.894  17.271  0.00  0.00    +0.000 C 
ATOM     17  O   UNL     1      -0.262  10.387  17.542  0.00  0.00    +0.000 OA
ENDBRANCH  10  17
BRANCH  14  18
ATOM     18  O   UNL     1       0.959   8.344  21.841  0.00  0.00    +0.000 OA
ATOM     19  C   UNL     1       1.469   9.231  22.821  0.00  0.00    +0.000 C 
ENDBRANCH  14  18
BRANCH  15  20
ATOM     20  O   UNL     1      -0.763  10.130  20.388  0.00  0.00    +0.000 OA
ATOM     21  C   UNL     1      -0.652  11.483  20.793  0.00  0.00    +0.000 C 
ENDBRANCH  15  20
ENDBRANCH   1  12
BRANCH   6  22
ATOM     22  C   UNL     1       2.477   4.703  18.704  0.00  0.00    +0.000 A 
ATOM     23  C   UNL     1       1.469   3.970  18.064  0.00  0.00    +0.000 A 
ATOM     24  C   UNL     1       0.656   3.092  18.779  0.00  0.00    +0.000 A 
ATOM     25  C   UNL     1       0.875   2.891  20.139  0.00  0.00    +0.000 A 
ATOM     26  C   UNL     1       1.876   3.600  20.807  0.00  0.00    +0.000 A 
ATOM     27  C   UNL     1       2.688   4.476  20.075  0.00  0.00    +0.000 A 
BRANCH  26  28
ATOM     28  N   UNL     1       2.206   3.273  22.129  0.00  0.00    +0.000 N 
ATOM     29  H   UNL     1       2.208   2.274  22.312  0.00  0.00    +0.000 HD
ATOM     30  H   UNL     1       1.684   3.791  22.826  0.00  0.00    +0.000 HD
ENDBRANCH  26  28
ENDBRANCH   6  22
TORSDOF 6
ENDMDL
MODEL 9
REMARK VINA RESULT:      -7.0      2.966      5.703
REMARK  Name = 
REMARK  9 active torsions:
REMARK  status: ('A' for Active; 'I' for Inactive)
REMARK    1  A    between atoms: C_1  and  O_2
REMARK    2  A    between atoms: O_2  and  C_3
REMARK    3  A    between atoms: C_5  and  C_6
REMARK    4  A    between atoms: C_11  and  C_12
REMARK    5  A    between atoms: C_16  and  N_17
REMARK    6  A    between atoms: C_20  and  O_21
REMARK    7  A    between atoms: O_21  and  C_22
REMARK    8  A    between atoms: C_23  and  O_24
REMARK    9  A    between atoms: O_24  and  C_25
REMARK                            x       y       z     vdW  Elec       q    Type
REMARK                         _______ _______ _______ _____ _____    ______ ____
ROOT
ATOM      1  C   UNL     1       3.791   6.622  17.878  0.00  0.00    +0.000 A 
ATOM      2  N   UNL     1       4.854   7.006  17.083  0.00  0.00    +0.000 NA
ATOM      3  C   UNL     1       5.492   5.905  16.798  0.00  0.00    +0.000 A 
ATOM      4  N   UNL     1       6.594   5.763  16.048  0.00  0.00    +0.000 N 
ATOM      5  N   UNL     1       4.884   4.820  17.356  0.00  0.00    +0.000 N 
ATOM      6  C   UNL     1       3.765   5.235  18.047  0.00  0.00    +0.000 A 
ATOM      7  H   UNL     1       7.067   6.627  15.809  0.00  0.00    +0.000 HD
ATOM      8  H   UNL     1       7.233   4.990  16.200  0.00  0.00    +0.000 HD
ATOM      9  H   UNL     1       5.169   3.863  17.221  0.00  0.00    +0.000 HD
ENDROOT
BRANCH   1  12
ATOM     10  C   UNL     1       1.381   8.366  20.167  0.00  0.00    +0.000 A 
ATOM     11  C   UNL     1       2.134   7.351  19.549  0.00  0.00    +0.000 A 
ATOM     12  C   UNL     1       2.800   7.581  18.346  0.00  0.00    +0.000 A 
ATOM     13  C   UNL     1       2.567   8.781  17.683  0.00  0.00    +0.000 A 
ATOM     14  C   UNL     1       1.805   9.807  18.263  0.00  0.00    +0.000 A 
ATOM     15  C   UNL     1       1.197   9.611  19.521  0.00  0.00    +0.000 A 
BRANCH  10  17
ATOM     16  C   UNL     1       1.251   9.028  22.447  0.00  0.00    +0.000 C 
ATOM     17  O   UNL     1       0.824   8.152  21.403  0.00  0.00    +0.000 OA
ENDBRANCH  10  17
BRANCH  14  18
ATOM     18  O   UNL     1       1.832  10.935  17.479  0.00  0.00    +0.000 OA
ATOM     19  C   UNL     1       2.565  12.073  17.901  0.00  0.00    +0.000 C 
ENDBRANCH  14  18
BRANCH  15  20
ATOM     20  O   UNL     1       0.489  10.675  20.008  0.00  0.00    +0.000 OA
ATOM     21  C   UNL     1      -0.880  10.859  19.697  0.00  0.00    +0.000 C 
ENDBRANCH  15  20
ENDBRANCH   1  12
BRANCH   6  22
ATOM     22  C   UNL     1       2.845   4.293  18.692  0.00  0.00    +0.000 A 
ATOM     23  C   UNL     1       1.791   3.697  17.988  0.00  0.00    +0.000 A 
ATOM     24  C   UNL     1       0.877   2.865  18.633  0.00  0.00    +0.000 A 
ATOM     25  C   UNL     1       1.038   2.569  19.985  0.00  0.00    +0.000 A 
ATOM     26  C   UNL     1       2.082   3.141  20.714  0.00  0.00    +0.000 A 
ATOM     27  C   UNL     1       2.994   3.972  20.052  0.00  0.00    +0.000 A 
BRANCH  26  28
ATOM     28  N   UNL     1       2.341   2.712  22.023  0.00  0.00    +0.000 N 
ATOM     29  H   UNL     1       1.890   3.279  22.734  0.00  0.00    +0.000 HD
ATOM     30  H   UNL     1       3.323   2.555  22.220  0.00  0.00    +0.000 HD
ENDBRANCH  26  28
ENDBRANCH   6  22
TORSDOF 6
ENDMDL
