MODEL 1
REMARK VINA RESULT:      -6.6      0.000      0.000
REMARK  Name = 
REMARK  8 active torsions:
REMARK  status: ('A' for Active; 'I' for Inactive)
REMARK    1  A    between atoms: C_1  and  O_2
REMARK    2  A    between atoms: O_2  and  C_3
REMARK    3  A    between atoms: C_3  and  C_4
REMARK    4  A    between atoms: C_4  and  O_5
REMARK    5  A    between atoms: O_5  and  C_6
REMARK    6  A    between atoms: C_9  and  N_10
REMARK    7  A    between atoms: N_10  and  S_11
REMARK    8  A    between atoms: S_11  and  C_14
REMARK                            x       y       z     vdW  Elec       q    Type
REMARK                         _______ _______ _______ _____ _____    ______ ____
ROOT
ATOM      1  C   UNL     1       6.285   4.167  13.100  0.00  0.00    +0.000 A 
ATOM      2  C   UNL     1       7.354   4.977  13.415  0.00  0.00    +0.000 A 
ATOM      3  N   UNL     1       7.805   5.181  14.667  0.00  0.00    +0.000 NA
ATOM      4  C   UNL     1       7.108   4.596  15.657  0.00  0.00    +0.000 A 
ATOM      5  N   UNL     1       6.081   3.750  15.465  0.00  0.00    +0.000 NA
ATOM      6  C   UNL     1       5.688   3.569  14.187  0.00  0.00    +0.000 A 
ENDROOT
BRANCH   1   7
ATOM      7  O   UNL     1       5.792   3.883  11.861  0.00  0.00    +0.000 OA
BRANCH   7   8
ATOM      8  C   UNL     1       5.097   2.640  11.747  0.00  0.00    +0.000 C 
BRANCH   8   9
ATOM      9  C   UNL     1       3.781   2.879  11.008  0.00  0.00    +0.000 C 
BRANCH   9  11
ATOM     10  C   UNL     1       2.744   4.333   9.453  0.00  0.00    +0.000 C 
ATOM     11  O   UNL     1       3.763   4.179  10.430  0.00  0.00    +0.000 OA
ENDBRANCH   9  11
ENDBRANCH   8   9
ENDBRANCH   7   8
ENDBRANCH   1   7
BRANCH   4  12
ATOM     12  N   UNL     1       7.562   4.762  16.904  0.00  0.00    +0.000 NA
BRANCH  12  13
ATOM     13  S   UNL     1       7.237   6.134  17.648  0.00  0.00    +0.000 S 
ATOM     14  O   UNL     1       7.891   6.262  18.952  0.00  0.00    +0.000 OA
ATOM     15  O   UNL     1       7.285   7.361  16.848  0.00  0.00    +0.000 OA
BRANCH  13  16
ATOM     16  C   UNL     1       5.481   6.053  18.121  0.00  0.00    +0.000 A 
ATOM     17  C   UNL     1       5.094   5.256  19.201  0.00  0.00    +0.000 A 
ATOM     18  C   UNL     1       3.753   5.225  19.585  0.00  0.00    +0.000 A 
ATOM     19  C   UNL     1       2.812   5.994  18.896  0.00  0.00    +0.000 A 
ATOM     20  C   UNL     1       3.209   6.797  17.823  0.00  0.00    +0.000 A 
ATOM     21  C   UNL     1       4.548   6.831  17.434  0.00  0.00    +0.000 A 
ENDBRANCH  13  16
ENDBRANCH  12  13
ENDBRANCH   4  12
TORSDOF 7
ENDMDL
MODEL 2
REMARK VINA RESULT:      -6.5      3.503      6.119
REMARK  Name = 
REMARK  8 active torsions:
REMARK  status: ('A' for Active; 'I' for Inactive)
REMARK    1  A    between atoms: C_1  and  O_2
REMARK    2  A    between atoms: O_2  and  C_3
REMARK    3  A    between atoms: C_3  and  C_4
REMARK    4  A    between atoms: C_4  and  O_5
REMARK    5  A    between atoms: O_5  and  C_6
REMARK    6  A    between atoms: C_9  and  N_10
REMARK    7  A    between atoms: N_10  and  S_11
REMARK    8  A    between atoms: S_11  and  C_14
REMARK                            x       y       z     vdW  Elec       q    Type
REMARK                         _______ _______ _______ _____ _____    ______ ____
ROOT
ATOM      1  C   UNL     1       2.821   3.613  18.276  0.00  0.00    +0.000 A 
ATOM      2  C   UNL     1       2.946   4.962  18.529  0.00  0.00    +0.000 A 
ATOM      3  N   UNL     1       4.071   5.546  18.980  0.00  0.00    +0.000 NA
ATOM      4  C   UNL     1       5.102   4.727  19.253  0.00  0.00    +0.000 A 
ATOM      5  N   UNL     1       5.110   3.406  19.001  0.00  0.00    +0.000 NA
ATOM      6  C   UNL     1       3.959   2.882  18.530  0.00  0.00    +0.000 A 
ENDROOT
BRANCH   1   7
ATOM      7  O   UNL     1       1.732   2.955  17.788  0.00  0.00    +0.000 OA
BRANCH   7   8
ATOM      8  C   UNL     1       0.898   2.338  18.769  0.00  0.00    +0.000 C 
BRANCH   8   9
ATOM      9  C   UNL     1       0.700   3.312  19.929  0.00  0.00    +0.000 C 
BRANCH   9  11
ATOM     10  C   UNL     1       2.161   3.164  21.787  0.00  0.00    +0.000 C 
ATOM     11  O   UNL     1       0.980   2.673  21.169  0.00  0.00    +0.000 OA
ENDBRANCH   9  11
ENDBRANCH   8   9
ENDBRANCH   7   8
ENDBRANCH   1   7
BRANCH   4  12
ATOM     12  N   UNL     1       6.239   5.294  19.670  0.00  0.00    +0.000 NA
BRANCH  12  13
ATOM     13  S   UNL     1       7.433   5.448  18.624  0.00  0.00    +0.000 S 
ATOM     14  O   UNL     1       8.017   6.790  18.594  0.00  0.00    +0.000 OA
ATOM     15  O   UNL     1       8.432   4.376  18.582  0.00  0.00    +0.000 OA
BRANCH  13  16
ATOM     16  C   UNL     1       6.680   5.335  16.971  0.00  0.00    +0.000 A 
ATOM     17  C   UNL     1       5.838   6.357  16.525  0.00  0.00    +0.000 A 
ATOM     18  C   UNL     1       5.293   6.287  15.244  0.00  0.00    +0.000 A 
ATOM     19  C   UNL     1       5.596   5.204  14.415  0.00  0.00    +0.000 A 
ATOM     20  C   UNL     1       6.446   4.191  14.864  0.00  0.00    +0.000 A 
ATOM     21  C   UNL     1       6.994   4.255  16.145  0.00  0.00    +0.000 A 
ENDBRANCH  13  16
ENDBRANCH  12  13
ENDBRANCH   4  12
TORSDOF 7
ENDMDL
MODEL 3
REMARK VINA RESULT:      -6.4      4.215      6.615
REMARK  Name = 
REMARK  8 active torsions:
REMARK  status: ('A' for Active; 'I' for Inactive)
REMARK    1  A    between atoms: C_1  and  O_2
REMARK    2  A    between atoms: O_2  and  C_3
REMARK    3  A    between atoms: C_3  and  C_4
REMARK    4  A    between atoms: C_4  and  O_5
REMARK    5  A    between atoms: O_5  and  C_6
REMARK    6  A    between atoms: C_9  and  N_10
REMARK    7  A    between atoms: N_10  and  S_11
REMARK    8  A    between atoms: S_11  and  C_14
REMARK                            x       y       z     vdW  Elec       q    Type
REMARK                         _______ _______ _______ _____ _____    ______ ____
ROOT
ATOM      1  C   UNL     1       7.568   6.651  18.262  0.00  0.00    +0.000 A 
ATOM      2  C   UNL     1       6.941   6.489  17.046  0.00  0.00    +0.000 A 
ATOM      3  N   UNL     1       6.039   5.525  16.782  0.00  0.00    +0.000 NA
ATOM      4  C   UNL     1       5.804   4.640  17.768  0.00  0.00    +0.000 A 
ATOM      5  N   UNL     1       6.321   4.727  19.006  0.00  0.00    +0.000 NA
ATOM      6  C   UNL     1       7.203   5.728  19.215  0.00  0.00    +0.000 A 
ENDROOT
BRANCH   1   7
ATOM      7  O   UNL     1       8.462   7.618  18.615  0.00  0.00    +0.000 OA
BRANCH   7   8
ATOM      8  C   UNL     1       8.194   8.920  18.095  0.00  0.00    +0.000 C 
BRANCH   8   9
ATOM      9  C   UNL     1       8.967   9.948  18.921  0.00  0.00    +0.000 C 
BRANCH   9  11
ATOM     10  C   UNL     1       9.298  12.134  18.071  0.00  0.00    +0.000 C 
ATOM     11  O   UNL     1       9.744  10.785  18.072  0.00  0.00    +0.000 OA
ENDBRANCH   9  11
ENDBRANCH   8   9
ENDBRANCH   7   8
ENDBRANCH   1   7
BRANCH   4  12
ATOM     12  N   UNL     1       4.887   3.696  17.534  0.00  0.00    +0.000 NA
BRANCH  12  13
ATOM     13  S   UNL     1       3.349   4.120  17.541  0.00  0.00    +0.000 S 
ATOM     14  O   UNL     1       3.141   5.568  17.475  0.00  0.00    +0.000 OA
ATOM     15  O   UNL     1       2.437   3.359  16.682  0.00  0.00    +0.000 OA
BRANCH  13  16
ATOM     16  C   UNL     1       2.722   3.732  19.205  0.00  0.00    +0.000 A 
ATOM     17  C   UNL     1       2.776   4.705  20.207  0.00  0.00    +0.000 A 
ATOM     18  C   UNL     1       2.260   4.418  21.470  0.00  0.00    +0.000 A 
ATOM     19  C   UNL     1       1.688   3.168  21.724  0.00  0.00    +0.000 A 
ATOM     20  C   UNL     1       1.629   2.205  20.714  0.00  0.00    +0.000 A 
ATOM     21  C   UNL     1       2.143   2.486  19.449  0.00  0.00    +0.000 A 
ENDBRANCH  13  16
ENDBRANCH  12  13
ENDBRANCH   4  12
TORSDOF 7
ENDMDL
MODEL 4
REMARK VINA RESULT:      -6.4      3.106      6.790
REMARK  Name = 
REMARK  8 active torsions:
REMARK  status: ('A' for Active; 'I' for Inactive)
REMARK    1  A    between atoms: C_1  and  O_2
REMARK    2  A    between atoms: O_2  and  C_3
REMARK    3  A    between atoms: C_3  and  C_4
REMARK    4  A    between atoms: C_4  and  O_5
REMARK    5  A    between atoms: O_5  and  C_6
REMARK    6  A    between atoms: C_9  and  N_10
REMARK    7  A    between atoms: N_10  and  S_11
REMARK    8  A    between atoms: S_11  and  C_14
REMARK                            x       y       z     vdW  Elec       q    Type
REMARK                         _______ _______ _______ _____ _____    ______ ____
ROOT
ATOM      1  C   UNL     1       2.079   4.169  18.411  0.00  0.00    +0.000 A 
ATOM      2  C   UNL     1       2.358   5.507  18.587  0.00  0.00    +0.000 A 
ATOM      3  N   UNL     1       3.326   6.172  17.929  0.00  0.00    +0.000 NA
ATOM      4  C   UNL     1       4.095   5.442  17.102  0.00  0.00    +0.000 A 
ATOM      5  N   UNL     1       3.887   4.145  16.816  0.00  0.00    +0.000 NA
ATOM      6  C   UNL     1       2.888   3.539  17.492  0.00  0.00    +0.000 A 
ENDROOT
BRANCH   1   7
ATOM      7  O   UNL     1       1.099   3.436  19.010  0.00  0.00    +0.000 OA
BRANCH   7   8
ATOM      8  C   UNL     1       1.553   2.399  19.879  0.00  0.00    +0.000 C 
BRANCH   8   9
ATOM      9  C   UNL     1       1.894   3.010  21.238  0.00  0.00    +0.000 C 
BRANCH   9  11
ATOM     10  C   UNL     1       4.100   2.229  20.869  0.00  0.00    +0.000 C 
ATOM     11  O   UNL     1       3.035   2.370  21.799  0.00  0.00    +0.000 OA
ENDBRANCH   9  11
ENDBRANCH   8   9
ENDBRANCH   7   8
ENDBRANCH   1   7
BRANCH   4  12
ATOM     12  N   UNL     1       5.040   6.093  16.415  0.00  0.00    +0.000 NA
BRANCH  12  13
ATOM     13  S   UNL     1       6.493   5.441  16.327  0.00  0.00    +0.000 S 
ATOM     14  O   UNL     1       7.580   6.417  16.425  0.00  0.00    +0.000 OA
ATOM     15  O   UNL     1       6.731   4.222  17.106  0.00  0.00    +0.000 OA
BRANCH  13  16
ATOM     16  C   UNL     1       6.682   4.847  14.618  0.00  0.00    +0.000 A 
ATOM     17  C   UNL     1       5.828   3.851  14.135  0.00  0.00    +0.000 A 
ATOM     18  C   UNL     1       5.950   3.424  12.813  0.00  0.00    +0.000 A 
ATOM     19  C   UNL     1       6.915   3.997  11.981  0.00  0.00    +0.000 A 
ATOM     20  C   UNL     1       7.758   4.999  12.467  0.00  0.00    +0.000 A 
ATOM     21  C   UNL     1       7.641   5.430  13.789  0.00  0.00    +0.000 A 
ENDBRANCH  13  16
ENDBRANCH  12  13
ENDBRANCH   4  12
TORSDOF 7
ENDMDL
MODEL 5
REMARK VINA RESULT:      -6.4      0.246      1.083
REMARK  Name = 
REMARK  8 active torsions:
REMARK  status: ('A' for Active; 'I' for Inactive)
REMARK    1  A    between atoms: C_1  and  O_2
REMARK    2  A    between atoms: O_2  and  C_3
REMARK    3  A    between atoms: C_3  and  C_4
REMARK    4  A    between atoms: C_4  and  O_5
REMARK    5  A    between atoms: O_5  and  C_6
REMARK    6  A    between atoms: C_9  and  N_10
REMARK    7  A    between atoms: N_10  and  S_11
REMARK    8  A    between atoms: S_11  and  C_14
REMARK                            x       y       z     vdW  Elec       q    Type
REMARK                         _______ _______ _______ _____ _____    ______ ____
ROOT
ATOM      1  C   UNL     1       6.430   4.087  12.981  0.00  0.00    +0.000 A 
ATOM      2  C   UNL     1       7.429   4.970  13.327  0.00  0.00    +0.000 A 
ATOM      3  N   UNL     1       7.803   5.232  14.594  0.00  0.00    +0.000 NA
ATOM      4  C   UNL     1       7.094   4.627  15.563  0.00  0.00    +0.000 A 
ATOM      5  N   UNL     1       6.133   3.713  15.344  0.00  0.00    +0.000 NA
ATOM      6  C   UNL     1       5.817   3.477  14.052  0.00  0.00    +0.000 A 
ENDROOT
BRANCH   1   7
ATOM      7  O   UNL     1       6.020   3.743  11.728  0.00  0.00    +0.000 OA
BRANCH   7   8
ATOM      8  C   UNL     1       5.150   2.613  11.655  0.00  0.00    +0.000 C 
BRANCH   8   9
ATOM      9  C   UNL     1       3.744   3.097  11.304  0.00  0.00    +0.000 C 
BRANCH   9  11
ATOM     10  C   UNL     1       2.900   4.195   9.383  0.00  0.00    +0.000 C 
ATOM     11  O   UNL     1       3.806   4.252  10.474  0.00  0.00    +0.000 OA
ENDBRANCH   9  11
ENDBRANCH   8   9
ENDBRANCH   7   8
ENDBRANCH   1   7
BRANCH   4  12
ATOM     12  N   UNL     1       7.473   4.850  16.826  0.00  0.00    +0.000 NA
BRANCH  12  13
ATOM     13  S   UNL     1       7.069   6.237  17.501  0.00  0.00    +0.000 S 
ATOM     14  O   UNL     1       7.800   6.524  18.736  0.00  0.00    +0.000 OA
ATOM     15  O   UNL     1       6.936   7.401  16.618  0.00  0.00    +0.000 OA
BRANCH  13  16
ATOM     16  C   UNL     1       5.369   6.028  18.117  0.00  0.00    +0.000 A 
ATOM     17  C   UNL     1       4.312   6.658  17.454  0.00  0.00    +0.000 A 
ATOM     18  C   UNL     1       3.007   6.466  17.905  0.00  0.00    +0.000 A 
ATOM     19  C   UNL     1       2.764   5.641  19.008  0.00  0.00    +0.000 A 
ATOM     20  C   UNL     1       3.824   5.007  19.658  0.00  0.00    +0.000 A 
ATOM     21  C   UNL     1       5.132   5.196  19.212  0.00  0.00    +0.000 A 
ENDBRANCH  13  16
ENDBRANCH  12  13
ENDBRANCH   4  12
TORSDOF 7
ENDMDL
MODEL 6
REMARK VINA RESULT:      -6.3      2.968      6.820
REMARK  Name = 
REMARK  8 active torsions:
REMARK  status: ('A' for Active; 'I' for Inactive)
REMARK    1  A    between atoms: C_1  and  O_2
REMARK    2  A    between atoms: O_2  and  C_3
REMARK    3  A    between atoms: C_3  and  C_4
REMARK    4  A    between atoms: C_4  and  O_5
REMARK    5  A    between atoms: O_5  and  C_6
REMARK    6  A    between atoms: C_9  and  N_10
REMARK    7  A    between atoms: N_10  and  S_11
REMARK    8  A    between atoms: S_11  and  C_14
REMARK                            x       y       z     vdW  Elec       q    Type
REMARK                         _______ _______ _______ _____ _____    ______ ____
ROOT
ATOM      1  C   UNL     1       2.780   5.155  19.307  0.00  0.00    +0.000 A 
ATOM      2  C   UNL     1       2.635   4.684  18.020  0.00  0.00    +0.000 A 
ATOM      3  N   UNL     1       3.661   4.446  17.181  0.00  0.00    +0.000 NA
ATOM      4  C   UNL     1       4.888   4.758  17.635  0.00  0.00    +0.000 A 
ATOM      5  N   UNL     1       5.153   5.177  18.884  0.00  0.00    +0.000 NA
ATOM      6  C   UNL     1       4.084   5.377  19.685  0.00  0.00    +0.000 A 
ENDROOT
BRANCH   1   7
ATOM      7  O   UNL     1       1.798   5.387  20.224  0.00  0.00    +0.000 OA
BRANCH   7   8
ATOM      8  C   UNL     1       0.806   4.366  20.332  0.00  0.00    +0.000 C 
BRANCH   8   9
ATOM      9  C   UNL     1       1.397   3.184  21.098  0.00  0.00    +0.000 C 
BRANCH   9  11
ATOM     10  C   UNL     1       0.732   2.091  19.105  0.00  0.00    +0.000 C 
ATOM     11  O   UNL     1       1.604   2.078  20.226  0.00  0.00    +0.000 OA
ENDBRANCH   9  11
ENDBRANCH   8   9
ENDBRANCH   7   8
ENDBRANCH   1   7
BRANCH   4  12
ATOM     12  N   UNL     1       5.921   4.497  16.827  0.00  0.00    +0.000 NA
BRANCH  12  13
ATOM     13  S   UNL     1       6.410   5.644  15.833  0.00  0.00    +0.000 S 
ATOM     14  O   UNL     1       5.407   6.684  15.599  0.00  0.00    +0.000 OA
ATOM     15  O   UNL     1       7.763   6.174  16.031  0.00  0.00    +0.000 OA
BRANCH  13  16
ATOM     16  C   UNL     1       6.537   4.874  14.189  0.00  0.00    +0.000 A 
ATOM     17  C   UNL     1       7.585   5.234  13.338  0.00  0.00    +0.000 A 
ATOM     18  C   UNL     1       7.701   4.615  12.094  0.00  0.00    +0.000 A 
ATOM     19  C   UNL     1       6.778   3.638  11.711  0.00  0.00    +0.000 A 
ATOM     20  C   UNL     1       5.740   3.276  12.572  0.00  0.00    +0.000 A 
ATOM     21  C   UNL     1       5.618   3.892  13.817  0.00  0.00    +0.000 A 
ENDBRANCH  13  16
ENDBRANCH  12  13
ENDBRANCH   4  12
TORSDOF 7
ENDMDL
MODEL 7
REMARK VINA RESULT:      -6.3      2.940      6.717
REMARK  Name = 
REMARK  8 active torsions:
REMARK  status: ('A' for Active; 'I' for Inactive)
REMARK    1  A    between atoms: C_1  and  O_2
REMARK    2  A    between atoms: O_2  and  C_3
REMARK    3  A    between atoms: C_3  and  C_4
REMARK    4  A    between atoms: C_4  and  O_5
REMARK    5  A    between atoms: O_5  and  C_6
REMARK    6  A    between atoms: C_9  and  N_10
REMARK    7  A    between atoms: N_10  and  S_11
REMARK    8  A    between atoms: S_11  and  C_14
REMARK                            x       y       z     vdW  Elec       q    Type
REMARK                         _______ _______ _______ _____ _____    ______ ____
ROOT
ATOM      1  C   UNL     1       3.773   2.719  19.077  0.00  0.00    +0.000 A 
ATOM      2  C   UNL     1       4.778   3.567  19.486  0.00  0.00    +0.000 A 
ATOM      3  N   UNL     1       5.364   4.485  18.694  0.00  0.00    +0.000 NA
ATOM      4  C   UNL     1       4.966   4.506  17.409  0.00  0.00    +0.000 A 
ATOM      5  N   UNL     1       3.964   3.760  16.911  0.00  0.00    +0.000 NA
ATOM      6  C   UNL     1       3.402   2.873  17.760  0.00  0.00    +0.000 A 
ENDROOT
BRANCH   1   7
ATOM      7  O   UNL     1       3.109   1.792  19.825  0.00  0.00    +0.000 OA
BRANCH   7   8
ATOM      8  C   UNL     1       1.882   2.236  20.404  0.00  0.00    +0.000 C 
BRANCH   8   9
ATOM      9  C   UNL     1       2.199   3.094  21.628  0.00  0.00    +0.000 C 
BRANCH   9  11
ATOM     10  C   UNL     1       1.179   4.637  20.148  0.00  0.00    +0.000 C 
ATOM     11  O   UNL     1       1.839   4.451  21.392  0.00  0.00    +0.000 OA
ENDBRANCH   9  11
ENDBRANCH   8   9
ENDBRANCH   7   8
ENDBRANCH   1   7
BRANCH   4  12
ATOM     12  N   UNL     1       5.514   5.433  16.616  0.00  0.00    +0.000 NA
BRANCH  12  13
ATOM     13  S   UNL     1       7.023   5.226  16.144  0.00  0.00    +0.000 S 
ATOM     14  O   UNL     1       7.790   6.471  16.069  0.00  0.00    +0.000 OA
ATOM     15  O   UNL     1       7.769   4.116  16.745  0.00  0.00    +0.000 OA
BRANCH  13  16
ATOM     16  C   UNL     1       6.945   4.733  14.394  0.00  0.00    +0.000 A 
ATOM     17  C   UNL     1       6.071   3.715  14.002  0.00  0.00    +0.000 A 
ATOM     18  C   UNL     1       5.986   3.365  12.655  0.00  0.00    +0.000 A 
ATOM     19  C   UNL     1       6.765   4.036  11.708  0.00  0.00    +0.000 A 
ATOM     20  C   UNL     1       7.629   5.060  12.107  0.00  0.00    +0.000 A 
ATOM     21  C   UNL     1       7.719   5.414  13.453  0.00  0.00    +0.000 A 
ENDBRANCH  13  16
ENDBRANCH  12  13
ENDBRANCH   4  12
TORSDOF 7
ENDMDL
MODEL 8
REMARK VINA RESULT:      -6.3      3.116      6.836
REMARK  Name = 
REMARK  8 active torsions:
REMARK  status: ('A' for Active; 'I' for Inactive)
REMARK    1  A    between atoms: C_1  and  O_2
REMARK    2  A    between atoms: O_2  and  C_3
REMARK    3  A    between atoms: C_3  and  C_4
REMARK    4  A    between atoms: C_4  and  O_5
REMARK    5  A    between atoms: O_5  and  C_6
REMARK    6  A    between atoms: C_9  and  N_10
REMARK    7  A    between atoms: N_10  and  S_11
REMARK    8  A    between atoms: S_11  and  C_14
REMARK                            x       y       z     vdW  Elec       q    Type
REMARK                         _______ _______ _______ _____ _____    ______ ____
ROOT
ATOM      1  C   UNL     1       2.911   5.429  19.504  0.00  0.00    +0.000 A 
ATOM      2  C   UNL     1       2.602   5.621  18.175  0.00  0.00    +0.000 A 
ATOM      3  N   UNL     1       3.516   5.726  17.193  0.00  0.00    +0.000 NA
ATOM      4  C   UNL     1       4.806   5.703  17.572  0.00  0.00    +0.000 A 
ATOM      5  N   UNL     1       5.225   5.474  18.829  0.00  0.00    +0.000 NA
ATOM      6  C   UNL     1       4.261   5.355  19.767  0.00  0.00    +0.000 A 
ENDROOT
BRANCH   1   7
ATOM      7  O   UNL     1       2.047   5.279  20.547  0.00  0.00    +0.000 OA
BRANCH   7   8
ATOM      8  C   UNL     1       0.954   4.389  20.315  0.00  0.00    +0.000 C 
BRANCH   8   9
ATOM      9  C   UNL     1       1.263   3.048  20.977  0.00  0.00    +0.000 C 
BRANCH   9  11
ATOM     10  C   UNL     1       1.080   2.294  18.739  0.00  0.00    +0.000 C 
ATOM     11  O   UNL     1       1.693   2.100  20.006  0.00  0.00    +0.000 OA
ENDBRANCH   9  11
ENDBRANCH   8   9
ENDBRANCH   7   8
ENDBRANCH   1   7
BRANCH   4  12
ATOM     12  N   UNL     1       5.728   5.772  16.606  0.00  0.00    +0.000 NA
BRANCH  12  13
ATOM     13  S   UNL     1       6.526   4.445  16.228  0.00  0.00    +0.000 S 
ATOM     14  O   UNL     1       7.900   4.423  16.734  0.00  0.00    +0.000 OA
ATOM     15  O   UNL     1       5.824   3.168  16.390  0.00  0.00    +0.000 OA
BRANCH  13  16
ATOM     16  C   UNL     1       6.796   4.507  14.429  0.00  0.00    +0.000 A 
ATOM     17  C   UNL     1       7.729   5.404  13.902  0.00  0.00    +0.000 A 
ATOM     18  C   UNL     1       7.961   5.424  12.527  0.00  0.00    +0.000 A 
ATOM     19  C   UNL     1       7.268   4.545  11.689  0.00  0.00    +0.000 A 
ATOM     20  C   UNL     1       6.345   3.645  12.225  0.00  0.00    +0.000 A 
ATOM     21  C   UNL     1       6.108   3.621  13.599  0.00  0.00    +0.000 A 
ENDBRANCH  13  16
ENDBRANCH  12  13
ENDBRANCH   4  12
TORSDOF 7
ENDMDL
MODEL 9
REMARK VINA RESULT:      -6.2      4.040      6.151
REMARK  Name = 
REMARK  8 active torsions:
REMARK  status: ('A' for Active; 'I' for Inactive)
REMARK    1  A    between atoms: C_1  and  O_2
REMARK    2  A    between atoms: O_2  and  C_3
REMARK    3  A    between atoms: C_3  and  C_4
REMARK    4  A    between atoms: C_4  and  O_5
REMARK    5  A    between atoms: O_5  and  C_6
REMARK    6  A    between atoms: C_9  and  N_10
REMARK    7  A    between atoms: N_10  and  S_11
REMARK    8  A    between atoms: S_11  and  C_14
REMARK                            x       y       z     vdW  Elec       q    Type
REMARK                         _______ _______ _______ _____ _____    ______ ____
ROOT
ATOM      1  C   UNL     1       6.477   5.001  17.498  0.00  0.00    +0.000 A 
ATOM      2  C   UNL     1       5.646   4.256  16.689  0.00  0.00    +0.000 A 
ATOM      3  N   UNL     1       4.647   3.478  17.144  0.00  0.00    +0.000 NA
ATOM      4  C   UNL     1       4.517   3.391  18.479  0.00  0.00    +0.000 A 
ATOM      5  N   UNL     1       5.237   4.106  19.361  0.00  0.00    +0.000 NA
ATOM      6  C   UNL     1       6.211   4.885  18.843  0.00  0.00    +0.000 A 
ENDROOT
BRANCH   1   7
ATOM      7  O   UNL     1       7.483   5.836  17.114  0.00  0.00    +0.000 OA
BRANCH   7   8
ATOM      8  C   UNL     1       7.221   7.230  17.278  0.00  0.00    +0.000 C 
BRANCH   8   9
ATOM      9  C   UNL     1       8.274   7.822  18.212  0.00  0.00    +0.000 C 
BRANCH   9  11
ATOM     10  C   UNL     1       9.084   9.874  19.074  0.00  0.00    +0.000 C 
ATOM     11  O   UNL     1       8.364   9.231  18.032  0.00  0.00    +0.000 OA
ENDBRANCH   9  11
ENDBRANCH   8   9
ENDBRANCH   7   8
ENDBRANCH   1   7
BRANCH   4  12
ATOM     12  N   UNL     1       3.508   2.648  18.947  0.00  0.00    +0.000 NA
BRANCH  12  13
ATOM     13  S   UNL     1       2.018   3.158  18.699  0.00  0.00    +0.000 S 
ATOM     14  O   UNL     1       1.643   3.207  17.285  0.00  0.00    +0.000 OA
ATOM     15  O   UNL     1       0.967   2.610  19.562  0.00  0.00    +0.000 OA
BRANCH  13  16
ATOM     16  C   UNL     1       2.002   4.921  19.148  0.00  0.00    +0.000 A 
ATOM     17  C   UNL     1       1.653   5.299  20.447  0.00  0.00    +0.000 A 
ATOM     18  C   UNL     1       1.679   6.648  20.799  0.00  0.00    +0.000 A 
ATOM     19  C   UNL     1       2.059   7.609  19.858  0.00  0.00    +0.000 A 
ATOM     20  C   UNL     1       2.416   7.222  18.564  0.00  0.00    +0.000 A 
ATOM     21  C   UNL     1       2.392   5.874  18.205  0.00  0.00    +0.000 A 
ENDBRANCH  13  16
ENDBRANCH  12  13
ENDBRANCH   4  12
TORSDOF 7
ENDMDL
