MODEL 1
REMARK VINA RESULT:      -6.1      0.000      0.000
REMARK  Name = 
REMARK  18 active torsions:
REMARK  status: ('A' for Active; 'I' for Inactive)
REMARK    1  A    between atoms: C_1  and  C_2
REMARK    2  A    between atoms: C_2  and  N_3
REMARK    3  A    between atoms: N_3  and  C_4
REMARK    4  A    between atoms: N_3  and  C_13
REMARK    5  A    between atoms: C_4  and  C_5
REMARK    6  A    between atoms: C_5  and  C_6
REMARK    7  A    between atoms: C_6  and  C_7
REMARK    8  A    between atoms: C_7  and  C_8
REMARK    9  A    between atoms: C_8  and  C_9
REMARK   10  A    between atoms: C_9  and  C_10
REMARK   11  A    between atoms: C_13  and  C_14
REMARK   12  A    between atoms: C_14  and  C_15
REMARK   13  A    between atoms: C_15  and  C_16
REMARK   14  A    between atoms: C_16  and  O_17
REMARK   15  A    between atoms: C_16  and  C_18
REMARK   16  A    between atoms: C_21  and  N_22
REMARK   17  A    between atoms: N_22  and  S_23
REMARK   18  A    between atoms: S_23  and  C_24
REMARK                            x       y       z     vdW  Elec       q    Type
REMARK                         _______ _______ _______ _____ _____    ______ ____
ROOT
ATOM      1  C   UNL     1       3.839   5.885  19.387  0.00  0.00    +0.000 C 
ENDROOT
BRANCH   1   2
ATOM      2  C   UNL     1       5.332   5.545  19.391  0.00  0.00    +0.000 C 
BRANCH   2   3
ATOM      3  C   UNL     1       5.626   4.295  18.553  0.00  0.00    +0.000 C 
BRANCH   3   4
ATOM      4  N   UNL     1       5.457   4.462  17.091  0.00  0.00    +0.000 NA
BRANCH   4   6
ATOM      5  C   UNL     1       6.738   4.506  14.893  0.00  0.00    +0.000 C 
ATOM      6  C   UNL     1       6.772   4.465  16.418  0.00  0.00    +0.000 C 
ENDBRANCH   4   6
BRANCH   4   7
ATOM      7  C   UNL     1       4.555   3.422  16.560  0.00  0.00    +0.000 C 
BRANCH   7   8
ATOM      8  C   UNL     1       3.537   2.879  17.588  0.00  0.00    +0.000 C 
BRANCH   8   9
ATOM      9  C   UNL     1       2.068   3.209  17.274  0.00  0.00    +0.000 C 
BRANCH   9  10
ATOM     10  C   UNL     1       1.334   3.697  18.520  0.00  0.00    +0.000 C 
BRANCH  10  11
ATOM     11  C   UNL     1       1.102   2.599  19.557  0.00  0.00    +0.000 C 
BRANCH  11  12
ATOM     12  C   UNL     1       1.532   3.095  20.934  0.00  0.00    +0.000 C 
ATOM     13  C   UNL     1       2.977   2.794  21.262  0.00  0.00    +0.000 C 
ATOM     14  F   UNL     1       1.342   4.438  21.015  0.00  0.00    +0.000 F 
ATOM     15  F   UNL     1       0.742   2.531  21.884  0.00  0.00    +0.000 F 
ENDBRANCH  11  12
ENDBRANCH  10  11
ENDBRANCH   9  10
ENDBRANCH   8   9
ENDBRANCH   7   8
ENDBRANCH   4   7
ENDBRANCH   3   4
ENDBRANCH   2   3
ENDBRANCH   1   2
BRANCH   1  16
ATOM     16  C   UNL     1       3.499   7.033  18.431  0.00  0.00    +0.000 C 
BRANCH  16  17
ATOM     17  C   UNL     1       2.399   7.964  18.910  0.00  0.00    +0.000 A 
ATOM     18  C   UNL     1       1.844   8.973  18.107  0.00  0.00    +0.000 A 
ATOM     19  C   UNL     1       0.817   9.786  18.587  0.00  0.00    +0.000 A 
ATOM     20  C   UNL     1       0.340   9.617  19.881  0.00  0.00    +0.000 A 
ATOM     21  C   UNL     1       0.875   8.620  20.699  0.00  0.00    +0.000 A 
ATOM     22  C   UNL     1       1.899   7.803  20.216  0.00  0.00    +0.000 A 
BRANCH  20  23
ATOM     23  N   UNL     1      -0.727  10.440  20.325  0.00  0.00    +0.000 N 
ATOM     24  H   UNL     1      -1.399  10.719  19.606  0.00  0.00    +0.000 HD
BRANCH  23  25
ATOM     25  S   UNL     1      -0.329  11.770  21.289  0.00  0.00    +0.000 S 
ATOM     26  C   UNL     1      -1.041  11.297  22.849  0.00  0.00    +0.000 C 
ATOM     27  O   UNL     1       1.104  11.879  21.433  0.00  0.00    +0.000 OA
ATOM     28  O   UNL     1      -1.120  12.864  20.769  0.00  0.00    +0.000 OA
ENDBRANCH  23  25
ENDBRANCH  20  23
ENDBRANCH  16  17
BRANCH  16  29
ATOM     29  O   UNL     1       3.103   6.474  17.177  0.00  0.00    +0.000 OA
ATOM     30  H   UNL     1       2.750   5.586  17.365  0.00  0.00    +0.000 HD
ENDBRANCH  16  29
ENDBRANCH   1  16
TORSDOF 15
ENDMDL
MODEL 2
REMARK VINA RESULT:      -5.9      7.050      9.762
REMARK  Name = 
REMARK  18 active torsions:
REMARK  status: ('A' for Active; 'I' for Inactive)
REMARK    1  A    between atoms: C_1  and  C_2
REMARK    2  A    between atoms: C_2  and  N_3
REMARK    3  A    between atoms: N_3  and  C_4
REMARK    4  A    between atoms: N_3  and  C_13
REMARK    5  A    between atoms: C_4  and  C_5
REMARK    6  A    between atoms: C_5  and  C_6
REMARK    7  A    between atoms: C_6  and  C_7
REMARK    8  A    between atoms: C_7  and  C_8
REMARK    9  A    between atoms: C_8  and  C_9
REMARK   10  A    between atoms: C_9  and  C_10
REMARK   11  A    between atoms: C_13  and  C_14
REMARK   12  A    between atoms: C_14  and  C_15
REMARK   13  A    between atoms: C_15  and  C_16
REMARK   14  A    between atoms: C_16  and  O_17
REMARK   15  A    between atoms: C_16  and  C_18
REMARK   16  A    between atoms: C_21  and  N_22
REMARK   17  A    between atoms: N_22  and  S_23
REMARK   18  A    between atoms: S_23  and  C_24
REMARK                            x       y       z     vdW  Elec       q    Type
REMARK                         _______ _______ _______ _____ _____    ______ ____
ROOT
ATOM      1  C   UNL     1       7.850   7.271  17.946  0.00  0.00    +0.000 C 
ENDROOT
BRANCH   1   2
ATOM      2  C   UNL     1       7.985   8.796  17.922  0.00  0.00    +0.000 C 
BRANCH   2   3
ATOM      3  C   UNL     1       9.018   9.286  18.944  0.00  0.00    +0.000 C 
BRANCH   3   4
ATOM      4  N   UNL     1       9.111  10.757  19.088  0.00  0.00    +0.000 NA
BRANCH   4   6
ATOM      5  C   UNL     1      10.550  11.986  20.791  0.00  0.00    +0.000 C 
ATOM      6  C   UNL     1       9.324  11.122  20.504  0.00  0.00    +0.000 C 
ENDBRANCH   4   6
BRANCH   4   7
ATOM      7  C   UNL     1      10.166  11.290  18.205  0.00  0.00    +0.000 C 
BRANCH   7   8
ATOM      8  C   UNL     1       9.758  12.557  17.420  0.00  0.00    +0.000 C 
BRANCH   8   9
ATOM      9  C   UNL     1       8.275  12.943  17.549  0.00  0.00    +0.000 C 
BRANCH   9  10
ATOM     10  C   UNL     1       8.086  14.081  18.548  0.00  0.00    +0.000 C 
BRANCH  10  11
ATOM     11  C   UNL     1       7.562  15.367  17.911  0.00  0.00    +0.000 C 
BRANCH  11  12
ATOM     12  C   UNL     1       8.565  16.495  18.132  0.00  0.00    +0.000 C 
ATOM     13  C   UNL     1       9.341  16.368  19.423  0.00  0.00    +0.000 C 
ATOM     14  F   UNL     1       9.447  16.531  17.100  0.00  0.00    +0.000 F 
ATOM     15  F   UNL     1       7.914  17.687  18.130  0.00  0.00    +0.000 F 
ENDBRANCH  11  12
ENDBRANCH  10  11
ENDBRANCH   9  10
ENDBRANCH   8   9
ENDBRANCH   7   8
ENDBRANCH   4   7
ENDBRANCH   3   4
ENDBRANCH   2   3
ENDBRANCH   1   2
BRANCH   1  16
ATOM     16  C   UNL     1       6.858   6.751  16.900  0.00  0.00    +0.000 C 
BRANCH  16  17
ATOM     17  C   UNL     1       5.872   5.715  17.411  0.00  0.00    +0.000 A 
ATOM     18  C   UNL     1       4.982   5.025  16.572  0.00  0.00    +0.000 A 
ATOM     19  C   UNL     1       4.112   4.064  17.088  0.00  0.00    +0.000 A 
ATOM     20  C   UNL     1       4.105   3.788  18.449  0.00  0.00    +0.000 A 
ATOM     21  C   UNL     1       4.981   4.460  19.303  0.00  0.00    +0.000 A 
ATOM     22  C   UNL     1       5.855   5.417  18.786  0.00  0.00    +0.000 A 
BRANCH  20  23
ATOM     23  N   UNL     1       3.230   2.781  18.933  0.00  0.00    +0.000 N 
ATOM     24  H   UNL     1       3.169   1.935  18.361  0.00  0.00    +0.000 HD
BRANCH  23  25
ATOM     25  S   UNL     1       1.685   3.264  19.414  0.00  0.00    +0.000 S 
ATOM     26  C   UNL     1       1.598   2.583  21.055  0.00  0.00    +0.000 C 
ATOM     27  O   UNL     1       1.606   4.704  19.491  0.00  0.00    +0.000 OA
ATOM     28  O   UNL     1       0.775   2.504  18.585  0.00  0.00    +0.000 OA
ENDBRANCH  23  25
ENDBRANCH  20  23
ENDBRANCH  16  17
BRANCH  16  29
ATOM     29  O   UNL     1       7.599   6.178  15.821  0.00  0.00    +0.000 OA
ATOM     30  H   UNL     1       8.531   6.418  15.963  0.00  0.00    +0.000 HD
ENDBRANCH  16  29
ENDBRANCH   1  16
TORSDOF 15
ENDMDL
MODEL 3
REMARK VINA RESULT:      -5.8      1.958      2.449
REMARK  Name = 
REMARK  18 active torsions:
REMARK  status: ('A' for Active; 'I' for Inactive)
REMARK    1  A    between atoms: C_1  and  C_2
REMARK    2  A    between atoms: C_2  and  N_3
REMARK    3  A    between atoms: N_3  and  C_4
REMARK    4  A    between atoms: N_3  and  C_13
REMARK    5  A    between atoms: C_4  and  C_5
REMARK    6  A    between atoms: C_5  and  C_6
REMARK    7  A    between atoms: C_6  and  C_7
REMARK    8  A    between atoms: C_7  and  C_8
REMARK    9  A    between atoms: C_8  and  C_9
REMARK   10  A    between atoms: C_9  and  C_10
REMARK   11  A    between atoms: C_13  and  C_14
REMARK   12  A    between atoms: C_14  and  C_15
REMARK   13  A    between atoms: C_15  and  C_16
REMARK   14  A    between atoms: C_16  and  O_17
REMARK   15  A    between atoms: C_16  and  C_18
REMARK   16  A    between atoms: C_21  and  N_22
REMARK   17  A    between atoms: N_22  and  S_23
REMARK   18  A    between atoms: S_23  and  C_24
REMARK                            x       y       z     vdW  Elec       q    Type
REMARK                         _______ _______ _______ _____ _____    ______ ____
ROOT
ATOM      1  C   UNL     1       3.005   7.718  17.587  0.00  0.00    +0.000 C 
ENDROOT
BRANCH   1   2
ATOM      2  C   UNL     1       4.176   6.794  17.931  0.00  0.00    +0.000 C 
BRANCH   2   3
ATOM      3  C   UNL     1       5.022   6.471  16.693  0.00  0.00    +0.000 C 
BRANCH   3   4
ATOM      4  N   UNL     1       5.915   5.297  16.830  0.00  0.00    +0.000 NA
BRANCH   4   6
ATOM      5  C   UNL     1       7.712   5.821  18.554  0.00  0.00    +0.000 C 
ATOM      6  C   UNL     1       6.375   5.161  18.228  0.00  0.00    +0.000 C 
ENDBRANCH   4   6
BRANCH   4   7
ATOM      7  C   UNL     1       5.236   4.081  16.341  0.00  0.00    +0.000 C 
BRANCH   7   8
ATOM      8  C   UNL     1       4.273   3.436  17.364  0.00  0.00    +0.000 C 
BRANCH   8   9
ATOM      9  C   UNL     1       2.809   3.348  16.902  0.00  0.00    +0.000 C 
BRANCH   9  10
ATOM     10  C   UNL     1       1.864   3.933  17.948  0.00  0.00    +0.000 C 
BRANCH  10  11
ATOM     11  C   UNL     1       2.376   3.783  19.380  0.00  0.00    +0.000 C 
BRANCH  11  12
ATOM     12  C   UNL     1       1.206   3.494  20.315  0.00  0.00    +0.000 C 
ATOM     13  C   UNL     1       1.590   2.683  21.532  0.00  0.00    +0.000 C 
ATOM     14  F   UNL     1       0.655   4.663  20.732  0.00  0.00    +0.000 F 
ATOM     15  F   UNL     1       0.237   2.828  19.634  0.00  0.00    +0.000 F 
ENDBRANCH  11  12
ENDBRANCH  10  11
ENDBRANCH   9  10
ENDBRANCH   8   9
ENDBRANCH   7   8
ENDBRANCH   4   7
ENDBRANCH   3   4
ENDBRANCH   2   3
ENDBRANCH   1   2
BRANCH   1  16
ATOM     16  C   UNL     1       1.953   7.775  18.699  0.00  0.00    +0.000 C 
BRANCH  16  17
ATOM     17  C   UNL     1       1.531   9.174  19.112  0.00  0.00    +0.000 A 
ATOM     18  C   UNL     1       0.850   9.447  20.309  0.00  0.00    +0.000 A 
ATOM     19  C   UNL     1       0.507  10.754  20.655  0.00  0.00    +0.000 A 
ATOM     20  C   UNL     1       0.823  11.806  19.805  0.00  0.00    +0.000 A 
ATOM     21  C   UNL     1       1.499  11.561  18.610  0.00  0.00    +0.000 A 
ATOM     22  C   UNL     1       1.848  10.254  18.267  0.00  0.00    +0.000 A 
BRANCH  20  23
ATOM     23  N   UNL     1       0.487  13.126  20.204  0.00  0.00    +0.000 N 
ATOM     24  H   UNL     1      -0.128  13.638  19.568  0.00  0.00    +0.000 HD
BRANCH  23  25
ATOM     25  S   UNL     1       1.751  14.126  20.712  0.00  0.00    +0.000 S 
ATOM     26  C   UNL     1       0.978  15.022  22.041  0.00  0.00    +0.000 C 
ATOM     27  O   UNL     1       2.840  13.338  21.239  0.00  0.00    +0.000 OA
ATOM     28  O   UNL     1       1.954  15.061  19.626  0.00  0.00    +0.000 OA
ENDBRANCH  23  25
ENDBRANCH  20  23
ENDBRANCH  16  17
BRANCH  16  29
ATOM     29  O   UNL     1       2.472   7.101  19.847  0.00  0.00    +0.000 OA
ATOM     30  H   UNL     1       1.929   6.303  19.972  0.00  0.00    +0.000 HD
ENDBRANCH  16  29
ENDBRANCH   1  16
TORSDOF 15
ENDMDL
MODEL 4
REMARK VINA RESULT:      -5.8      2.737      4.355
REMARK  Name = 
REMARK  18 active torsions:
REMARK  status: ('A' for Active; 'I' for Inactive)
REMARK    1  A    between atoms: C_1  and  C_2
REMARK    2  A    between atoms: C_2  and  N_3
REMARK    3  A    between atoms: N_3  and  C_4
REMARK    4  A    between atoms: N_3  and  C_13
REMARK    5  A    between atoms: C_4  and  C_5
REMARK    6  A    between atoms: C_5  and  C_6
REMARK    7  A    between atoms: C_6  and  C_7
REMARK    8  A    between atoms: C_7  and  C_8
REMARK    9  A    between atoms: C_8  and  C_9
REMARK   10  A    between atoms: C_9  and  C_10
REMARK   11  A    between atoms: C_13  and  C_14
REMARK   12  A    between atoms: C_14  and  C_15
REMARK   13  A    between atoms: C_15  and  C_16
REMARK   14  A    between atoms: C_16  and  O_17
REMARK   15  A    between atoms: C_16  and  C_18
REMARK   16  A    between atoms: C_21  and  N_22
REMARK   17  A    between atoms: N_22  and  S_23
REMARK   18  A    between atoms: S_23  and  C_24
REMARK                            x       y       z     vdW  Elec       q    Type
REMARK                         _______ _______ _______ _____ _____    ______ ____
ROOT
ATOM      1  C   UNL     1       1.536   5.111  19.840  0.00  0.00    +0.000 C 
ENDROOT
BRANCH   1   2
ATOM      2  C   UNL     1       2.237   4.155  20.808  0.00  0.00    +0.000 C 
BRANCH   2   3
ATOM      3  C   UNL     1       2.236   2.716  20.278  0.00  0.00    +0.000 C 
BRANCH   3   4
ATOM      4  N   UNL     1       3.550   2.220  19.805  0.00  0.00    +0.000 NA
BRANCH   4   6
ATOM      5  C   UNL     1       2.206   2.298  17.645  0.00  0.00    +0.000 C 
ATOM      6  C   UNL     1       3.484   1.881  18.368  0.00  0.00    +0.000 C 
ENDBRANCH   4   6
BRANCH   4   7
ATOM      7  C   UNL     1       4.605   3.207  20.103  0.00  0.00    +0.000 C 
BRANCH   7   8
ATOM      8  C   UNL     1       5.263   3.831  18.851  0.00  0.00    +0.000 C 
BRANCH   8   9
ATOM      9  C   UNL     1       5.991   5.161  19.102  0.00  0.00    +0.000 C 
BRANCH   9  10
ATOM     10  C   UNL     1       6.585   5.717  17.810  0.00  0.00    +0.000 C 
BRANCH  10  11
ATOM     11  C   UNL     1       7.243   4.650  16.937  0.00  0.00    +0.000 C 
BRANCH  11  12
ATOM     12  C   UNL     1       6.601   4.654  15.553  0.00  0.00    +0.000 C 
ATOM     13  C   UNL     1       5.485   5.663  15.407  0.00  0.00    +0.000 C 
ATOM     14  F   UNL     1       7.546   4.916  14.612  0.00  0.00    +0.000 F 
ATOM     15  F   UNL     1       6.110   3.418  15.278  0.00  0.00    +0.000 F 
ENDBRANCH  11  12
ENDBRANCH  10  11
ENDBRANCH   9  10
ENDBRANCH   8   9
ENDBRANCH   7   8
ENDBRANCH   4   7
ENDBRANCH   3   4
ENDBRANCH   2   3
ENDBRANCH   1   2
BRANCH   1  16
ATOM     16  C   UNL     1       2.484   6.169  19.266  0.00  0.00    +0.000 C 
BRANCH  16  17
ATOM     17  C   UNL     1       2.002   7.602  19.397  0.00  0.00    +0.000 A 
ATOM     18  C   UNL     1       2.000   8.511  18.327  0.00  0.00    +0.000 A 
ATOM     19  C   UNL     1       1.523   9.812  18.493  0.00  0.00    +0.000 A 
ATOM     20  C   UNL     1       1.056  10.230  19.733  0.00  0.00    +0.000 A 
ATOM     21  C   UNL     1       1.047   9.346  20.812  0.00  0.00    +0.000 A 
ATOM     22  C   UNL     1       1.519   8.043  20.644  0.00  0.00    +0.000 A 
BRANCH  20  23
ATOM     23  N   UNL     1       0.548  11.550  19.857  0.00  0.00    +0.000 N 
ATOM     24  H   UNL     1       1.045  12.155  20.514  0.00  0.00    +0.000 HD
BRANCH  23  25
ATOM     25  S   UNL     1      -1.120  11.720  20.067  0.00  0.00    +0.000 S 
ATOM     26  C   UNL     1      -1.345  13.448  19.710  0.00  0.00    +0.000 C 
ATOM     27  O   UNL     1      -1.836  10.934  19.089  0.00  0.00    +0.000 OA
ATOM     28  O   UNL     1      -1.344  11.542  21.485  0.00  0.00    +0.000 OA
ENDBRANCH  23  25
ENDBRANCH  20  23
ENDBRANCH  16  17
BRANCH  16  29
ATOM     29  O   UNL     1       2.691   5.885  17.881  0.00  0.00    +0.000 OA
ATOM     30  H   UNL     1       3.190   5.051  17.838  0.00  0.00    +0.000 HD
ENDBRANCH  16  29
ENDBRANCH   1  16
TORSDOF 15
ENDMDL
MODEL 5
REMARK VINA RESULT:      -5.7      3.612      5.257
REMARK  Name = 
REMARK  18 active torsions:
REMARK  status: ('A' for Active; 'I' for Inactive)
REMARK    1  A    between atoms: C_1  and  C_2
REMARK    2  A    between atoms: C_2  and  N_3
REMARK    3  A    between atoms: N_3  and  C_4
REMARK    4  A    between atoms: N_3  and  C_13
REMARK    5  A    between atoms: C_4  and  C_5
REMARK    6  A    between atoms: C_5  and  C_6
REMARK    7  A    between atoms: C_6  and  C_7
REMARK    8  A    between atoms: C_7  and  C_8
REMARK    9  A    between atoms: C_8  and  C_9
REMARK   10  A    between atoms: C_9  and  C_10
REMARK   11  A    between atoms: C_13  and  C_14
REMARK   12  A    between atoms: C_14  and  C_15
REMARK   13  A    between atoms: C_15  and  C_16
REMARK   14  A    between atoms: C_16  and  O_17
REMARK   15  A    between atoms: C_16  and  C_18
REMARK   16  A    between atoms: C_21  and  N_22
REMARK   17  A    between atoms: N_22  and  S_23
REMARK   18  A    between atoms: S_23  and  C_24
REMARK                            x       y       z     vdW  Elec       q    Type
REMARK                         _______ _______ _______ _____ _____    ______ ____
ROOT
ATOM      1  C   UNL     1       3.193   2.675  19.726  0.00  0.00    +0.000 C 
ENDROOT
BRANCH   1   2
ATOM      2  C   UNL     1       4.589   2.734  19.099  0.00  0.00    +0.000 C 
BRANCH   2   3
ATOM      3  C   UNL     1       5.292   4.060  19.413  0.00  0.00    +0.000 C 
BRANCH   3   4
ATOM      4  N   UNL     1       5.814   4.790  18.234  0.00  0.00    +0.000 NA
BRANCH   4   6
ATOM      5  C   UNL     1       7.728   6.449  18.479  0.00  0.00    +0.000 C 
ATOM      6  C   UNL     1       7.272   4.998  18.363  0.00  0.00    +0.000 C 
ENDBRANCH   4   6
BRANCH   4   7
ATOM      7  C   UNL     1       5.456   4.076  16.993  0.00  0.00    +0.000 C 
BRANCH   7   8
ATOM      8  C   UNL     1       5.196   5.000  15.782  0.00  0.00    +0.000 C 
BRANCH   8   9
ATOM      9  C   UNL     1       6.462   5.468  15.047  0.00  0.00    +0.000 C 
BRANCH   9  10
ATOM     10  C   UNL     1       6.770   4.570  13.852  0.00  0.00    +0.000 C 
BRANCH  10  11
ATOM     11  C   UNL     1       5.669   3.551  13.559  0.00  0.00    +0.000 C 
BRANCH  11  12
ATOM     12  C   UNL     1       5.663   3.217  12.071  0.00  0.00    +0.000 C 
ATOM     13  C   UNL     1       4.322   3.436  11.408  0.00  0.00    +0.000 C 
ATOM     14  F   UNL     1       6.592   3.972  11.429  0.00  0.00    +0.000 F 
ATOM     15  F   UNL     1       6.029   1.920  11.898  0.00  0.00    +0.000 F 
ENDBRANCH  11  12
ENDBRANCH  10  11
ENDBRANCH   9  10
ENDBRANCH   8   9
ENDBRANCH   7   8
ENDBRANCH   4   7
ENDBRANCH   3   4
ENDBRANCH   2   3
ENDBRANCH   1   2
BRANCH   1  16
ATOM     16  C   UNL     1       2.148   3.444  18.910  0.00  0.00    +0.000 C 
BRANCH  16  17
ATOM     17  C   UNL     1       2.053   4.927  19.223  0.00  0.00    +0.000 A 
ATOM     18  C   UNL     1       2.357   5.929  18.288  0.00  0.00    +0.000 A 
ATOM     19  C   UNL     1       2.229   7.278  18.618  0.00  0.00    +0.000 A 
ATOM     20  C   UNL     1       1.813   7.649  19.890  0.00  0.00    +0.000 A 
ATOM     21  C   UNL     1       1.506   6.672  20.838  0.00  0.00    +0.000 A 
ATOM     22  C   UNL     1       1.628   5.322  20.505  0.00  0.00    +0.000 A 
BRANCH  20  23
ATOM     23  N   UNL     1       1.664   9.030  20.180  0.00  0.00    +0.000 N 
ATOM     24  H   UNL     1       2.521   9.586  20.138  0.00  0.00    +0.000 HD
BRANCH  23  25
ATOM     25  S   UNL     1       0.779   9.440  21.561  0.00  0.00    +0.000 S 
ATOM     26  C   UNL     1       0.386  11.143  21.233  0.00  0.00    +0.000 C 
ATOM     27  O   UNL     1      -0.443   8.672  21.624  0.00  0.00    +0.000 OA
ATOM     28  O   UNL     1       1.737   9.420  22.644  0.00  0.00    +0.000 OA
ENDBRANCH  23  25
ENDBRANCH  20  23
ENDBRANCH  16  17
BRANCH  16  29
ATOM     29  O   UNL     1       0.869   2.850  19.141  0.00  0.00    +0.000 OA
ATOM     30  H   UNL     1       0.998   2.163  19.819  0.00  0.00    +0.000 HD
ENDBRANCH  16  29
ENDBRANCH   1  16
TORSDOF 15
ENDMDL
MODEL 6
REMARK VINA RESULT:      -5.7      6.449      9.256
REMARK  Name = 
REMARK  18 active torsions:
REMARK  status: ('A' for Active; 'I' for Inactive)
REMARK    1  A    between atoms: C_1  and  C_2
REMARK    2  A    between atoms: C_2  and  N_3
REMARK    3  A    between atoms: N_3  and  C_4
REMARK    4  A    between atoms: N_3  and  C_13
REMARK    5  A    between atoms: C_4  and  C_5
REMARK    6  A    between atoms: C_5  and  C_6
REMARK    7  A    between atoms: C_6  and  C_7
REMARK    8  A    between atoms: C_7  and  C_8
REMARK    9  A    between atoms: C_8  and  C_9
REMARK   10  A    between atoms: C_9  and  C_10
REMARK   11  A    between atoms: C_13  and  C_14
REMARK   12  A    between atoms: C_14  and  C_15
REMARK   13  A    between atoms: C_15  and  C_16
REMARK   14  A    between atoms: C_16  and  O_17
REMARK   15  A    between atoms: C_16  and  C_18
REMARK   16  A    between atoms: C_21  and  N_22
REMARK   17  A    between atoms: N_22  and  S_23
REMARK   18  A    between atoms: S_23  and  C_24
REMARK                            x       y       z     vdW  Elec       q    Type
REMARK                         _______ _______ _______ _____ _____    ______ ____
ROOT
ATOM      1  C   UNL     1       7.978   7.631  18.078  0.00  0.00    +0.000 C 
ENDROOT
BRANCH   1   2
ATOM      2  C   UNL     1       8.233   9.140  18.042  0.00  0.00    +0.000 C 
BRANCH   2   3
ATOM      3  C   UNL     1       9.136   9.587  19.199  0.00  0.00    +0.000 C 
BRANCH   3   4
ATOM      4  N   UNL     1       9.286  11.053  19.350  0.00  0.00    +0.000 NA
BRANCH   4   6
ATOM      5  C   UNL     1       8.808  12.475  21.406  0.00  0.00    +0.000 C 
ATOM      6  C   UNL     1       9.652  11.391  20.741  0.00  0.00    +0.000 C 
ENDBRANCH   4   6
BRANCH   4   7
ATOM      7  C   UNL     1      10.261  11.569  18.370  0.00  0.00    +0.000 C 
BRANCH   7   8
ATOM      8  C   UNL     1       9.710  12.684  17.453  0.00  0.00    +0.000 C 
BRANCH   8   9
ATOM      9  C   UNL     1       8.202  12.945  17.592  0.00  0.00    +0.000 C 
BRANCH   9  10
ATOM     10  C   UNL     1       7.925  14.401  17.958  0.00  0.00    +0.000 C 
BRANCH  10  11
ATOM     11  C   UNL     1       6.460  14.801  17.789  0.00  0.00    +0.000 C 
BRANCH  11  12
ATOM     12  C   UNL     1       5.941  15.406  19.089  0.00  0.00    +0.000 C 
ATOM     13  C   UNL     1       7.020  15.634  20.123  0.00  0.00    +0.000 C 
ATOM     14  F   UNL     1       5.332  16.592  18.831  0.00  0.00    +0.000 F 
ATOM     15  F   UNL     1       4.994  14.589  19.620  0.00  0.00    +0.000 F 
ENDBRANCH  11  12
ENDBRANCH  10  11
ENDBRANCH   9  10
ENDBRANCH   8   9
ENDBRANCH   7   8
ENDBRANCH   4   7
ENDBRANCH   3   4
ENDBRANCH   2   3
ENDBRANCH   1   2
BRANCH   1  16
ATOM     16  C   UNL     1       6.914   7.189  17.068  0.00  0.00    +0.000 C 
BRANCH  16  17
ATOM     17  C   UNL     1       5.743   6.426  17.662  0.00  0.00    +0.000 A 
ATOM     18  C   UNL     1       4.405   6.705  17.343  0.00  0.00    +0.000 A 
ATOM     19  C   UNL     1       3.366   5.957  17.897  0.00  0.00    +0.000 A 
ATOM     20  C   UNL     1       3.645   4.930  18.790  0.00  0.00    +0.000 A 
ATOM     21  C   UNL     1       4.967   4.633  19.124  0.00  0.00    +0.000 A 
ATOM     22  C   UNL     1       6.006   5.378  18.564  0.00  0.00    +0.000 A 
BRANCH  20  23
ATOM     23  N   UNL     1       2.565   4.169  19.309  0.00  0.00    +0.000 N 
ATOM     24  H   UNL     1       2.664   3.866  20.281  0.00  0.00    +0.000 HD
BRANCH  23  25
ATOM     25  S   UNL     1       1.993   2.892  18.363  0.00  0.00    +0.000 S 
ATOM     26  C   UNL     1       3.255   1.666  18.629  0.00  0.00    +0.000 C 
ATOM     27  O   UNL     1       0.737   2.402  18.880  0.00  0.00    +0.000 OA
ATOM     28  O   UNL     1       2.119   3.348  16.995  0.00  0.00    +0.000 OA
ENDBRANCH  23  25
ENDBRANCH  20  23
ENDBRANCH  16  17
BRANCH  16  29
ATOM     29  O   UNL     1       7.541   6.364  16.084  0.00  0.00    +0.000 OA
ATOM     30  H   UNL     1       8.418   6.748  15.915  0.00  0.00    +0.000 HD
ENDBRANCH  16  29
ENDBRANCH   1  16
TORSDOF 15
ENDMDL
MODEL 7
REMARK VINA RESULT:      -5.7      6.633      7.416
REMARK  Name = 
REMARK  18 active torsions:
REMARK  status: ('A' for Active; 'I' for Inactive)
REMARK    1  A    between atoms: C_1  and  C_2
REMARK    2  A    between atoms: C_2  and  N_3
REMARK    3  A    between atoms: N_3  and  C_4
REMARK    4  A    between atoms: N_3  and  C_13
REMARK    5  A    between atoms: C_4  and  C_5
REMARK    6  A    between atoms: C_5  and  C_6
REMARK    7  A    between atoms: C_6  and  C_7
REMARK    8  A    between atoms: C_7  and  C_8
REMARK    9  A    between atoms: C_8  and  C_9
REMARK   10  A    between atoms: C_9  and  C_10
REMARK   11  A    between atoms: C_13  and  C_14
REMARK   12  A    between atoms: C_14  and  C_15
REMARK   13  A    between atoms: C_15  and  C_16
REMARK   14  A    between atoms: C_16  and  O_17
REMARK   15  A    between atoms: C_16  and  C_18
REMARK   16  A    between atoms: C_21  and  N_22
REMARK   17  A    between atoms: N_22  and  S_23
REMARK   18  A    between atoms: S_23  and  C_24
REMARK                            x       y       z     vdW  Elec       q    Type
REMARK                         _______ _______ _______ _____ _____    ______ ____
ROOT
ATOM      1  C   UNL     1       8.320   8.703  17.518  0.00  0.00    +0.000 C 
ENDROOT
BRANCH   1   2
ATOM      2  C   UNL     1       7.188   7.722  17.832  0.00  0.00    +0.000 C 
BRANCH   2   3
ATOM      3  C   UNL     1       7.171   6.548  16.846  0.00  0.00    +0.000 C 
BRANCH   3   4
ATOM      4  N   UNL     1       5.877   5.834  16.741  0.00  0.00    +0.000 NA
BRANCH   4   6
ATOM      5  C   UNL     1       6.203   3.885  15.136  0.00  0.00    +0.000 C 
ATOM      6  C   UNL     1       6.103   4.383  16.576  0.00  0.00    +0.000 C 
ENDBRANCH   4   6
BRANCH   4   7
ATOM      7  C   UNL     1       5.029   6.142  17.908  0.00  0.00    +0.000 C 
BRANCH   7   8
ATOM      8  C   UNL     1       3.688   6.825  17.556  0.00  0.00    +0.000 C 
BRANCH   8   9
ATOM      9  C   UNL     1       2.458   6.228  18.258  0.00  0.00    +0.000 C 
BRANCH   9  10
ATOM     10  C   UNL     1       2.870   5.276  19.378  0.00  0.00    +0.000 C 
BRANCH  10  11
ATOM     11  C   UNL     1       2.312   3.863  19.209  0.00  0.00    +0.000 C 
BRANCH  11  12
ATOM     12  C   UNL     1       1.262   3.595  20.282  0.00  0.00    +0.000 C 
ATOM     13  C   UNL     1       1.811   2.886  21.500  0.00  0.00    +0.000 C 
ATOM     14  F   UNL     1       0.705   4.768  20.680  0.00  0.00    +0.000 F 
ATOM     15  F   UNL     1       0.259   2.845  19.756  0.00  0.00    +0.000 F 
ENDBRANCH  11  12
ENDBRANCH  10  11
ENDBRANCH   9  10
ENDBRANCH   8   9
ENDBRANCH   7   8
ENDBRANCH   4   7
ENDBRANCH   3   4
ENDBRANCH   2   3
ENDBRANCH   1   2
BRANCH   1  16
ATOM     16  C   UNL     1       8.459   9.802  18.577  0.00  0.00    +0.000 C 
BRANCH  16  17
ATOM     17  C   UNL     1       9.077  11.097  18.081  0.00  0.00    +0.000 A 
ATOM     18  C   UNL     1       8.320  12.237  17.766  0.00  0.00    +0.000 A 
ATOM     19  C   UNL     1       8.939  13.412  17.338  0.00  0.00    +0.000 A 
ATOM     20  C   UNL     1      10.321  13.462  17.200  0.00  0.00    +0.000 A 
ATOM     21  C   UNL     1      11.095  12.342  17.507  0.00  0.00    +0.000 A 
ATOM     22  C   UNL     1      10.476  11.169  17.941  0.00  0.00    +0.000 A 
BRANCH  20  23
ATOM     23  N   UNL     1      10.919  14.683  16.793  0.00  0.00    +0.000 N 
ATOM     24  H   UNL     1      11.768  14.593  16.231  0.00  0.00    +0.000 HD
BRANCH  23  25
ATOM     25  S   UNL     1      11.133  15.872  17.975  0.00  0.00    +0.000 S 
ATOM     26  C   UNL     1       9.736  16.930  17.665  0.00  0.00    +0.000 C 
ATOM     27  O   UNL     1      11.013  15.299  19.296  0.00  0.00    +0.000 OA
ATOM     28  O   UNL     1      12.319  16.597  17.572  0.00  0.00    +0.000 OA
ENDBRANCH  23  25
ENDBRANCH  20  23
ENDBRANCH  16  17
BRANCH  16  29
ATOM     29  O   UNL     1       9.259   9.300  19.648  0.00  0.00    +0.000 OA
ATOM     30  H   UNL     1       8.889   8.433  19.892  0.00  0.00    +0.000 HD
ENDBRANCH  16  29
ENDBRANCH   1  16
TORSDOF 15
ENDMDL
MODEL 8
REMARK VINA RESULT:      -5.7      2.844      4.411
REMARK  Name = 
REMARK  18 active torsions:
REMARK  status: ('A' for Active; 'I' for Inactive)
REMARK    1  A    between atoms: C_1  and  C_2
REMARK    2  A    between atoms: C_2  and  N_3
REMARK    3  A    between atoms: N_3  and  C_4
REMARK    4  A    between atoms: N_3  and  C_13
REMARK    5  A    between atoms: C_4  and  C_5
REMARK    6  A    between atoms: C_5  and  C_6
REMARK    7  A    between atoms: C_6  and  C_7
REMARK    8  A    between atoms: C_7  and  C_8
REMARK    9  A    between atoms: C_8  and  C_9
REMARK   10  A    between atoms: C_9  and  C_10
REMARK   11  A    between atoms: C_13  and  C_14
REMARK   12  A    between atoms: C_14  and  C_15
REMARK   13  A    between atoms: C_15  and  C_16
REMARK   14  A    between atoms: C_16  and  O_17
REMARK   15  A    between atoms: C_16  and  C_18
REMARK   16  A    between atoms: C_21  and  N_22
REMARK   17  A    between atoms: N_22  and  S_23
REMARK   18  A    between atoms: S_23  and  C_24
REMARK                            x       y       z     vdW  Elec       q    Type
REMARK                         _______ _______ _______ _____ _____    ______ ____
ROOT
ATOM      1  C   UNL     1       1.907   6.998  18.249  0.00  0.00    +0.000 C 
ENDROOT
BRANCH   1   2
ATOM      2  C   UNL     1       2.504   6.084  19.322  0.00  0.00    +0.000 C 
BRANCH   2   3
ATOM      3  C   UNL     1       2.316   4.603  18.968  0.00  0.00    +0.000 C 
BRANCH   3   4
ATOM      4  N   UNL     1       3.356   3.692  19.501  0.00  0.00    +0.000 NA
BRANCH   4   6
ATOM      5  C   UNL     1       2.127   2.982  21.613  0.00  0.00    +0.000 C 
ATOM      6  C   UNL     1       2.734   2.593  20.267  0.00  0.00    +0.000 C 
ENDBRANCH   4   6
BRANCH   4   7
ATOM      7  C   UNL     1       4.212   3.199  18.404  0.00  0.00    +0.000 C 
BRANCH   7   8
ATOM      8  C   UNL     1       3.948   3.876  17.039  0.00  0.00    +0.000 C 
BRANCH   8   9
ATOM      9  C   UNL     1       5.211   4.344  16.299  0.00  0.00    +0.000 C 
BRANCH   9  10
ATOM     10  C   UNL     1       5.186   5.851  16.062  0.00  0.00    +0.000 C 
BRANCH  10  11
ATOM     11  C   UNL     1       5.532   6.667  17.307  0.00  0.00    +0.000 C 
BRANCH  11  12
ATOM     12  C   UNL     1       7.047   6.761  17.453  0.00  0.00    +0.000 C 
ATOM     13  C   UNL     1       7.597   5.940  18.597  0.00  0.00    +0.000 C 
ATOM     14  F   UNL     1       7.643   6.353  16.302  0.00  0.00    +0.000 F 
ATOM     15  F   UNL     1       7.404   8.059  17.636  0.00  0.00    +0.000 F 
ENDBRANCH  11  12
ENDBRANCH  10  11
ENDBRANCH   9  10
ENDBRANCH   8   9
ENDBRANCH   7   8
ENDBRANCH   4   7
ENDBRANCH   3   4
ENDBRANCH   2   3
ENDBRANCH   1   2
BRANCH   1  16
ATOM     16  C   UNL     1       2.293   8.468  18.445  0.00  0.00    +0.000 C 
BRANCH  16  17
ATOM     17  C   UNL     1       1.301   9.290  19.248  0.00  0.00    +0.000 A 
ATOM     18  C   UNL     1       1.056   9.077  20.614  0.00  0.00    +0.000 A 
ATOM     19  C   UNL     1       0.152   9.878  21.313  0.00  0.00    +0.000 A 
ATOM     20  C   UNL     1      -0.533  10.892  20.657  0.00  0.00    +0.000 A 
ATOM     21  C   UNL     1      -0.307  11.124  19.299  0.00  0.00    +0.000 A 
ATOM     22  C   UNL     1       0.602  10.327  18.602  0.00  0.00    +0.000 A 
BRANCH  20  23
ATOM     23  N   UNL     1      -1.421  11.707  21.406  0.00  0.00    +0.000 N 
ATOM     24  H   UNL     1      -2.389  11.724  21.078  0.00  0.00    +0.000 HD
BRANCH  23  25
ATOM     25  S   UNL     1      -0.909  13.275  21.772  0.00  0.00    +0.000 S 
ATOM     26  C   UNL     1      -1.709  13.549  23.337  0.00  0.00    +0.000 C 
ATOM     27  O   UNL     1       0.523  13.309  21.957  0.00  0.00    +0.000 OA
ATOM     28  O   UNL     1      -1.564  14.124  20.800  0.00  0.00    +0.000 OA
ENDBRANCH  23  25
ENDBRANCH  20  23
ENDBRANCH  16  17
BRANCH  16  29
ATOM     29  O   UNL     1       2.444   9.070  17.159  0.00  0.00    +0.000 OA
ATOM     30  H   UNL     1       1.926   9.894  17.173  0.00  0.00    +0.000 HD
ENDBRANCH  16  29
ENDBRANCH   1  16
TORSDOF 15
ENDMDL
MODEL 9
REMARK VINA RESULT:      -5.6      2.267      3.425
REMARK  Name = 
REMARK  18 active torsions:
REMARK  status: ('A' for Active; 'I' for Inactive)
REMARK    1  A    between atoms: C_1  and  C_2
REMARK    2  A    between atoms: C_2  and  N_3
REMARK    3  A    between atoms: N_3  and  C_4
REMARK    4  A    between atoms: N_3  and  C_13
REMARK    5  A    between atoms: C_4  and  C_5
REMARK    6  A    between atoms: C_5  and  C_6
REMARK    7  A    between atoms: C_6  and  C_7
REMARK    8  A    between atoms: C_7  and  C_8
REMARK    9  A    between atoms: C_8  and  C_9
REMARK   10  A    between atoms: C_9  and  C_10
REMARK   11  A    between atoms: C_13  and  C_14
REMARK   12  A    between atoms: C_14  and  C_15
REMARK   13  A    between atoms: C_15  and  C_16
REMARK   14  A    between atoms: C_16  and  O_17
REMARK   15  A    between atoms: C_16  and  C_18
REMARK   16  A    between atoms: C_21  and  N_22
REMARK   17  A    between atoms: N_22  and  S_23
REMARK   18  A    between atoms: S_23  and  C_24
REMARK                            x       y       z     vdW  Elec       q    Type
REMARK                         _______ _______ _______ _____ _____    ______ ____
ROOT
ATOM      1  C   UNL     1       1.546   8.334  19.800  0.00  0.00    +0.000 C 
ENDROOT
BRANCH   1   2
ATOM      2  C   UNL     1       2.335   7.034  19.624  0.00  0.00    +0.000 C 
BRANCH   2   3
ATOM      3  C   UNL     1       2.777   6.836  18.169  0.00  0.00    +0.000 C 
BRANCH   3   4
ATOM      4  N   UNL     1       3.961   5.964  17.984  0.00  0.00    +0.000 NA
BRANCH   4   6
ATOM      5  C   UNL     1       6.085   5.403  19.269  0.00  0.00    +0.000 C 
ATOM      6  C   UNL     1       4.580   5.655  19.290  0.00  0.00    +0.000 C 
ENDBRANCH   4   6
BRANCH   4   7
ATOM      7  C   UNL     1       3.587   4.748  17.237  0.00  0.00    +0.000 C 
BRANCH   7   8
ATOM      8  C   UNL     1       3.314   3.514  18.127  0.00  0.00    +0.000 C 
BRANCH   8   9
ATOM      9  C   UNL     1       2.224   2.568  17.598  0.00  0.00    +0.000 C 
BRANCH   9  10
ATOM     10  C   UNL     1       1.202   2.243  18.684  0.00  0.00    +0.000 C 
BRANCH  10  11
ATOM     11  C   UNL     1       1.012   3.372  19.696  0.00  0.00    +0.000 C 
BRANCH  11  12
ATOM     12  C   UNL     1       1.655   2.984  21.024  0.00  0.00    +0.000 C 
ATOM     13  C   UNL     1       2.416   4.113  21.680  0.00  0.00    +0.000 C 
ATOM     14  F   UNL     1       0.699   2.549  21.885  0.00  0.00    +0.000 F 
ATOM     15  F   UNL     1       2.504   1.942  20.827  0.00  0.00    +0.000 F 
ENDBRANCH  11  12
ENDBRANCH  10  11
ENDBRANCH   9  10
ENDBRANCH   8   9
ENDBRANCH   7   8
ENDBRANCH   4   7
ENDBRANCH   3   4
ENDBRANCH   2   3
ENDBRANCH   1   2
BRANCH   1  16
ATOM     16  C   UNL     1       0.897   8.448  21.183  0.00  0.00    +0.000 C 
BRANCH  16  17
ATOM     17  C   UNL     1       0.050   9.690  21.395  0.00  0.00    +0.000 A 
ATOM     18  C   UNL     1      -0.383  10.512  20.342  0.00  0.00    +0.000 A 
ATOM     19  C   UNL     1      -1.181  11.629  20.587  0.00  0.00    +0.000 A 
ATOM     20  C   UNL     1      -1.546  11.953  21.888  0.00  0.00    +0.000 A 
ATOM     21  C   UNL     1      -1.129  11.152  22.952  0.00  0.00    +0.000 A 
ATOM     22  C   UNL     1      -0.335  10.031  22.705  0.00  0.00    +0.000 A 
BRANCH  20  23
ATOM     23  N   UNL     1      -2.386  13.078  22.097  0.00  0.00    +0.000 N 
ATOM     24  H   UNL     1      -2.020  13.791  22.732  0.00  0.00    +0.000 HD
BRANCH  23  25
ATOM     25  S   UNL     1      -4.011  12.776  22.446  0.00  0.00    +0.000 S 
ATOM     26  C   UNL     1      -4.636  14.427  22.666  0.00  0.00    +0.000 C 
ATOM     27  O   UNL     1      -4.667  12.166  21.314  0.00  0.00    +0.000 OA
ATOM     28  O   UNL     1      -4.008  12.141  23.747  0.00  0.00    +0.000 OA
ENDBRANCH  23  25
ENDBRANCH  20  23
ENDBRANCH  16  17
BRANCH  16  29
ATOM     29  O   UNL     1       1.931   8.431  22.170  0.00  0.00    +0.000 OA
ATOM     30  H   UNL     1       2.618   9.050  21.865  0.00  0.00    +0.000 HD
ENDBRANCH  16  29
ENDBRANCH   1  16
TORSDOF 15
ENDMDL
