MODEL 1
REMARK VINA RESULT:      -9.4      0.000      0.000
REMARK  Name = 
REMARK  6 active torsions:
REMARK  status: ('A' for Active; 'I' for Inactive)
REMARK    1  A    between atoms: C_1  and  C_2
REMARK    2  A    between atoms: C_2  and  C_4
REMARK    3  A    between atoms: C_7  and  N_8
REMARK    4  A    between atoms: C_9  and  C_11
REMARK    5  A    between atoms: C_11  and  C_12
REMARK    6  A    between atoms: N_15  and  N_16
REMARK                            x       y       z     vdW  Elec       q    Type
REMARK                         _______ _______ _______ _____ _____    ______ ____
ROOT
ATOM      1  C   UNL     1       7.395   6.149  17.127  0.00  0.00    +0.000 C 
ATOM      2  S   UNL     1       5.724   6.437  16.449  0.00  0.00    +0.000 S 
ATOM      3  C   UNL     1       5.307   4.763  16.721  0.00  0.00    +0.000 C 
ATOM      4  N   UNL     1       4.005   4.447  16.429  0.00  0.00    +0.000 N 
ATOM      5  N   UNL     1       6.241   4.003  17.186  0.00  0.00    +0.000 NA
ATOM      6  C   UNL     1       7.435   4.650  17.366  0.00  0.00    +0.000 C 
ATOM      7  O   UNL     1       8.466   4.091  17.731  0.00  0.00    +0.000 OA
ATOM      8  H   UNL     1       3.477   5.235  16.064  0.00  0.00    +0.000 HD
ENDROOT
BRANCH   4   9
ATOM      9  N   UNL     1       3.350   3.399  16.996  0.00  0.00    +0.000 NA
ATOM     10  C   UNL     1       2.391   3.603  17.850  0.00  0.00    +0.000 C 
ATOM     11  C   UNL     1       1.842   4.947  18.293  0.00  0.00    +0.000 C 
ATOM     12  C   UNL     1       1.993   5.169  19.797  0.00  0.00    +0.000 C 
ATOM     13  C   UNL     1       1.001   4.341  20.615  0.00  0.00    +0.000 C 
ATOM     14  C   UNL     1       1.459   2.923  20.956  0.00  0.00    +0.000 C 
ATOM     15  C   UNL     1       2.260   2.170  19.894  0.00  0.00    +0.000 C 
ATOM     16  C   UNL     1       1.760   2.364  18.468  0.00  0.00    +0.000 C 
ENDBRANCH   4   9
BRANCH   1  17
ATOM     17  C   UNL     1       7.645   6.884  18.445  0.00  0.00    +0.000 C 
BRANCH  17  19
ATOM     18  N   UNL     1       8.953   8.805  19.148  0.00  0.00    +0.000 N 
ATOM     19  C   UNL     1       8.087   8.306  18.186  0.00  0.00    +0.000 C 
ATOM     20  O   UNL     1       7.724   8.897  17.176  0.00  0.00    +0.000 OA
ATOM     21  H   UNL     1       9.398   8.146  19.775  0.00  0.00    +0.000 HD
BRANCH  18  25
ATOM     22  C   UNL     1      10.294  12.810  19.419  0.00  0.00    +0.000 A 
ATOM     23  C   UNL     1      10.284  12.160  18.185  0.00  0.00    +0.000 A 
ATOM     24  C   UNL     1       9.835  10.841  18.089  0.00  0.00    +0.000 A 
ATOM     25  C   UNL     1       9.391  10.146  19.216  0.00  0.00    +0.000 A 
ATOM     26  C   UNL     1       9.358  10.811  20.447  0.00  0.00    +0.000 A 
ATOM     27  C   UNL     1       9.821  12.131  20.550  0.00  0.00    +0.000 A 
BRANCH  22  29
ATOM     28  C   UNL     1       9.802  15.322  19.751  0.00  0.00    +0.000 C 
ATOM     29  C   UNL     1      10.800  14.209  19.555  0.00  0.00    +0.000 C 
ATOM     30  O   UNL     1      12.008  14.429  19.517  0.00  0.00    +0.000 OA
ENDBRANCH  22  29
ENDBRANCH  18  25
ENDBRANCH  17  19
ENDBRANCH   1  17
TORSDOF 5
ENDMDL
MODEL 2
REMARK VINA RESULT:      -8.9      0.611      1.101
REMARK  Name = 
REMARK  6 active torsions:
REMARK  status: ('A' for Active; 'I' for Inactive)
REMARK    1  A    between atoms: C_1  and  C_2
REMARK    2  A    between atoms: C_2  and  C_4
REMARK    3  A    between atoms: C_7  and  N_8
REMARK    4  A    between atoms: C_9  and  C_11
REMARK    5  A    between atoms: C_11  and  C_12
REMARK    6  A    between atoms: N_15  and  N_16
REMARK                            x       y       z     vdW  Elec       q    Type
REMARK                         _______ _______ _______ _____ _____    ______ ____
ROOT
ATOM      1  C   UNL     1       7.399   6.038  17.189  0.00  0.00    +0.000 C 
ATOM      2  S   UNL     1       5.726   6.274  16.493  0.00  0.00    +0.000 S 
ATOM      3  C   UNL     1       5.331   4.607  16.835  0.00  0.00    +0.000 C 
ATOM      4  N   UNL     1       4.034   4.262  16.552  0.00  0.00    +0.000 N 
ATOM      5  N   UNL     1       6.273   3.881  17.336  0.00  0.00    +0.000 NA
ATOM      6  C   UNL     1       7.457   4.551  17.493  0.00  0.00    +0.000 C 
ATOM      7  O   UNL     1       8.494   4.023  17.885  0.00  0.00    +0.000 OA
ATOM      8  H   UNL     1       3.498   5.026  16.152  0.00  0.00    +0.000 HD
ENDROOT
BRANCH   4   9
ATOM      9  N   UNL     1       3.391   3.230  17.161  0.00  0.00    +0.000 NA
ATOM     10  C   UNL     1       2.401   3.456  17.973  0.00  0.00    +0.000 C 
ATOM     11  C   UNL     1       1.802   4.807  18.319  0.00  0.00    +0.000 C 
ATOM     12  C   UNL     1       1.900   5.122  19.811  0.00  0.00    +0.000 C 
ATOM     13  C   UNL     1       0.906   4.315  20.647  0.00  0.00    +0.000 C 
ATOM     14  C   UNL     1       1.392   2.933  21.086  0.00  0.00    +0.000 C 
ATOM     15  C   UNL     1       2.246   2.142  20.094  0.00  0.00    +0.000 C 
ATOM     16  C   UNL     1       1.785   2.237  18.645  0.00  0.00    +0.000 C 
ENDBRANCH   4   9
BRANCH   1  17
ATOM     17  C   UNL     1       7.633   6.832  18.475  0.00  0.00    +0.000 C 
BRANCH  17  19
ATOM     18  N   UNL     1       8.787   8.826  19.243  0.00  0.00    +0.000 N 
ATOM     19  C   UNL     1       8.178   8.206  18.161  0.00  0.00    +0.000 C 
ATOM     20  O   UNL     1       8.107   8.659  17.025  0.00  0.00    +0.000 OA
ATOM     21  H   UNL     1       9.032   8.255  20.042  0.00  0.00    +0.000 HD
BRANCH  18  25
ATOM     22  C   UNL     1      10.091  12.852  19.222  0.00  0.00    +0.000 A 
ATOM     23  C   UNL     1      10.283  12.063  20.356  0.00  0.00    +0.000 A 
ATOM     24  C   UNL     1       9.862  10.731  20.365  0.00  0.00    +0.000 A 
ATOM     25  C   UNL     1       9.242  10.163  19.250  0.00  0.00    +0.000 A 
ATOM     26  C   UNL     1       9.089  10.940  18.096  0.00  0.00    +0.000 A 
ATOM     27  C   UNL     1       9.498  12.281  18.088  0.00  0.00    +0.000 A 
BRANCH  22  29
ATOM     28  C   UNL     1      11.703  14.681  18.374  0.00  0.00    +0.000 C 
ATOM     29  C   UNL     1      10.502  14.287  19.198  0.00  0.00    +0.000 C 
ATOM     30  O   UNL     1       9.858  15.120  19.831  0.00  0.00    +0.000 OA
ENDBRANCH  22  29
ENDBRANCH  18  25
ENDBRANCH  17  19
ENDBRANCH   1  17
TORSDOF 5
ENDMDL
MODEL 3
REMARK VINA RESULT:      -8.0      7.111     10.002
REMARK  Name = 
REMARK  6 active torsions:
REMARK  status: ('A' for Active; 'I' for Inactive)
REMARK    1  A    between atoms: C_1  and  C_2
REMARK    2  A    between atoms: C_2  and  C_4
REMARK    3  A    between atoms: C_7  and  N_8
REMARK    4  A    between atoms: C_9  and  C_11
REMARK    5  A    between atoms: C_11  and  C_12
REMARK    6  A    between atoms: N_15  and  N_16
REMARK                            x       y       z     vdW  Elec       q    Type
REMARK                         _______ _______ _______ _____ _____    ______ ____
ROOT
ATOM      1  C   UNL     1       1.516   8.579  20.889  0.00  0.00    +0.000 C 
ATOM      2  S   UNL     1       1.244   9.147  22.603  0.00  0.00    +0.000 S 
ATOM      3  C   UNL     1      -0.021  10.223  22.064  0.00  0.00    +0.000 C 
ATOM      4  N   UNL     1      -0.670  10.887  23.073  0.00  0.00    +0.000 N 
ATOM      5  N   UNL     1      -0.236  10.271  20.793  0.00  0.00    +0.000 NA
ATOM      6  C   UNL     1       0.603   9.469  20.064  0.00  0.00    +0.000 C 
ATOM      7  O   UNL     1       0.610   9.425  18.837  0.00  0.00    +0.000 OA
ATOM      8  H   UNL     1      -0.295  10.676  23.993  0.00  0.00    +0.000 HD
ENDROOT
BRANCH   4   9
ATOM      9  N   UNL     1      -1.938  11.363  22.953  0.00  0.00    +0.000 NA
ATOM     10  C   UNL     1      -2.165  12.644  22.938  0.00  0.00    +0.000 C 
ATOM     11  C   UNL     1      -1.127  13.749  23.001  0.00  0.00    +0.000 C 
ATOM     12  C   UNL     1      -1.315  14.655  24.218  0.00  0.00    +0.000 C 
ATOM     13  C   UNL     1      -2.509  15.598  24.067  0.00  0.00    +0.000 C 
ATOM     14  C   UNL     1      -3.856  15.023  24.507  0.00  0.00    +0.000 C 
ATOM     15  C   UNL     1      -4.116  13.544  24.216  0.00  0.00    +0.000 C 
ATOM     16  C   UNL     1      -3.623  13.071  22.854  0.00  0.00    +0.000 C 
ENDBRANCH   4   9
BRANCH   1  17
ATOM     17  C   UNL     1       1.133   7.114  20.672  0.00  0.00    +0.000 C 
BRANCH  17  19
ATOM     18  N   UNL     1       2.624   6.918  18.766  0.00  0.00    +0.000 N 
ATOM     19  C   UNL     1       2.252   6.368  19.983  0.00  0.00    +0.000 C 
ATOM     20  O   UNL     1       2.779   5.401  20.521  0.00  0.00    +0.000 OA
ATOM     21  H   UNL     1       2.318   7.861  18.557  0.00  0.00    +0.000 HD
BRANCH  18  25
ATOM     22  C   UNL     1       5.412   5.198  16.086  0.00  0.00    +0.000 A 
ATOM     23  C   UNL     1       4.437   4.400  16.684  0.00  0.00    +0.000 A 
ATOM     24  C   UNL     1       3.509   4.965  17.563  0.00  0.00    +0.000 A 
ATOM     25  C   UNL     1       3.537   6.329  17.863  0.00  0.00    +0.000 A 
ATOM     26  C   UNL     1       4.486   7.138  17.230  0.00  0.00    +0.000 A 
ATOM     27  C   UNL     1       5.428   6.573  16.357  0.00  0.00    +0.000 A 
BRANCH  22  29
ATOM     28  C   UNL     1       5.967   3.860  13.950  0.00  0.00    +0.000 C 
ATOM     29  C   UNL     1       6.436   4.614  15.169  0.00  0.00    +0.000 C 
ATOM     30  O   UNL     1       7.631   4.765  15.410  0.00  0.00    +0.000 OA
ENDBRANCH  22  29
ENDBRANCH  18  25
ENDBRANCH  17  19
ENDBRANCH   1  17
TORSDOF 5
ENDMDL
MODEL 4
REMARK VINA RESULT:      -8.0      7.124     10.192
REMARK  Name = 
REMARK  6 active torsions:
REMARK  status: ('A' for Active; 'I' for Inactive)
REMARK    1  A    between atoms: C_1  and  C_2
REMARK    2  A    between atoms: C_2  and  C_4
REMARK    3  A    between atoms: C_7  and  N_8
REMARK    4  A    between atoms: C_9  and  C_11
REMARK    5  A    between atoms: C_11  and  C_12
REMARK    6  A    between atoms: N_15  and  N_16
REMARK                            x       y       z     vdW  Elec       q    Type
REMARK                         _______ _______ _______ _____ _____    ______ ____
ROOT
ATOM      1  C   UNL     1       0.407  10.776  21.093  0.00  0.00    +0.000 C 
ATOM      2  S   UNL     1       1.221   9.810  19.774  0.00  0.00    +0.000 S 
ATOM      3  C   UNL     1       1.374   8.441  20.848  0.00  0.00    +0.000 C 
ATOM      4  N   UNL     1       1.897   7.316  20.263  0.00  0.00    +0.000 N 
ATOM      5  N   UNL     1       0.965   8.609  22.060  0.00  0.00    +0.000 NA
ATOM      6  C   UNL     1       0.494   9.870  22.310  0.00  0.00    +0.000 C 
ATOM      7  O   UNL     1       0.125  10.256  23.417  0.00  0.00    +0.000 OA
ATOM      8  H   UNL     1       2.149   7.455  19.289  0.00  0.00    +0.000 HD
ENDROOT
BRANCH   4   9
ATOM      9  N   UNL     1       1.661   6.060  20.728  0.00  0.00    +0.000 NA
ATOM     10  C   UNL     1       2.201   5.028  20.150  0.00  0.00    +0.000 C 
ATOM     11  C   UNL     1       3.158   5.047  18.972  0.00  0.00    +0.000 C 
ATOM     12  C   UNL     1       2.609   4.288  17.764  0.00  0.00    +0.000 C 
ATOM     13  C   UNL     1       2.657   2.771  17.954  0.00  0.00    +0.000 C 
ATOM     14  C   UNL     1       1.448   2.163  18.665  0.00  0.00    +0.000 C 
ATOM     15  C   UNL     1       0.823   2.972  19.803  0.00  0.00    +0.000 C 
ATOM     16  C   UNL     1       1.829   3.664  20.713  0.00  0.00    +0.000 C 
ENDBRANCH   4   9
BRANCH   1  17
ATOM     17  C   UNL     1      -1.059  11.088  20.792  0.00  0.00    +0.000 C 
BRANCH  17  19
ATOM     18  N   UNL     1      -2.305  10.476  18.800  0.00  0.00    +0.000 N 
ATOM     19  C   UNL     1      -1.274  11.255  19.306  0.00  0.00    +0.000 C 
ATOM     20  O   UNL     1      -0.605  12.057  18.666  0.00  0.00    +0.000 OA
ATOM     21  H   UNL     1      -2.961  10.071  19.457  0.00  0.00    +0.000 HD
BRANCH  18  25
ATOM     22  C   UNL     1      -3.188   9.995  14.689  0.00  0.00    +0.000 A 
ATOM     23  C   UNL     1      -4.027  10.764  15.497  0.00  0.00    +0.000 A 
ATOM     24  C   UNL     1      -3.735  10.932  16.853  0.00  0.00    +0.000 A 
ATOM     25  C   UNL     1      -2.609  10.339  17.428  0.00  0.00    +0.000 A 
ATOM     26  C   UNL     1      -1.743   9.606  16.610  0.00  0.00    +0.000 A 
ATOM     27  C   UNL     1      -2.039   9.423  15.251  0.00  0.00    +0.000 A 
BRANCH  22  29
ATOM     28  C   UNL     1      -4.903  10.008  12.760  0.00  0.00    +0.000 C 
ATOM     29  C   UNL     1      -3.494   9.773  13.245  0.00  0.00    +0.000 C 
ATOM     30  O   UNL     1      -2.603   9.417  12.478  0.00  0.00    +0.000 OA
ENDBRANCH  22  29
ENDBRANCH  18  25
ENDBRANCH  17  19
ENDBRANCH   1  17
TORSDOF 5
ENDMDL
MODEL 5
REMARK VINA RESULT:      -8.0      3.200      8.346
REMARK  Name = 
REMARK  6 active torsions:
REMARK  status: ('A' for Active; 'I' for Inactive)
REMARK    1  A    between atoms: C_1  and  C_2
REMARK    2  A    between atoms: C_2  and  C_4
REMARK    3  A    between atoms: C_7  and  N_8
REMARK    4  A    between atoms: C_9  and  C_11
REMARK    5  A    between atoms: C_11  and  C_12
REMARK    6  A    between atoms: N_15  and  N_16
REMARK                            x       y       z     vdW  Elec       q    Type
REMARK                         _______ _______ _______ _____ _____    ______ ____
ROOT
ATOM      1  C   UNL     1       6.414   4.797  17.434  0.00  0.00    +0.000 C 
ATOM      2  S   UNL     1       6.752   5.875  18.869  0.00  0.00    +0.000 S 
ATOM      3  C   UNL     1       7.633   6.985  17.848  0.00  0.00    +0.000 C 
ATOM      4  N   UNL     1       8.067   8.120  18.485  0.00  0.00    +0.000 N 
ATOM      5  N   UNL     1       7.767   6.650  16.609  0.00  0.00    +0.000 NA
ATOM      6  C   UNL     1       7.204   5.438  16.306  0.00  0.00    +0.000 C 
ATOM      7  O   UNL     1       7.284   4.905  15.202  0.00  0.00    +0.000 OA
ATOM      8  H   UNL     1       7.836   8.133  19.474  0.00  0.00    +0.000 HD
ENDROOT
BRANCH   4   9
ATOM      9  N   UNL     1       8.318   9.287  17.833  0.00  0.00    +0.000 NA
ATOM     10  C   UNL     1       9.015  10.225  18.402  0.00  0.00    +0.000 C 
ATOM     11  C   UNL     1       9.663  10.168  19.774  0.00  0.00    +0.000 C 
ATOM     12  C   UNL     1       9.136  11.253  20.712  0.00  0.00    +0.000 C 
ATOM     13  C   UNL     1       9.675  12.642  20.364  0.00  0.00    +0.000 C 
ATOM     14  C   UNL     1       8.875  13.409  19.311  0.00  0.00    +0.000 C 
ATOM     15  C   UNL     1       8.280  12.601  18.157  0.00  0.00    +0.000 C 
ATOM     16  C   UNL     1       9.193  11.512  17.610  0.00  0.00    +0.000 C 
ENDBRANCH   4   9
BRANCH   1  17
ATOM     17  C   UNL     1       4.934   4.745  17.055  0.00  0.00    +0.000 C 
BRANCH  17  19
ATOM     18  N   UNL     1       3.485   6.129  18.427  0.00  0.00    +0.000 N 
ATOM     19  C   UNL     1       4.277   6.085  17.289  0.00  0.00    +0.000 C 
ATOM     20  O   UNL     1       4.500   7.028  16.538  0.00  0.00    +0.000 OA
ATOM     21  H   UNL     1       3.596   5.391  19.112  0.00  0.00    +0.000 HD
BRANCH  18  25
ATOM     22  C   UNL     1       1.022   9.376  19.569  0.00  0.00    +0.000 A 
ATOM     23  C   UNL     1       1.469   9.270  18.251  0.00  0.00    +0.000 A 
ATOM     24  C   UNL     1       2.276   8.196  17.868  0.00  0.00    +0.000 A 
ATOM     25  C   UNL     1       2.652   7.212  18.786  0.00  0.00    +0.000 A 
ATOM     26  C   UNL     1       2.168   7.293  20.095  0.00  0.00    +0.000 A 
ATOM     27  C   UNL     1       1.368   8.377  20.488  0.00  0.00    +0.000 A 
BRANCH  22  29
ATOM     28  C   UNL     1      -1.000  10.931  19.171  0.00  0.00    +0.000 C 
ATOM     29  C   UNL     1       0.186  10.531  20.012  0.00  0.00    +0.000 C 
ATOM     30  O   UNL     1       0.466  11.126  21.051  0.00  0.00    +0.000 OA
ENDBRANCH  22  29
ENDBRANCH  18  25
ENDBRANCH  17  19
ENDBRANCH   1  17
TORSDOF 5
ENDMDL
MODEL 6
REMARK VINA RESULT:      -7.9      3.196      8.425
REMARK  Name = 
REMARK  6 active torsions:
REMARK  status: ('A' for Active; 'I' for Inactive)
REMARK    1  A    between atoms: C_1  and  C_2
REMARK    2  A    between atoms: C_2  and  C_4
REMARK    3  A    between atoms: C_7  and  N_8
REMARK    4  A    between atoms: C_9  and  C_11
REMARK    5  A    between atoms: C_11  and  C_12
REMARK    6  A    between atoms: N_15  and  N_16
REMARK                            x       y       z     vdW  Elec       q    Type
REMARK                         _______ _______ _______ _____ _____    ______ ____
ROOT
ATOM      1  C   UNL     1       6.382   4.767  17.192  0.00  0.00    +0.000 C 
ATOM      2  S   UNL     1       6.567   5.858  18.645  0.00  0.00    +0.000 S 
ATOM      3  C   UNL     1       7.532   6.971  17.707  0.00  0.00    +0.000 C 
ATOM      4  N   UNL     1       7.891   8.114  18.375  0.00  0.00    +0.000 N 
ATOM      5  N   UNL     1       7.790   6.629  16.490  0.00  0.00    +0.000 NA
ATOM      6  C   UNL     1       7.272   5.409  16.142  0.00  0.00    +0.000 C 
ATOM      7  O   UNL     1       7.464   4.870  15.055  0.00  0.00    +0.000 OA
ATOM      8  H   UNL     1       7.564   8.130  19.337  0.00  0.00    +0.000 HD
ENDROOT
BRANCH   4   9
ATOM      9  N   UNL     1       8.193   9.279  17.743  0.00  0.00    +0.000 NA
ATOM     10  C   UNL     1       8.950  10.167  18.317  0.00  0.00    +0.000 C 
ATOM     11  C   UNL     1       9.620  10.045  19.674  0.00  0.00    +0.000 C 
ATOM     12  C   UNL     1       9.169  11.136  20.644  0.00  0.00    +0.000 C 
ATOM     13  C   UNL     1       9.777  12.501  20.315  0.00  0.00    +0.000 C 
ATOM     14  C   UNL     1       9.000  13.333  19.294  0.00  0.00    +0.000 C 
ATOM     15  C   UNL     1       8.340  12.583  18.135  0.00  0.00    +0.000 C 
ATOM     16  C   UNL     1       9.182  11.458  17.548  0.00  0.00    +0.000 C 
ENDBRANCH   4   9
BRANCH   1  17
ATOM     17  C   UNL     1       4.946   4.697  16.671  0.00  0.00    +0.000 C 
BRANCH  17  19
ATOM     18  N   UNL     1       3.540   6.527  17.425  0.00  0.00    +0.000 N 
ATOM     19  C   UNL     1       3.980   5.240  17.698  0.00  0.00    +0.000 C 
ATOM     20  O   UNL     1       3.613   4.544  18.637  0.00  0.00    +0.000 OA
ATOM     21  H   UNL     1       3.688   6.892  16.493  0.00  0.00    +0.000 HD
BRANCH  18  25
ATOM     22  C   UNL     1       1.229   8.849  20.105  0.00  0.00    +0.000 A 
ATOM     23  C   UNL     1       1.453   9.302  18.805  0.00  0.00    +0.000 A 
ATOM     24  C   UNL     1       2.209   8.536  17.914  0.00  0.00    +0.000 A 
ATOM     25  C   UNL     1       2.754   7.309  18.301  0.00  0.00    +0.000 A 
ATOM     26  C   UNL     1       2.493   6.832  19.589  0.00  0.00    +0.000 A 
ATOM     27  C   UNL     1       1.745   7.605  20.491  0.00  0.00    +0.000 A 
BRANCH  22  29
ATOM     28  C   UNL     1      -0.429   8.950  22.081  0.00  0.00    +0.000 C 
ATOM     29  C   UNL     1       0.452   9.663  21.087  0.00  0.00    +0.000 C 
ATOM     30  O   UNL     1       0.550  10.888  21.079  0.00  0.00    +0.000 OA
ENDBRANCH  22  29
ENDBRANCH  18  25
ENDBRANCH  17  19
ENDBRANCH   1  17
TORSDOF 5
ENDMDL
MODEL 7
REMARK VINA RESULT:      -7.9      3.240      8.496
REMARK  Name = 
REMARK  6 active torsions:
REMARK  status: ('A' for Active; 'I' for Inactive)
REMARK    1  A    between atoms: C_1  and  C_2
REMARK    2  A    between atoms: C_2  and  C_4
REMARK    3  A    between atoms: C_7  and  N_8
REMARK    4  A    between atoms: C_9  and  C_11
REMARK    5  A    between atoms: C_11  and  C_12
REMARK    6  A    between atoms: N_15  and  N_16
REMARK                            x       y       z     vdW  Elec       q    Type
REMARK                         _______ _______ _______ _____ _____    ______ ____
ROOT
ATOM      1  C   UNL     1       6.271   4.921  17.119  0.00  0.00    +0.000 C 
ATOM      2  S   UNL     1       6.458   6.002  18.579  0.00  0.00    +0.000 S 
ATOM      3  C   UNL     1       7.505   7.069  17.675  0.00  0.00    +0.000 C 
ATOM      4  N   UNL     1       7.893   8.194  18.357  0.00  0.00    +0.000 N 
ATOM      5  N   UNL     1       7.786   6.716  16.467  0.00  0.00    +0.000 NA
ATOM      6  C   UNL     1       7.224   5.522  16.100  0.00  0.00    +0.000 C 
ATOM      7  O   UNL     1       7.427   4.975  15.019  0.00  0.00    +0.000 OA
ATOM      8  H   UNL     1       7.536   8.226  19.307  0.00  0.00    +0.000 HD
ENDROOT
BRANCH   4   9
ATOM      9  N   UNL     1       8.269   9.345  17.737  0.00  0.00    +0.000 NA
ATOM     10  C   UNL     1       9.011  10.217  18.354  0.00  0.00    +0.000 C 
ATOM     11  C   UNL     1       9.584  10.091  19.753  0.00  0.00    +0.000 C 
ATOM     12  C   UNL     1       9.100  11.204  20.682  0.00  0.00    +0.000 C 
ATOM     13  C   UNL     1       9.766  12.548  20.383  0.00  0.00    +0.000 C 
ATOM     14  C   UNL     1       9.082  13.390  19.305  0.00  0.00    +0.000 C 
ATOM     15  C   UNL     1       8.482  12.648  18.111  0.00  0.00    +0.000 C 
ATOM     16  C   UNL     1       9.330  11.494  17.591  0.00  0.00    +0.000 C 
ENDBRANCH   4   9
BRANCH   1  17
ATOM     17  C   UNL     1       4.851   4.918  16.551  0.00  0.00    +0.000 C 
BRANCH  17  19
ATOM     18  N   UNL     1       3.493   6.753  17.376  0.00  0.00    +0.000 N 
ATOM     19  C   UNL     1       3.867   5.432  17.575  0.00  0.00    +0.000 C 
ATOM     20  O   UNL     1       3.432   4.691  18.449  0.00  0.00    +0.000 OA
ATOM     21  H   UNL     1       3.694   7.174  16.477  0.00  0.00    +0.000 HD
BRANCH  18  25
ATOM     22  C   UNL     1       1.085   9.035  20.004  0.00  0.00    +0.000 A 
ATOM     23  C   UNL     1       1.674   7.851  20.449  0.00  0.00    +0.000 A 
ATOM     24  C   UNL     1       2.476   7.099  19.588  0.00  0.00    +0.000 A 
ATOM     25  C   UNL     1       2.704   7.508  18.272  0.00  0.00    +0.000 A 
ATOM     26  C   UNL     1       2.151   8.718  17.838  0.00  0.00    +0.000 A 
ATOM     27  C   UNL     1       1.335   9.470  18.696  0.00  0.00    +0.000 A 
BRANCH  22  29
ATOM     28  C   UNL     1      -0.727  10.855  20.267  0.00  0.00    +0.000 C 
ATOM     29  C   UNL     1       0.197   9.841  20.894  0.00  0.00    +0.000 C 
ATOM     30  O   UNL     1       0.223   9.662  22.109  0.00  0.00    +0.000 OA
ENDBRANCH  22  29
ENDBRANCH  18  25
ENDBRANCH  17  19
ENDBRANCH   1  17
TORSDOF 5
ENDMDL
MODEL 8
REMARK VINA RESULT:      -7.9     10.621     13.714
REMARK  Name = 
REMARK  6 active torsions:
REMARK  status: ('A' for Active; 'I' for Inactive)
REMARK    1  A    between atoms: C_1  and  C_2
REMARK    2  A    between atoms: C_2  and  C_4
REMARK    3  A    between atoms: C_7  and  N_8
REMARK    4  A    between atoms: C_9  and  C_11
REMARK    5  A    between atoms: C_11  and  C_12
REMARK    6  A    between atoms: N_15  and  N_16
REMARK                            x       y       z     vdW  Elec       q    Type
REMARK                         _______ _______ _______ _____ _____    ______ ____
ROOT
ATOM      1  C   UNL     1      -6.498  13.952  23.166  0.00  0.00    +0.000 C 
ATOM      2  S   UNL     1      -4.819  14.590  22.838  0.00  0.00    +0.000 S 
ATOM      3  C   UNL     1      -4.119  13.120  23.472  0.00  0.00    +0.000 C 
ATOM      4  N   UNL     1      -2.753  13.051  23.367  0.00  0.00    +0.000 N 
ATOM      5  N   UNL     1      -4.941  12.247  23.946  0.00  0.00    +0.000 NA
ATOM      6  C   UNL     1      -6.252  12.642  23.894  0.00  0.00    +0.000 C 
ATOM      7  O   UNL     1      -7.182  11.988  24.360  0.00  0.00    +0.000 OA
ATOM      8  H   UNL     1      -2.343  13.886  22.960  0.00  0.00    +0.000 HD
ENDROOT
BRANCH   4   9
ATOM      9  N   UNL     1      -2.071  11.875  23.330  0.00  0.00    +0.000 NA
ATOM     10  C   UNL     1      -0.952  11.779  22.674  0.00  0.00    +0.000 C 
ATOM     11  C   UNL     1      -0.241  12.894  21.930  0.00  0.00    +0.000 C 
ATOM     12  C   UNL     1      -0.081  12.589  20.441  0.00  0.00    +0.000 C 
ATOM     13  C   UNL     1       0.995  11.537  20.170  0.00  0.00    +0.000 C 
ATOM     14  C   UNL     1       0.520  10.085  20.237  0.00  0.00    +0.000 C 
ATOM     15  C   UNL     1      -0.521   9.736  21.301  0.00  0.00    +0.000 C 
ATOM     16  C   UNL     1      -0.297  10.407  22.650  0.00  0.00    +0.000 C 
ENDBRANCH   4   9
BRANCH   1  17
ATOM     17  C   UNL     1      -7.300  13.684  21.891  0.00  0.00    +0.000 C 
BRANCH  17  19
ATOM     18  N   UNL     1      -5.631  13.232  20.187  0.00  0.00    +0.000 N 
ATOM     19  C   UNL     1      -6.592  12.675  21.019  0.00  0.00    +0.000 C 
ATOM     20  O   UNL     1      -6.846  11.480  21.116  0.00  0.00    +0.000 OA
ATOM     21  H   UNL     1      -5.315  14.173  20.389  0.00  0.00    +0.000 HD
BRANCH  18  25
ATOM     22  C   UNL     1      -3.520  11.083  17.214  0.00  0.00    +0.000 A 
ATOM     23  C   UNL     1      -4.820  11.523  16.965  0.00  0.00    +0.000 A 
ATOM     24  C   UNL     1      -5.518  12.240  17.940  0.00  0.00    +0.000 A 
ATOM     25  C   UNL     1      -4.938  12.529  19.177  0.00  0.00    +0.000 A 
ATOM     26  C   UNL     1      -3.618  12.127  19.412  0.00  0.00    +0.000 A 
ATOM     27  C   UNL     1      -2.919  11.396  18.441  0.00  0.00    +0.000 A 
BRANCH  22  29
ATOM     28  C   UNL     1      -3.249  10.286  14.774  0.00  0.00    +0.000 C 
ATOM     29  C   UNL     1      -2.764  10.287  16.202  0.00  0.00    +0.000 C 
ATOM     30  O   UNL     1      -1.762   9.660  16.540  0.00  0.00    +0.000 OA
ENDBRANCH  22  29
ENDBRANCH  18  25
ENDBRANCH  17  19
ENDBRANCH   1  17
TORSDOF 5
ENDMDL
MODEL 9
REMARK VINA RESULT:      -7.9     10.086     13.092
REMARK  Name = 
REMARK  6 active torsions:
REMARK  status: ('A' for Active; 'I' for Inactive)
REMARK    1  A    between atoms: C_1  and  C_2
REMARK    2  A    between atoms: C_2  and  C_4
REMARK    3  A    between atoms: C_7  and  N_8
REMARK    4  A    between atoms: C_9  and  C_11
REMARK    5  A    between atoms: C_11  and  C_12
REMARK    6  A    between atoms: N_15  and  N_16
REMARK                            x       y       z     vdW  Elec       q    Type
REMARK                         _______ _______ _______ _____ _____    ______ ____
ROOT
ATOM      1  C   UNL     1      -4.465  14.136  23.937  0.00  0.00    +0.000 C 
ATOM      2  S   UNL     1      -2.800  14.530  23.299  0.00  0.00    +0.000 S 
ATOM      3  C   UNL     1      -2.377  12.836  23.307  0.00  0.00    +0.000 C 
ATOM      4  N   UNL     1      -1.138  12.557  22.790  0.00  0.00    +0.000 N 
ATOM      5  N   UNL     1      -3.266  12.021  23.768  0.00  0.00    +0.000 NA
ATOM      6  C   UNL     1      -4.405  12.643  24.207  0.00  0.00    +0.000 C 
ATOM      7  O   UNL     1      -5.339  12.055  24.746  0.00  0.00    +0.000 OA
ATOM      8  H   UNL     1      -0.631  13.389  22.503  0.00  0.00    +0.000 HD
ENDROOT
BRANCH   4   9
ATOM      9  N   UNL     1      -0.811  11.348  22.258  0.00  0.00    +0.000 NA
ATOM     10  C   UNL     1       0.158  11.245  21.397  0.00  0.00    +0.000 C 
ATOM     11  C   UNL     1       1.057  12.365  20.906  0.00  0.00    +0.000 C 
ATOM     12  C   UNL     1       0.958  12.570  19.395  0.00  0.00    +0.000 C 
ATOM     13  C   UNL     1       1.669  11.469  18.606  0.00  0.00    +0.000 C 
ATOM     14  C   UNL     1       0.827  10.226  18.316  0.00  0.00    +0.000 C 
ATOM     15  C   UNL     1      -0.142   9.766  19.405  0.00  0.00    +0.000 C 
ATOM     16  C   UNL     1       0.408   9.859  20.823  0.00  0.00    +0.000 C 
ENDBRANCH   4   9
BRANCH   1  17
ATOM     17  C   UNL     1      -5.580  14.429  22.932  0.00  0.00    +0.000 C 
BRANCH  17  19
ATOM     18  N   UNL     1      -5.214  12.893  21.087  0.00  0.00    +0.000 N 
ATOM     19  C   UNL     1      -5.095  14.206  21.519  0.00  0.00    +0.000 C 
ATOM     20  O   UNL     1      -4.691  15.146  20.843  0.00  0.00    +0.000 OA
ATOM     21  H   UNL     1      -5.810  12.271  21.619  0.00  0.00    +0.000 HD
BRANCH  18  25
ATOM     22  C   UNL     1      -3.618  11.377  17.473  0.00  0.00    +0.000 A 
ATOM     23  C   UNL     1      -4.999  11.489  17.632  0.00  0.00    +0.000 A 
ATOM     24  C   UNL     1      -5.531  11.996  18.820  0.00  0.00    +0.000 A 
ATOM     25  C   UNL     1      -4.700  12.398  19.869  0.00  0.00    +0.000 A 
ATOM     26  C   UNL     1      -3.314  12.329  19.694  0.00  0.00    +0.000 A 
ATOM     27  C   UNL     1      -2.776  11.808  18.507  0.00  0.00    +0.000 A 
BRANCH  22  29
ATOM     28  C   UNL     1      -2.148   9.585  16.336  0.00  0.00    +0.000 C 
ATOM     29  C   UNL     1      -3.025  10.808  16.226  0.00  0.00    +0.000 C 
ATOM     30  O   UNL     1      -3.265  11.329  15.140  0.00  0.00    +0.000 OA
ENDBRANCH  22  29
ENDBRANCH  18  25
ENDBRANCH  17  19
ENDBRANCH   1  17
TORSDOF 5
ENDMDL
