MODEL 1
REMARK VINA RESULT:      -7.9      0.000      0.000
REMARK  Name = 
REMARK  5 active torsions:
REMARK  status: ('A' for Active; 'I' for Inactive)
REMARK    1  A    between atoms: C_1  and  O_2
REMARK    2  A    between atoms: O_2  and  C_3
REMARK    3  A    between atoms: C_6  and  S_7
REMARK    4  A    between atoms: S_7  and  N_10
REMARK    5  A    between atoms: N_10  and  C_11
REMARK                            x       y       z     vdW  Elec       q    Type
REMARK                         _______ _______ _______ _____ _____    ______ ____
ROOT
ATOM      1  C   UNL     1       2.135   6.434  20.327  0.00  0.00    +0.000 A 
ATOM      2  C   UNL     1       2.446   7.209  19.210  0.00  0.00    +0.000 A 
ATOM      3  C   UNL     1       1.931   8.522  19.073  0.00  0.00    +0.000 A 
ATOM      4  C   UNL     1       1.088   9.044  20.068  0.00  0.00    +0.000 A 
ATOM      5  C   UNL     1       0.767   8.246  21.169  0.00  0.00    +0.000 A 
ATOM      6  C   UNL     1       1.288   6.953  21.287  0.00  0.00    +0.000 A 
ATOM      7  C   UNL     1      -0.213   8.668  22.210  0.00  0.00    +0.000 C 
ATOM      8  C   UNL     1      -0.528  10.138  22.225  0.00  0.00    +0.000 C 
ATOM      9  C   UNL     1      -0.239  10.914  20.967  0.00  0.00    +0.000 C 
ATOM     10  O   UNL     1      -0.703  12.057  20.867  0.00  0.00    +0.000 OA
ATOM     11  N   UNL     1       0.561  10.351  19.981  0.00  0.00    +0.000 N 
ATOM     12  C   UNL     1       0.680  11.111  18.751  0.00  0.00    +0.000 C 
ATOM     13  C   UNL     1       1.761  10.726  17.760  0.00  0.00    +0.000 C 
ATOM     14  C   UNL     1       2.354   9.332  17.882  0.00  0.00    +0.000 C 
ENDROOT
BRANCH   1  15
ATOM     15  N   UNL     1       2.661   5.132  20.539  0.00  0.00    +0.000 N 
ATOM     16  H   UNL     1       2.617   4.723  21.470  0.00  0.00    +0.000 HD
BRANCH  15  17
ATOM     17  S   UNL     1       2.538   3.970  19.315  0.00  0.00    +0.000 S 
ATOM     18  O   UNL     1       1.397   4.299  18.479  0.00  0.00    +0.000 OA
ATOM     19  O   UNL     1       2.615   2.687  19.983  0.00  0.00    +0.000 OA
BRANCH  17  23
ATOM     20  C   UNL     1       6.331   4.538  16.785  0.00  0.00    +0.000 A 
ATOM     21  C   UNL     1       5.139   4.111  16.190  0.00  0.00    +0.000 A 
ATOM     22  C   UNL     1       3.979   3.923  16.958  0.00  0.00    +0.000 A 
ATOM     23  C   UNL     1       4.023   4.134  18.334  0.00  0.00    +0.000 A 
ATOM     24  C   UNL     1       5.213   4.558  18.939  0.00  0.00    +0.000 A 
ATOM     25  C   UNL     1       6.368   4.752  18.165  0.00  0.00    +0.000 A 
BRANCH  20  27
ATOM     26  C   UNL     1       7.083   4.844  14.549  0.00  0.00    +0.000 C 
ATOM     27  O   UNL     1       7.391   4.673  15.929  0.00  0.00    +0.000 OA
ENDBRANCH  20  27
ENDBRANCH  17  23
ENDBRANCH  15  17
ENDBRANCH   1  15
TORSDOF 4
ENDMDL
MODEL 2
REMARK VINA RESULT:      -7.9      2.755      6.944
REMARK  Name = 
REMARK  5 active torsions:
REMARK  status: ('A' for Active; 'I' for Inactive)
REMARK    1  A    between atoms: C_1  and  O_2
REMARK    2  A    between atoms: O_2  and  C_3
REMARK    3  A    between atoms: C_6  and  S_7
REMARK    4  A    between atoms: S_7  and  N_10
REMARK    5  A    between atoms: N_10  and  C_11
REMARK                            x       y       z     vdW  Elec       q    Type
REMARK                         _______ _______ _______ _____ _____    ______ ____
ROOT
ATOM      1  C   UNL     1       3.942   2.891  18.731  0.00  0.00    +0.000 A 
ATOM      2  C   UNL     1       4.790   3.777  19.396  0.00  0.00    +0.000 A 
ATOM      3  C   UNL     1       5.753   4.531  18.681  0.00  0.00    +0.000 A 
ATOM      4  C   UNL     1       5.863   4.376  17.290  0.00  0.00    +0.000 A 
ATOM      5  C   UNL     1       5.022   3.468  16.642  0.00  0.00    +0.000 A 
ATOM      6  C   UNL     1       4.075   2.734  17.364  0.00  0.00    +0.000 A 
ATOM      7  C   UNL     1       5.147   3.148  15.191  0.00  0.00    +0.000 C 
ATOM      8  C   UNL     1       5.951   4.137  14.392  0.00  0.00    +0.000 C 
ATOM      9  C   UNL     1       6.905   5.020  15.152  0.00  0.00    +0.000 C 
ATOM     10  O   UNL     1       7.740   5.666  14.508  0.00  0.00    +0.000 OA
ATOM     11  N   UNL     1       6.799   5.115  16.534  0.00  0.00    +0.000 N 
ATOM     12  C   UNL     1       7.837   5.883  17.197  0.00  0.00    +0.000 C 
ATOM     13  C   UNL     1       7.630   6.288  18.643  0.00  0.00    +0.000 C 
ATOM     14  C   UNL     1       6.592   5.516  19.442  0.00  0.00    +0.000 C 
ENDROOT
BRANCH   1  15
ATOM     15  N   UNL     1       2.927   2.147  19.389  0.00  0.00    +0.000 N 
ATOM     16  H   UNL     1       3.190   1.461  20.094  0.00  0.00    +0.000 HD
BRANCH  15  17
ATOM     17  S   UNL     1       1.437   2.877  19.722  0.00  0.00    +0.000 S 
ATOM     18  O   UNL     1       1.136   2.691  21.130  0.00  0.00    +0.000 OA
ATOM     19  O   UNL     1       0.526   2.393  18.704  0.00  0.00    +0.000 OA
BRANCH  17  23
ATOM     20  C   UNL     1       2.181   7.341  18.928  0.00  0.00    +0.000 A 
ATOM     21  C   UNL     1       2.062   6.864  20.238  0.00  0.00    +0.000 A 
ATOM     22  C   UNL     1       1.822   5.504  20.489  0.00  0.00    +0.000 A 
ATOM     23  C   UNL     1       1.670   4.623  19.420  0.00  0.00    +0.000 A 
ATOM     24  C   UNL     1       1.784   5.093  18.105  0.00  0.00    +0.000 A 
ATOM     25  C   UNL     1       2.032   6.453  17.861  0.00  0.00    +0.000 A 
BRANCH  20  27
ATOM     26  C   UNL     1       1.616   9.393  17.865  0.00  0.00    +0.000 C 
ATOM     27  O   UNL     1       2.404   8.688  18.819  0.00  0.00    +0.000 OA
ENDBRANCH  20  27
ENDBRANCH  17  23
ENDBRANCH  15  17
ENDBRANCH   1  15
TORSDOF 4
ENDMDL
MODEL 3
REMARK VINA RESULT:      -7.6      1.043      1.356
REMARK  Name = 
REMARK  5 active torsions:
REMARK  status: ('A' for Active; 'I' for Inactive)
REMARK    1  A    between atoms: C_1  and  O_2
REMARK    2  A    between atoms: O_2  and  C_3
REMARK    3  A    between atoms: C_6  and  S_7
REMARK    4  A    between atoms: S_7  and  N_10
REMARK    5  A    between atoms: N_10  and  C_11
REMARK                            x       y       z     vdW  Elec       q    Type
REMARK                         _______ _______ _______ _____ _____    ______ ____
ROOT
ATOM      1  C   UNL     1       2.183   7.150  19.950  0.00  0.00    +0.000 A 
ATOM      2  C   UNL     1       2.199   8.137  18.965  0.00  0.00    +0.000 A 
ATOM      3  C   UNL     1       1.475   9.343  19.137  0.00  0.00    +0.000 A 
ATOM      4  C   UNL     1       0.724   9.541  20.308  0.00  0.00    +0.000 A 
ATOM      5  C   UNL     1       0.700   8.532  21.274  0.00  0.00    +0.000 A 
ATOM      6  C   UNL     1       1.423   7.350  21.087  0.00  0.00    +0.000 A 
ATOM      7  C   UNL     1      -0.162   8.601  22.488  0.00  0.00    +0.000 C 
ATOM      8  C   UNL     1      -0.692   9.971  22.812  0.00  0.00    +0.000 C 
ATOM      9  C   UNL     1      -0.719  10.979  21.692  0.00  0.00    +0.000 C 
ATOM     10  O   UNL     1      -1.361  12.022  21.863  0.00  0.00    +0.000 OA
ATOM     11  N   UNL     1      -0.003  10.731  20.529  0.00  0.00    +0.000 N 
ATOM     12  C   UNL     1      -0.189  11.689  19.455  0.00  0.00    +0.000 C 
ATOM     13  C   UNL     1       0.774  11.665  18.284  0.00  0.00    +0.000 C 
ATOM     14  C   UNL     1       1.584  10.396  18.072  0.00  0.00    +0.000 C 
ENDROOT
BRANCH   1  15
ATOM     15  N   UNL     1       2.928   5.945  19.852  0.00  0.00    +0.000 N 
ATOM     16  H   UNL     1       3.203   5.459  20.703  0.00  0.00    +0.000 HD
BRANCH  15  17
ATOM     17  S   UNL     1       2.636   4.883  18.567  0.00  0.00    +0.000 S 
ATOM     18  O   UNL     1       1.442   5.321  17.868  0.00  0.00    +0.000 OA
ATOM     19  O   UNL     1       2.712   3.551  19.133  0.00  0.00    +0.000 OA
BRANCH  17  23
ATOM     20  C   UNL     1       6.307   5.256  15.828  0.00  0.00    +0.000 A 
ATOM     21  C   UNL     1       5.928   6.320  16.655  0.00  0.00    +0.000 A 
ATOM     22  C   UNL     1       4.800   6.218  17.486  0.00  0.00    +0.000 A 
ATOM     23  C   UNL     1       4.032   5.057  17.464  0.00  0.00    +0.000 A 
ATOM     24  C   UNL     1       4.401   3.989  16.636  0.00  0.00    +0.000 A 
ATOM     25  C   UNL     1       5.534   4.093  15.813  0.00  0.00    +0.000 A 
BRANCH  20  27
ATOM     26  C   UNL     1       7.410   4.942  13.743  0.00  0.00    +0.000 C 
ATOM     27  O   UNL     1       7.417   5.486  15.060  0.00  0.00    +0.000 OA
ENDBRANCH  20  27
ENDBRANCH  17  23
ENDBRANCH  15  17
ENDBRANCH   1  15
TORSDOF 4
ENDMDL
MODEL 4
REMARK VINA RESULT:      -7.5      1.493      2.908
REMARK  Name = 
REMARK  5 active torsions:
REMARK  status: ('A' for Active; 'I' for Inactive)
REMARK    1  A    between atoms: C_1  and  O_2
REMARK    2  A    between atoms: O_2  and  C_3
REMARK    3  A    between atoms: C_6  and  S_7
REMARK    4  A    between atoms: S_7  and  N_10
REMARK    5  A    between atoms: N_10  and  C_11
REMARK                            x       y       z     vdW  Elec       q    Type
REMARK                         _______ _______ _______ _____ _____    ______ ____
ROOT
ATOM      1  C   UNL     1       2.589   5.939  19.254  0.00  0.00    +0.000 A 
ATOM      2  C   UNL     1       1.893   6.204  20.433  0.00  0.00    +0.000 A 
ATOM      3  C   UNL     1       1.351   7.490  20.679  0.00  0.00    +0.000 A 
ATOM      4  C   UNL     1       1.527   8.511  19.731  0.00  0.00    +0.000 A 
ATOM      5  C   UNL     1       2.247   8.235  18.566  0.00  0.00    +0.000 A 
ATOM      6  C   UNL     1       2.773   6.959  18.339  0.00  0.00    +0.000 A 
ATOM      7  C   UNL     1       2.588   9.284  17.563  0.00  0.00    +0.000 C 
ATOM      8  C   UNL     1       1.784  10.551  17.673  0.00  0.00    +0.000 C 
ATOM      9  C   UNL     1       1.112  10.824  18.993  0.00  0.00    +0.000 C 
ATOM     10  O   UNL     1       0.649  11.955  19.188  0.00  0.00    +0.000 OA
ATOM     11  N   UNL     1       0.994   9.804  19.928  0.00  0.00    +0.000 N 
ATOM     12  C   UNL     1       0.452  10.187  21.218  0.00  0.00    +0.000 C 
ATOM     13  C   UNL     1       0.011   9.097  22.174  0.00  0.00    +0.000 C 
ATOM     14  C   UNL     1       0.555   7.697  21.936  0.00  0.00    +0.000 C 
ENDROOT
BRANCH   1  15
ATOM     15  N   UNL     1       3.111   4.657  18.933  0.00  0.00    +0.000 N 
ATOM     16  H   UNL     1       2.710   4.137  18.155  0.00  0.00    +0.000 HD
BRANCH  15  17
ATOM     17  S   UNL     1       4.764   4.354  19.129  0.00  0.00    +0.000 S 
ATOM     18  O   UNL     1       4.925   3.026  19.694  0.00  0.00    +0.000 OA
ATOM     19  O   UNL     1       5.298   5.514  19.812  0.00  0.00    +0.000 OA
BRANCH  17  23
ATOM     20  C   UNL     1       6.540   4.504  14.894  0.00  0.00    +0.000 A 
ATOM     21  C   UNL     1       5.192   4.180  15.087  0.00  0.00    +0.000 A 
ATOM     22  C   UNL     1       4.645   4.119  16.378  0.00  0.00    +0.000 A 
ATOM     23  C   UNL     1       5.460   4.355  17.483  0.00  0.00    +0.000 A 
ATOM     24  C   UNL     1       6.811   4.677  17.299  0.00  0.00    +0.000 A 
ATOM     25  C   UNL     1       7.351   4.744  16.005  0.00  0.00    +0.000 A 
BRANCH  20  27
ATOM     26  C   UNL     1       6.269   3.648  12.690  0.00  0.00    +0.000 C 
ATOM     27  O   UNL     1       6.951   4.519  13.588  0.00  0.00    +0.000 OA
ENDBRANCH  20  27
ENDBRANCH  17  23
ENDBRANCH  15  17
ENDBRANCH   1  15
TORSDOF 4
ENDMDL
MODEL 5
REMARK VINA RESULT:      -7.5      3.025      8.466
REMARK  Name = 
REMARK  5 active torsions:
REMARK  status: ('A' for Active; 'I' for Inactive)
REMARK    1  A    between atoms: C_1  and  O_2
REMARK    2  A    between atoms: O_2  and  C_3
REMARK    3  A    between atoms: C_6  and  S_7
REMARK    4  A    between atoms: S_7  and  N_10
REMARK    5  A    between atoms: N_10  and  C_11
REMARK                            x       y       z     vdW  Elec       q    Type
REMARK                         _______ _______ _______ _____ _____    ______ ____
ROOT
ATOM      1  C   UNL     1       2.305   7.623  17.871  0.00  0.00    +0.000 A 
ATOM      2  C   UNL     1       2.040   6.436  18.554  0.00  0.00    +0.000 A 
ATOM      3  C   UNL     1       3.071   5.496  18.798  0.00  0.00    +0.000 A 
ATOM      4  C   UNL     1       4.372   5.757  18.337  0.00  0.00    +0.000 A 
ATOM      5  C   UNL     1       4.615   6.940  17.635  0.00  0.00    +0.000 A 
ATOM      6  C   UNL     1       3.585   7.858  17.406  0.00  0.00    +0.000 A 
ATOM      7  C   UNL     1       5.931   7.246  17.005  0.00  0.00    +0.000 C 
ATOM      8  C   UNL     1       7.080   6.410  17.499  0.00  0.00    +0.000 C 
ATOM      9  C   UNL     1       6.740   5.103  18.165  0.00  0.00    +0.000 C 
ATOM     10  O   UNL     1       7.656   4.295  18.364  0.00  0.00    +0.000 OA
ATOM     11  N   UNL     1       5.434   4.856  18.567  0.00  0.00    +0.000 N 
ATOM     12  C   UNL     1       5.170   3.524  19.080  0.00  0.00    +0.000 C 
ATOM     13  C   UNL     1       3.869   3.273  19.814  0.00  0.00    +0.000 C 
ATOM     14  C   UNL     1       2.740   4.267  19.595  0.00  0.00    +0.000 C 
ENDROOT
BRANCH   1  15
ATOM     15  N   UNL     1       1.321   8.622  17.642  0.00  0.00    +0.000 N 
ATOM     16  H   UNL     1       0.432   8.359  17.221  0.00  0.00    +0.000 HD
BRANCH  15  17
ATOM     17  S   UNL     1       1.165   9.909  18.730  0.00  0.00    +0.000 S 
ATOM     18  O   UNL     1       2.036  10.987  18.297  0.00  0.00    +0.000 OA
ATOM     19  O   UNL     1       1.311   9.328  20.049  0.00  0.00    +0.000 OA
BRANCH  17  23
ATOM     20  C   UNL     1      -3.147  11.427  18.269  0.00  0.00    +0.000 A 
ATOM     21  C   UNL     1      -2.335  11.902  19.305  0.00  0.00    +0.000 A 
ATOM     22  C   UNL     1      -1.020  11.434  19.460  0.00  0.00    +0.000 A 
ATOM     23  C   UNL     1      -0.529  10.463  18.591  0.00  0.00    +0.000 A 
ATOM     24  C   UNL     1      -1.336   9.978  17.554  0.00  0.00    +0.000 A 
ATOM     25  C   UNL     1      -2.647  10.456  17.399  0.00  0.00    +0.000 A 
BRANCH  20  27
ATOM     26  C   UNL     1      -5.144  11.783  17.025  0.00  0.00    +0.000 C 
ATOM     27  O   UNL     1      -4.410  11.955  18.234  0.00  0.00    +0.000 OA
ENDBRANCH  20  27
ENDBRANCH  17  23
ENDBRANCH  15  17
ENDBRANCH   1  15
TORSDOF 4
ENDMDL
MODEL 6
REMARK VINA RESULT:      -7.5      3.021      8.052
REMARK  Name = 
REMARK  5 active torsions:
REMARK  status: ('A' for Active; 'I' for Inactive)
REMARK    1  A    between atoms: C_1  and  O_2
REMARK    2  A    between atoms: O_2  and  C_3
REMARK    3  A    between atoms: C_6  and  S_7
REMARK    4  A    between atoms: S_7  and  N_10
REMARK    5  A    between atoms: N_10  and  C_11
REMARK                            x       y       z     vdW  Elec       q    Type
REMARK                         _______ _______ _______ _____ _____    ______ ____
ROOT
ATOM      1  C   UNL     1       1.836   7.764  19.581  0.00  0.00    +0.000 A 
ATOM      2  C   UNL     1       2.730   7.637  18.519  0.00  0.00    +0.000 A 
ATOM      3  C   UNL     1       3.389   6.408  18.271  0.00  0.00    +0.000 A 
ATOM      4  C   UNL     1       3.148   5.309  19.112  0.00  0.00    +0.000 A 
ATOM      5  C   UNL     1       2.267   5.460  20.186  0.00  0.00    +0.000 A 
ATOM      6  C   UNL     1       1.624   6.681  20.413  0.00  0.00    +0.000 A 
ATOM      7  C   UNL     1       2.043   4.389  21.199  0.00  0.00    +0.000 C 
ATOM      8  C   UNL     1       2.502   3.018  20.785  0.00  0.00    +0.000 C 
ATOM      9  C   UNL     1       3.523   2.941  19.681  0.00  0.00    +0.000 C 
ATOM     10  O   UNL     1       4.090   1.859  19.485  0.00  0.00    +0.000 OA
ATOM     11  N   UNL     1       3.772   4.060  18.897  0.00  0.00    +0.000 N 
ATOM     12  C   UNL     1       4.860   3.937  17.945  0.00  0.00    +0.000 C 
ATOM     13  C   UNL     1       4.996   4.984  16.856  0.00  0.00    +0.000 C 
ATOM     14  C   UNL     1       4.290   6.312  17.073  0.00  0.00    +0.000 C 
ENDROOT
BRANCH   1  15
ATOM     15  N   UNL     1       1.111   8.957  19.847  0.00  0.00    +0.000 N 
ATOM     16  H   UNL     1       1.086   9.323  20.796  0.00  0.00    +0.000 HD
BRANCH  15  17
ATOM     17  S   UNL     1       1.057  10.181  18.680  0.00  0.00    +0.000 S 
ATOM     18  O   UNL     1       1.670   9.684  17.461  0.00  0.00    +0.000 OA
ATOM     19  O   UNL     1       1.571  11.368  19.332  0.00  0.00    +0.000 OA
BRANCH  17  23
ATOM     20  C   UNL     1      -3.363  11.016  17.740  0.00  0.00    +0.000 A 
ATOM     21  C   UNL     1      -2.693  11.758  18.720  0.00  0.00    +0.000 A 
ATOM     22  C   UNL     1      -1.347  11.501  19.022  0.00  0.00    +0.000 A 
ATOM     23  C   UNL     1      -0.677  10.474  18.360  0.00  0.00    +0.000 A 
ATOM     24  C   UNL     1      -1.340   9.724  17.380  0.00  0.00    +0.000 A 
ATOM     25  C   UNL     1      -2.685   9.991  17.077  0.00  0.00    +0.000 A 
BRANCH  20  27
ATOM     26  C   UNL     1      -5.591  10.985  18.573  0.00  0.00    +0.000 C 
ATOM     27  O   UNL     1      -4.674  11.359  17.548  0.00  0.00    +0.000 OA
ENDBRANCH  20  27
ENDBRANCH  17  23
ENDBRANCH  15  17
ENDBRANCH   1  15
TORSDOF 4
ENDMDL
MODEL 7
REMARK VINA RESULT:      -7.5      3.064      8.417
REMARK  Name = 
REMARK  5 active torsions:
REMARK  status: ('A' for Active; 'I' for Inactive)
REMARK    1  A    between atoms: C_1  and  O_2
REMARK    2  A    between atoms: O_2  and  C_3
REMARK    3  A    between atoms: C_6  and  S_7
REMARK    4  A    between atoms: S_7  and  N_10
REMARK    5  A    between atoms: N_10  and  C_11
REMARK                            x       y       z     vdW  Elec       q    Type
REMARK                         _______ _______ _______ _____ _____    ______ ____
ROOT
ATOM      1  C   UNL     1       2.286   7.550  17.843  0.00  0.00    +0.000 A 
ATOM      2  C   UNL     1       2.029   6.354  18.513  0.00  0.00    +0.000 A 
ATOM      3  C   UNL     1       3.073   5.433  18.776  0.00  0.00    +0.000 A 
ATOM      4  C   UNL     1       4.379   5.723  18.348  0.00  0.00    +0.000 A 
ATOM      5  C   UNL     1       4.615   6.915  17.658  0.00  0.00    +0.000 A 
ATOM      6  C   UNL     1       3.572   7.812  17.410  0.00  0.00    +0.000 A 
ATOM      7  C   UNL     1       5.939   7.250  17.062  0.00  0.00    +0.000 C 
ATOM      8  C   UNL     1       7.093   6.435  17.579  0.00  0.00    +0.000 C 
ATOM      9  C   UNL     1       6.764   5.117  18.230  0.00  0.00    +0.000 C 
ATOM     10  O   UNL     1       7.690   4.326  18.447  0.00  0.00    +0.000 OA
ATOM     11  N   UNL     1       5.453   4.842  18.599  0.00  0.00    +0.000 N 
ATOM     12  C   UNL     1       5.204   3.502  19.098  0.00  0.00    +0.000 C 
ATOM     13  C   UNL     1       3.890   3.220  19.799  0.00  0.00    +0.000 C 
ATOM     14  C   UNL     1       2.748   4.193  19.558  0.00  0.00    +0.000 C 
ENDROOT
BRANCH   1  15
ATOM     15  N   UNL     1       1.288   8.530  17.596  0.00  0.00    +0.000 N 
ATOM     16  H   UNL     1       0.398   8.244  17.193  0.00  0.00    +0.000 HD
BRANCH  15  17
ATOM     17  S   UNL     1       1.129   9.846  18.647  0.00  0.00    +0.000 S 
ATOM     18  O   UNL     1       2.074  10.874  18.246  0.00  0.00    +0.000 OA
ATOM     19  O   UNL     1       1.171   9.289  19.983  0.00  0.00    +0.000 OA
BRANCH  17  23
ATOM     20  C   UNL     1      -3.174  11.368  18.113  0.00  0.00    +0.000 A 
ATOM     21  C   UNL     1      -2.655  10.392  17.255  0.00  0.00    +0.000 A 
ATOM     22  C   UNL     1      -1.337   9.931  17.403  0.00  0.00    +0.000 A 
ATOM     23  C   UNL     1      -0.526  10.473  18.397  0.00  0.00    +0.000 A 
ATOM     24  C   UNL     1      -1.036  11.453  19.259  0.00  0.00    +0.000 A 
ATOM     25  C   UNL     1      -2.357  11.905  19.111  0.00  0.00    +0.000 A 
BRANCH  20  27
ATOM     26  C   UNL     1      -5.491  10.897  18.379  0.00  0.00    +0.000 C 
ATOM     27  O   UNL     1      -4.466  11.738  17.857  0.00  0.00    +0.000 OA
ENDBRANCH  20  27
ENDBRANCH  17  23
ENDBRANCH  15  17
ENDBRANCH   1  15
TORSDOF 4
ENDMDL
MODEL 8
REMARK VINA RESULT:      -7.5      2.937      8.231
REMARK  Name = 
REMARK  5 active torsions:
REMARK  status: ('A' for Active; 'I' for Inactive)
REMARK    1  A    between atoms: C_1  and  O_2
REMARK    2  A    between atoms: O_2  and  C_3
REMARK    3  A    between atoms: C_6  and  S_7
REMARK    4  A    between atoms: S_7  and  N_10
REMARK    5  A    between atoms: N_10  and  C_11
REMARK                            x       y       z     vdW  Elec       q    Type
REMARK                         _______ _______ _______ _____ _____    ______ ____
ROOT
ATOM      1  C   UNL     1       2.272   7.939  17.929  0.00  0.00    +0.000 A 
ATOM      2  C   UNL     1       3.546   7.868  17.368  0.00  0.00    +0.000 A 
ATOM      3  C   UNL     1       4.399   6.771  17.645  0.00  0.00    +0.000 A 
ATOM      4  C   UNL     1       3.960   5.750  18.504  0.00  0.00    +0.000 A 
ATOM      5  C   UNL     1       2.690   5.848  19.077  0.00  0.00    +0.000 A 
ATOM      6  C   UNL     1       1.861   6.938  18.789  0.00  0.00    +0.000 A 
ATOM      7  C   UNL     1       2.188   4.879  20.092  0.00  0.00    +0.000 C 
ATOM      8  C   UNL     1       2.952   3.585  20.166  0.00  0.00    +0.000 C 
ATOM      9  C   UNL     1       4.352   3.583  19.609  0.00  0.00    +0.000 C 
ATOM     10  O   UNL     1       5.080   2.617  19.867  0.00  0.00    +0.000 OA
ATOM     11  N   UNL     1       4.770   4.631  18.800  0.00  0.00    +0.000 N 
ATOM     12  C   UNL     1       6.169   4.615  18.415  0.00  0.00    +0.000 C 
ATOM     13  C   UNL     1       6.628   5.535  17.301  0.00  0.00    +0.000 C 
ATOM     14  C   UNL     1       5.734   6.716  16.959  0.00  0.00    +0.000 C 
ENDROOT
BRANCH   1  15
ATOM     15  N   UNL     1       1.358   8.989  17.648  0.00  0.00    +0.000 N 
ATOM     16  H   UNL     1       0.545   8.799  17.065  0.00  0.00    +0.000 HD
BRANCH  15  17
ATOM     17  S   UNL     1       1.049  10.167  18.824  0.00  0.00    +0.000 S 
ATOM     18  O   UNL     1       1.859  11.335  18.530  0.00  0.00    +0.000 OA
ATOM     19  O   UNL     1       1.167   9.490  20.099  0.00  0.00    +0.000 OA
BRANCH  17  23
ATOM     20  C   UNL     1      -3.336  11.400  18.218  0.00  0.00    +0.000 A 
ATOM     21  C   UNL     1      -2.577  11.963  19.250  0.00  0.00    +0.000 A 
ATOM     22  C   UNL     1      -1.240  11.583  19.449  0.00  0.00    +0.000 A 
ATOM     23  C   UNL     1      -0.672  10.610  18.630  0.00  0.00    +0.000 A 
ATOM     24  C   UNL     1      -1.425  10.038  17.597  0.00  0.00    +0.000 A 
ATOM     25  C   UNL     1      -2.759  10.429  17.397  0.00  0.00    +0.000 A 
BRANCH  20  27
ATOM     26  C   UNL     1      -5.150  12.509  19.285  0.00  0.00    +0.000 C 
ATOM     27  O   UNL     1      -4.627  11.848  18.136  0.00  0.00    +0.000 OA
ENDBRANCH  20  27
ENDBRANCH  17  23
ENDBRANCH  15  17
ENDBRANCH   1  15
TORSDOF 4
ENDMDL
MODEL 9
REMARK VINA RESULT:      -7.5      3.017      8.129
REMARK  Name = 
REMARK  5 active torsions:
REMARK  status: ('A' for Active; 'I' for Inactive)
REMARK    1  A    between atoms: C_1  and  O_2
REMARK    2  A    between atoms: O_2  and  C_3
REMARK    3  A    between atoms: C_6  and  S_7
REMARK    4  A    between atoms: S_7  and  N_10
REMARK    5  A    between atoms: N_10  and  C_11
REMARK                            x       y       z     vdW  Elec       q    Type
REMARK                         _______ _______ _______ _____ _____    ______ ____
ROOT
ATOM      1  C   UNL     1       2.346   7.881  17.888  0.00  0.00    +0.000 A 
ATOM      2  C   UNL     1       3.650   7.808  17.399  0.00  0.00    +0.000 A 
ATOM      3  C   UNL     1       4.478   6.702  17.709  0.00  0.00    +0.000 A 
ATOM      4  C   UNL     1       3.985   5.672  18.527  0.00  0.00    +0.000 A 
ATOM      5  C   UNL     1       2.684   5.772  19.028  0.00  0.00    +0.000 A 
ATOM      6  C   UNL     1       1.880   6.871  18.708  0.00  0.00    +0.000 A 
ATOM      7  C   UNL     1       2.118   4.792  19.998  0.00  0.00    +0.000 C 
ATOM      8  C   UNL     1       2.869   3.492  20.098  0.00  0.00    +0.000 C 
ATOM      9  C   UNL     1       4.298   3.488  19.622  0.00  0.00    +0.000 C 
ATOM     10  O   UNL     1       5.005   2.514  19.908  0.00  0.00    +0.000 OA
ATOM     11  N   UNL     1       4.769   4.544  18.853  0.00  0.00    +0.000 N 
ATOM     12  C   UNL     1       6.188   4.523  18.549  0.00  0.00    +0.000 C 
ATOM     13  C   UNL     1       6.715   5.456  17.477  0.00  0.00    +0.000 C 
ATOM     14  C   UNL     1       5.850   6.647  17.100  0.00  0.00    +0.000 C 
ENDROOT
BRANCH   1  15
ATOM     15  N   UNL     1       1.455   8.941  17.570  0.00  0.00    +0.000 N 
ATOM     16  H   UNL     1       0.704   8.777  16.902  0.00  0.00    +0.000 HD
BRANCH  15  17
ATOM     17  S   UNL     1       1.026  10.060  18.764  0.00  0.00    +0.000 S 
ATOM     18  O   UNL     1       1.873  11.232  18.624  0.00  0.00    +0.000 OA
ATOM     19  O   UNL     1       0.997   9.317  20.007  0.00  0.00    +0.000 OA
BRANCH  17  23
ATOM     20  C   UNL     1      -3.351  11.200  17.954  0.00  0.00    +0.000 A 
ATOM     21  C   UNL     1      -2.730  10.194  17.206  0.00  0.00    +0.000 A 
ATOM     22  C   UNL     1      -1.389   9.848  17.438  0.00  0.00    +0.000 A 
ATOM     23  C   UNL     1      -0.659  10.536  18.404  0.00  0.00    +0.000 A 
ATOM     24  C   UNL     1      -1.271  11.547  19.156  0.00  0.00    +0.000 A 
ATOM     25  C   UNL     1      -2.615  11.883  18.924  0.00  0.00    +0.000 A 
BRANCH  20  27
ATOM     26  C   UNL     1      -5.619  11.315  18.664  0.00  0.00    +0.000 C 
ATOM     27  O   UNL     1      -4.656  11.448  17.622  0.00  0.00    +0.000 OA
ENDBRANCH  20  27
ENDBRANCH  17  23
ENDBRANCH  15  17
ENDBRANCH   1  15
TORSDOF 4
ENDMDL
