MODEL 1
REMARK VINA RESULT:      -8.3      0.000      0.000
REMARK  Name = 
REMARK  10 active torsions:
REMARK  status: ('A' for Active; 'I' for Inactive)
REMARK    1  A    between atoms: C_1  and  C_2
REMARK    2  A    between atoms: C_5  and  C_6
REMARK    3  A    between atoms: N_8  and  C_9
REMARK    4  A    between atoms: C_9  and  C_10
REMARK    5  A    between atoms: C_15  and  C_16
REMARK    6  A    between atoms: C_21  and  C_22
REMARK    7  A    between atoms: C_23  and  C_24
REMARK    8  A    between atoms: C_24  and  C_25
REMARK    9  A    between atoms: C_24  and  N_26
REMARK   10  A    between atoms: N_26  and  O_27
REMARK                            x       y       z     vdW  Elec       q    Type
REMARK                         _______ _______ _______ _____ _____    ______ ____
ROOT
ATOM      1  C   UNL     1       3.127   3.752  20.070  0.00  0.00    +0.000 C 
ATOM      2  C   UNL     1       2.642   5.176  20.048  0.00  0.00    +0.000 A 
ATOM      3  C   UNL     1       1.570   5.550  20.873  0.00  0.00    +0.000 A 
ATOM      4  C   UNL     1       1.088   6.862  20.865  0.00  0.00    +0.000 A 
ATOM      5  C   UNL     1       1.660   7.817  20.020  0.00  0.00    +0.000 A 
ATOM      6  C   UNL     1       2.737   7.458  19.199  0.00  0.00    +0.000 A 
ATOM      7  C   UNL     1       3.232   6.146  19.215  0.00  0.00    +0.000 A 
ENDROOT
BRANCH   5   8
ATOM      8  C   UNL     1       1.116   9.205  20.055  0.00  0.00    +0.000 C 
ATOM      9  O   UNL     1       1.016   9.796  21.123  0.00  0.00    +0.000 OA
ATOM     10  N   UNL     1       0.710   9.731  18.848  0.00  0.00    +0.000 N 
ATOM     11  H   UNL     1       0.582   9.102  18.067  0.00  0.00    +0.000 HD
BRANCH  10  12
ATOM     12  C   UNL     1       0.051  11.015  18.753  0.00  0.00    +0.000 C 
BRANCH  12  13
ATOM     13  C   UNL     1      -1.391  10.898  18.312  0.00  0.00    +0.000 A 
ATOM     14  C   UNL     1      -1.676  10.011  17.251  0.00  0.00    +0.000 A 
ATOM     15  C   UNL     1      -2.965   9.890  16.728  0.00  0.00    +0.000 A 
ATOM     16  C   UNL     1      -4.000  10.648  17.254  0.00  0.00    +0.000 A 
ATOM     17  C   UNL     1      -3.748  11.515  18.315  0.00  0.00    +0.000 A 
ATOM     18  C   UNL     1      -2.453  11.652  18.865  0.00  0.00    +0.000 A 
BRANCH  18  19
ATOM     19  C   UNL     1      -2.315  12.613  20.026  0.00  0.00    +0.000 C 
ATOM     20  F   UNL     1      -1.487  13.674  19.817  0.00  0.00    +0.000 F 
ATOM     21  F   UNL     1      -3.509  13.153  20.396  0.00  0.00    +0.000 F 
ATOM     22  F   UNL     1      -1.828  11.998  21.141  0.00  0.00    +0.000 F 
ENDBRANCH  18  19
ENDBRANCH  12  13
ENDBRANCH  10  12
ENDBRANCH   5   8
BRANCH   7  23
ATOM     23  C   UNL     1       4.333   5.812  18.356  0.00  0.00    +0.000 C 
ATOM     24  C   UNL     1       5.380   5.551  17.624  0.00  0.00    +0.000 C 
BRANCH  24  25
ATOM     25  C   UNL     1       6.600   5.247  16.771  0.00  0.00    +0.000 C 
ATOM     26  C   UNL     1       7.672   4.589  17.638  0.00  0.00    +0.000 C 
BRANCH  25  27
ATOM     27  N   UNL     1       6.204   4.422  15.629  0.00  0.00    +0.000 N 
ATOM     28  C   UNL     1       6.835   4.538  14.409  0.00  0.00    +0.000 C 
ATOM     29  N   UNL     1       6.496   3.574  13.509  0.00  0.00    +0.000 N 
ATOM     30  O   UNL     1       7.601   5.441  14.098  0.00  0.00    +0.000 OA
ATOM     31  H   UNL     1       5.663   3.037  13.685  0.00  0.00    +0.000 HD
ATOM     32  H   UNL     1       6.803   3.712  12.558  0.00  0.00    +0.000 HD
BRANCH  27  33
ATOM     33  O   UNL     1       5.738   3.132  15.976  0.00  0.00    +0.000 OA
ATOM     34  H   UNL     1       6.488   2.578  15.686  0.00  0.00    +0.000 HD
ENDBRANCH  27  33
ENDBRANCH  25  27
ENDBRANCH  24  25
ENDBRANCH   7  23
TORSDOF 8
ENDMDL
MODEL 2
REMARK VINA RESULT:      -8.1      2.834      3.872
REMARK  Name = 
REMARK  10 active torsions:
REMARK  status: ('A' for Active; 'I' for Inactive)
REMARK    1  A    between atoms: C_1  and  C_2
REMARK    2  A    between atoms: C_5  and  C_6
REMARK    3  A    between atoms: N_8  and  C_9
REMARK    4  A    between atoms: C_9  and  C_10
REMARK    5  A    between atoms: C_15  and  C_16
REMARK    6  A    between atoms: C_21  and  C_22
REMARK    7  A    between atoms: C_23  and  C_24
REMARK    8  A    between atoms: C_24  and  C_25
REMARK    9  A    between atoms: C_24  and  N_26
REMARK   10  A    between atoms: N_26  and  O_27
REMARK                            x       y       z     vdW  Elec       q    Type
REMARK                         _______ _______ _______ _____ _____    ______ ____
ROOT
ATOM      1  C   UNL     1       3.800   6.739  17.469  0.00  0.00    +0.000 C 
ATOM      2  C   UNL     1       2.826   7.626  18.197  0.00  0.00    +0.000 A 
ATOM      3  C   UNL     1       2.594   8.926  17.723  0.00  0.00    +0.000 A 
ATOM      4  C   UNL     1       1.706   9.778  18.386  0.00  0.00    +0.000 A 
ATOM      5  C   UNL     1       1.049   9.348  19.543  0.00  0.00    +0.000 A 
ATOM      6  C   UNL     1       1.266   8.049  20.020  0.00  0.00    +0.000 A 
ATOM      7  C   UNL     1       2.145   7.187  19.348  0.00  0.00    +0.000 A 
ENDROOT
BRANCH   5   8
ATOM      8  C   UNL     1       0.104  10.292  20.207  0.00  0.00    +0.000 C 
ATOM      9  O   UNL     1      -0.395   9.999  21.286  0.00  0.00    +0.000 OA
ATOM     10  N   UNL     1      -0.185  11.450  19.519  0.00  0.00    +0.000 N 
ATOM     11  H   UNL     1       0.055  11.501  18.538  0.00  0.00    +0.000 HD
BRANCH  10  12
ATOM     12  C   UNL     1      -1.176  12.394  19.986  0.00  0.00    +0.000 C 
BRANCH  12  13
ATOM     13  C   UNL     1      -2.544  12.145  19.389  0.00  0.00    +0.000 A 
ATOM     14  C   UNL     1      -2.596  11.665  18.062  0.00  0.00    +0.000 A 
ATOM     15  C   UNL     1      -3.812  11.474  17.403  0.00  0.00    +0.000 A 
ATOM     16  C   UNL     1      -5.004  11.754  18.054  0.00  0.00    +0.000 A 
ATOM     17  C   UNL     1      -4.979  12.208  19.371  0.00  0.00    +0.000 A 
ATOM     18  C   UNL     1      -3.762  12.405  20.062  0.00  0.00    +0.000 A 
BRANCH  18  19
ATOM     19  C   UNL     1      -3.871  12.885  21.492  0.00  0.00    +0.000 C 
ATOM     20  F   UNL     1      -3.192  12.147  22.415  0.00  0.00    +0.000 F 
ATOM     21  F   UNL     1      -3.419  14.160  21.647  0.00  0.00    +0.000 F 
ATOM     22  F   UNL     1      -5.162  12.896  21.928  0.00  0.00    +0.000 F 
ENDBRANCH  18  19
ENDBRANCH  12  13
ENDBRANCH  10  12
ENDBRANCH   5   8
BRANCH   7  23
ATOM     23  C   UNL     1       2.348   5.865  19.870  0.00  0.00    +0.000 C 
ATOM     24  C   UNL     1       2.481   4.637  20.288  0.00  0.00    +0.000 C 
BRANCH  24  25
ATOM     25  C   UNL     1       2.636   3.207  20.776  0.00  0.00    +0.000 C 
ATOM     26  C   UNL     1       1.400   2.809  21.579  0.00  0.00    +0.000 C 
BRANCH  25  27
ATOM     27  N   UNL     1       2.883   2.326  19.633  0.00  0.00    +0.000 N 
ATOM     28  C   UNL     1       4.086   1.671  19.480  0.00  0.00    +0.000 C 
ATOM     29  N   UNL     1       4.094   0.740  18.486  0.00  0.00    +0.000 N 
ATOM     30  O   UNL     1       5.100   1.908  20.123  0.00  0.00    +0.000 OA
ATOM     31  H   UNL     1       3.361   0.778  17.799  0.00  0.00    +0.000 HD
ATOM     32  H   UNL     1       4.993   0.357  18.231  0.00  0.00    +0.000 HD
BRANCH  27  33
ATOM     33  O   UNL     1       1.734   1.648  19.161  0.00  0.00    +0.000 OA
ATOM     34  H   UNL     1       1.035   2.068  19.699  0.00  0.00    +0.000 HD
ENDBRANCH  27  33
ENDBRANCH  25  27
ENDBRANCH  24  25
ENDBRANCH   7  23
TORSDOF 8
ENDMDL
MODEL 3
REMARK VINA RESULT:      -8.1      3.648      5.125
REMARK  Name = 
REMARK  10 active torsions:
REMARK  status: ('A' for Active; 'I' for Inactive)
REMARK    1  A    between atoms: C_1  and  C_2
REMARK    2  A    between atoms: C_5  and  C_6
REMARK    3  A    between atoms: N_8  and  C_9
REMARK    4  A    between atoms: C_9  and  C_10
REMARK    5  A    between atoms: C_15  and  C_16
REMARK    6  A    between atoms: C_21  and  C_22
REMARK    7  A    between atoms: C_23  and  C_24
REMARK    8  A    between atoms: C_24  and  C_25
REMARK    9  A    between atoms: C_24  and  N_26
REMARK   10  A    between atoms: N_26  and  O_27
REMARK                            x       y       z     vdW  Elec       q    Type
REMARK                         _______ _______ _______ _____ _____    ______ ____
ROOT
ATOM      1  C   UNL     1       2.523   7.568  18.069  0.00  0.00    +0.000 C 
ATOM      2  C   UNL     1       1.823   8.192  19.247  0.00  0.00    +0.000 A 
ATOM      3  C   UNL     1       1.481   9.552  19.201  0.00  0.00    +0.000 A 
ATOM      4  C   UNL     1       0.844  10.163  20.284  0.00  0.00    +0.000 A 
ATOM      5  C   UNL     1       0.553   9.427  21.436  0.00  0.00    +0.000 A 
ATOM      6  C   UNL     1       0.880   8.066  21.490  0.00  0.00    +0.000 A 
ATOM      7  C   UNL     1       1.508   7.447  20.399  0.00  0.00    +0.000 A 
ENDROOT
BRANCH   5   8
ATOM      8  C   UNL     1      -0.138  10.123  22.560  0.00  0.00    +0.000 C 
ATOM      9  O   UNL     1       0.166   9.864  23.718  0.00  0.00    +0.000 OA
ATOM     10  N   UNL     1      -1.132  11.010  22.209  0.00  0.00    +0.000 N 
ATOM     11  H   UNL     1      -1.497  10.977  21.266  0.00  0.00    +0.000 HD
BRANCH  10  12
ATOM     12  C   UNL     1      -1.965  11.660  23.197  0.00  0.00    +0.000 C 
BRANCH  12  13
ATOM     13  C   UNL     1      -1.895  13.170  23.114  0.00  0.00    +0.000 A 
ATOM     14  C   UNL     1      -0.673  13.742  22.700  0.00  0.00    +0.000 A 
ATOM     15  C   UNL     1      -0.492  15.126  22.662  0.00  0.00    +0.000 A 
ATOM     16  C   UNL     1      -1.528  15.970  23.032  0.00  0.00    +0.000 A 
ATOM     17  C   UNL     1      -2.750  15.429  23.423  0.00  0.00    +0.000 A 
ATOM     18  C   UNL     1      -2.961  14.032  23.465  0.00  0.00    +0.000 A 
BRANCH  18  19
ATOM     19  C   UNL     1      -4.338  13.573  23.890  0.00  0.00    +0.000 C 
ATOM     20  F   UNL     1      -5.010  12.810  22.983  0.00  0.00    +0.000 F 
ATOM     21  F   UNL     1      -4.307  12.833  25.033  0.00  0.00    +0.000 F 
ATOM     22  F   UNL     1      -5.166  14.623  24.153  0.00  0.00    +0.000 F 
ENDBRANCH  18  19
ENDBRANCH  12  13
ENDBRANCH  10  12
ENDBRANCH   5   8
BRANCH   7  23
ATOM     23  C   UNL     1       1.835   6.052  20.491  0.00  0.00    +0.000 C 
ATOM     24  C   UNL     1       2.180   4.803  20.636  0.00  0.00    +0.000 C 
BRANCH  24  25
ATOM     25  C   UNL     1       2.583   3.348  20.805  0.00  0.00    +0.000 C 
ATOM     26  C   UNL     1       1.504   2.613  21.598  0.00  0.00    +0.000 C 
BRANCH  25  27
ATOM     27  N   UNL     1       2.830   2.754  19.490  0.00  0.00    +0.000 N 
ATOM     28  C   UNL     1       4.108   2.629  18.990  0.00  0.00    +0.000 C 
ATOM     29  N   UNL     1       4.194   1.881  17.855  0.00  0.00    +0.000 N 
ATOM     30  O   UNL     1       5.102   3.166  19.461  0.00  0.00    +0.000 OA
ATOM     31  H   UNL     1       3.348   1.708  17.339  0.00  0.00    +0.000 HD
ATOM     32  H   UNL     1       5.077   1.900  17.365  0.00  0.00    +0.000 HD
BRANCH  27  33
ATOM     33  O   UNL     1       1.910   1.742  19.127  0.00  0.00    +0.000 OA
ATOM     34  H   UNL     1       1.067   2.231  19.169  0.00  0.00    +0.000 HD
ENDBRANCH  27  33
ENDBRANCH  25  27
ENDBRANCH  24  25
ENDBRANCH   7  23
TORSDOF 8
ENDMDL
MODEL 4
REMARK VINA RESULT:      -8.1      3.691      4.755
REMARK  Name = 
REMARK  10 active torsions:
REMARK  status: ('A' for Active; 'I' for Inactive)
REMARK    1  A    between atoms: C_1  and  C_2
REMARK    2  A    between atoms: C_5  and  C_6
REMARK    3  A    between atoms: N_8  and  C_9
REMARK    4  A    between atoms: C_9  and  C_10
REMARK    5  A    between atoms: C_15  and  C_16
REMARK    6  A    between atoms: C_21  and  C_22
REMARK    7  A    between atoms: C_23  and  C_24
REMARK    8  A    between atoms: C_24  and  C_25
REMARK    9  A    between atoms: C_24  and  N_26
REMARK   10  A    between atoms: N_26  and  O_27
REMARK                            x       y       z     vdW  Elec       q    Type
REMARK                         _______ _______ _______ _____ _____    ______ ____
ROOT
ATOM      1  C   UNL     1       2.629   7.861  17.877  0.00  0.00    +0.000 C 
ATOM      2  C   UNL     1       1.879   8.516  19.006  0.00  0.00    +0.000 A 
ATOM      3  C   UNL     1       1.505   9.863  18.891  0.00  0.00    +0.000 A 
ATOM      4  C   UNL     1       0.821  10.503  19.928  0.00  0.00    +0.000 A 
ATOM      5  C   UNL     1       0.513   9.809  21.102  0.00  0.00    +0.000 A 
ATOM      6  C   UNL     1       0.871   8.461  21.223  0.00  0.00    +0.000 A 
ATOM      7  C   UNL     1       1.546   7.812  20.179  0.00  0.00    +0.000 A 
ENDROOT
BRANCH   5   8
ATOM      8  C   UNL     1      -0.228  10.535  22.174  0.00  0.00    +0.000 C 
ATOM      9  O   UNL     1      -0.030  10.256  23.350  0.00  0.00    +0.000 OA
ATOM     10  N   UNL     1      -1.146  11.472  21.753  0.00  0.00    +0.000 N 
ATOM     11  H   UNL     1      -1.438  11.461  20.785  0.00  0.00    +0.000 HD
BRANCH  10  12
ATOM     12  C   UNL     1      -2.021  12.159  22.678  0.00  0.00    +0.000 C 
BRANCH  12  13
ATOM     13  C   UNL     1      -3.335  12.563  22.046  0.00  0.00    +0.000 A 
ATOM     14  C   UNL     1      -3.369  12.686  20.640  0.00  0.00    +0.000 A 
ATOM     15  C   UNL     1      -4.515  13.123  19.973  0.00  0.00    +0.000 A 
ATOM     16  C   UNL     1      -5.655  13.444  20.694  0.00  0.00    +0.000 A 
ATOM     17  C   UNL     1      -5.653  13.310  22.081  0.00  0.00    +0.000 A 
ATOM     18  C   UNL     1      -4.507  12.866  22.779  0.00  0.00    +0.000 A 
BRANCH  18  19
ATOM     19  C   UNL     1      -4.639  12.747  24.281  0.00  0.00    +0.000 C 
ATOM     20  F   UNL     1      -5.902  12.876  24.774  0.00  0.00    +0.000 F 
ATOM     21  F   UNL     1      -4.190  11.548  24.747  0.00  0.00    +0.000 F 
ATOM     22  F   UNL     1      -3.906  13.693  24.933  0.00  0.00    +0.000 F 
ENDBRANCH  18  19
ENDBRANCH  12  13
ENDBRANCH  10  12
ENDBRANCH   5   8
BRANCH   7  23
ATOM     23  C   UNL     1       1.904   6.431  20.341  0.00  0.00    +0.000 C 
ATOM     24  C   UNL     1       2.279   5.200  20.546  0.00  0.00    +0.000 C 
BRANCH  24  25
ATOM     25  C   UNL     1       2.716   3.764  20.785  0.00  0.00    +0.000 C 
ATOM     26  C   UNL     1       1.642   3.036  21.591  0.00  0.00    +0.000 C 
BRANCH  25  27
ATOM     27  N   UNL     1       3.003   3.120  19.502  0.00  0.00    +0.000 N 
ATOM     28  C   UNL     1       3.999   2.177  19.382  0.00  0.00    +0.000 C 
ATOM     29  N   UNL     1       4.013   1.527  18.185  0.00  0.00    +0.000 N 
ATOM     30  O   UNL     1       4.851   1.943  20.229  0.00  0.00    +0.000 OA
ATOM     31  H   UNL     1       3.505   1.937  17.420  0.00  0.00    +0.000 HD
ATOM     32  H   UNL     1       4.819   0.950  17.991  0.00  0.00    +0.000 HD
BRANCH  27  33
ATOM     33  O   UNL     1       1.870   2.949  18.671  0.00  0.00    +0.000 OA
ATOM     34  H   UNL     1       1.702   1.994  18.778  0.00  0.00    +0.000 HD
ENDBRANCH  27  33
ENDBRANCH  25  27
ENDBRANCH  24  25
ENDBRANCH   7  23
TORSDOF 8
ENDMDL
MODEL 5
REMARK VINA RESULT:      -8.1      3.231      4.295
REMARK  Name = 
REMARK  10 active torsions:
REMARK  status: ('A' for Active; 'I' for Inactive)
REMARK    1  A    between atoms: C_1  and  C_2
REMARK    2  A    between atoms: C_5  and  C_6
REMARK    3  A    between atoms: N_8  and  C_9
REMARK    4  A    between atoms: C_9  and  C_10
REMARK    5  A    between atoms: C_15  and  C_16
REMARK    6  A    between atoms: C_21  and  C_22
REMARK    7  A    between atoms: C_23  and  C_24
REMARK    8  A    between atoms: C_24  and  C_25
REMARK    9  A    between atoms: C_24  and  N_26
REMARK   10  A    between atoms: N_26  and  O_27
REMARK                            x       y       z     vdW  Elec       q    Type
REMARK                         _______ _______ _______ _____ _____    ______ ____
ROOT
ATOM      1  C   UNL     1       3.170   7.079  17.678  0.00  0.00    +0.000 C 
ATOM      2  C   UNL     1       2.332   7.886  18.632  0.00  0.00    +0.000 A 
ATOM      3  C   UNL     1       2.021   9.218  18.318  0.00  0.00    +0.000 A 
ATOM      4  C   UNL     1       1.257   9.997  19.190  0.00  0.00    +0.000 A 
ATOM      5  C   UNL     1       0.804   9.461  20.399  0.00  0.00    +0.000 A 
ATOM      6  C   UNL     1       1.099   8.129  20.720  0.00  0.00    +0.000 A 
ATOM      7  C   UNL     1       1.854   7.341  19.839  0.00  0.00    +0.000 A 
ENDROOT
BRANCH   5   8
ATOM      8  C   UNL     1      -0.016  10.330  21.291  0.00  0.00    +0.000 C 
ATOM      9  O   UNL     1      -0.504   9.868  22.316  0.00  0.00    +0.000 OA
ATOM     10  N   UNL     1      -0.212  11.626  20.867  0.00  0.00    +0.000 N 
ATOM     11  H   UNL     1      -0.003  11.855  19.904  0.00  0.00    +0.000 HD
BRANCH  10  12
ATOM     12  C   UNL     1      -1.086  12.540  21.569  0.00  0.00    +0.000 C 
BRANCH  12  13
ATOM     13  C   UNL     1      -2.516  12.470  21.079  0.00  0.00    +0.000 A 
ATOM     14  C   UNL     1      -2.721  12.358  19.687  0.00  0.00    +0.000 A 
ATOM     15  C   UNL     1      -4.004  12.359  19.136  0.00  0.00    +0.000 A 
ATOM     16  C   UNL     1      -5.112  12.468  19.963  0.00  0.00    +0.000 A 
ATOM     17  C   UNL     1      -4.935  12.559  21.342  0.00  0.00    +0.000 A 
ATOM     18  C   UNL     1      -3.648  12.555  21.924  0.00  0.00    +0.000 A 
BRANCH  18  19
ATOM     19  C   UNL     1      -3.592  12.641  23.434  0.00  0.00    +0.000 C 
ATOM     20  F   UNL     1      -4.798  12.698  24.065  0.00  0.00    +0.000 F 
ATOM     21  F   UNL     1      -2.943  11.580  23.989  0.00  0.00    +0.000 F 
ATOM     22  F   UNL     1      -2.918  13.748  23.856  0.00  0.00    +0.000 F 
ENDBRANCH  18  19
ENDBRANCH  12  13
ENDBRANCH  10  12
ENDBRANCH   5   8
BRANCH   7  23
ATOM     23  C   UNL     1       2.143   5.982  20.203  0.00  0.00    +0.000 C 
ATOM     24  C   UNL     1       2.328   4.732  20.524  0.00  0.00    +0.000 C 
BRANCH  24  25
ATOM     25  C   UNL     1       2.544   3.275  20.896  0.00  0.00    +0.000 C 
ATOM     26  C   UNL     1       1.319   2.759  21.649  0.00  0.00    +0.000 C 
BRANCH  25  27
ATOM     27  N   UNL     1       2.840   2.501  19.689  0.00  0.00    +0.000 N 
ATOM     28  C   UNL     1       4.093   1.972  19.469  0.00  0.00    +0.000 C 
ATOM     29  N   UNL     1       4.161   1.115  18.411  0.00  0.00    +0.000 N 
ATOM     30  O   UNL     1       5.097   2.255  20.108  0.00  0.00    +0.000 OA
ATOM     31  H   UNL     1       3.410   1.133  17.742  0.00  0.00    +0.000 HD
ATOM     32  H   UNL     1       5.083   0.834  18.113  0.00  0.00    +0.000 HD
BRANCH  27  33
ATOM     33  O   UNL     1       1.745   1.756  19.192  0.00  0.00    +0.000 OA
ATOM     34  H   UNL     1       1.302   1.497  20.022  0.00  0.00    +0.000 HD
ENDBRANCH  27  33
ENDBRANCH  25  27
ENDBRANCH  24  25
ENDBRANCH   7  23
TORSDOF 8
ENDMDL
MODEL 6
REMARK VINA RESULT:      -7.9      3.135      4.896
REMARK  Name = 
REMARK  10 active torsions:
REMARK  status: ('A' for Active; 'I' for Inactive)
REMARK    1  A    between atoms: C_1  and  C_2
REMARK    2  A    between atoms: C_5  and  C_6
REMARK    3  A    between atoms: N_8  and  C_9
REMARK    4  A    between atoms: C_9  and  C_10
REMARK    5  A    between atoms: C_15  and  C_16
REMARK    6  A    between atoms: C_21  and  C_22
REMARK    7  A    between atoms: C_23  and  C_24
REMARK    8  A    between atoms: C_24  and  C_25
REMARK    9  A    between atoms: C_24  and  N_26
REMARK   10  A    between atoms: N_26  and  O_27
REMARK                            x       y       z     vdW  Elec       q    Type
REMARK                         _______ _______ _______ _____ _____    ______ ____
ROOT
ATOM      1  C   UNL     1       2.420   8.427  17.462  0.00  0.00    +0.000 C 
ATOM      2  C   UNL     1       1.761   8.842  18.750  0.00  0.00    +0.000 A 
ATOM      3  C   UNL     1       1.119  10.087  18.824  0.00  0.00    +0.000 A 
ATOM      4  C   UNL     1       0.511  10.506  20.010  0.00  0.00    +0.000 A 
ATOM      5  C   UNL     1       0.548   9.691  21.146  0.00  0.00    +0.000 A 
ATOM      6  C   UNL     1       1.176   8.441  21.081  0.00  0.00    +0.000 A 
ATOM      7  C   UNL     1       1.776   8.013  19.887  0.00  0.00    +0.000 A 
ENDROOT
BRANCH   5   8
ATOM      8  C   UNL     1      -0.125  10.179  22.384  0.00  0.00    +0.000 C 
ATOM      9  O   UNL     1       0.180   9.708  23.473  0.00  0.00    +0.000 OA
ATOM     10  N   UNL     1      -1.108  11.129  22.209  0.00  0.00    +0.000 N 
ATOM     11  H   UNL     1      -1.479  11.274  21.280  0.00  0.00    +0.000 HD
BRANCH  10  12
ATOM     12  C   UNL     1      -1.925  11.599  23.307  0.00  0.00    +0.000 C 
BRANCH  12  13
ATOM     13  C   UNL     1      -2.028  13.108  23.351  0.00  0.00    +0.000 A 
ATOM     14  C   UNL     1      -0.848  13.847  23.118  0.00  0.00    +0.000 A 
ATOM     15  C   UNL     1      -0.829  15.240  23.209  0.00  0.00    +0.000 A 
ATOM     16  C   UNL     1      -1.990  15.928  23.531  0.00  0.00    +0.000 A 
ATOM     17  C   UNL     1      -3.171  15.222  23.744  0.00  0.00    +0.000 A 
ATOM     18  C   UNL     1      -3.218  13.813  23.653  0.00  0.00    +0.000 A 
BRANCH  18  19
ATOM     19  C   UNL     1      -4.565  13.168  23.890  0.00  0.00    +0.000 C 
ATOM     20  F   UNL     1      -5.052  12.423  22.858  0.00  0.00    +0.000 F 
ATOM     21  F   UNL     1      -4.558  12.332  24.966  0.00  0.00    +0.000 F 
ATOM     22  F   UNL     1      -5.534  14.092  24.147  0.00  0.00    +0.000 F 
ENDBRANCH  18  19
ENDBRANCH  12  13
ENDBRANCH  10  12
ENDBRANCH   5   8
BRANCH   7  23
ATOM     23  C   UNL     1       2.417   6.728  19.860  0.00  0.00    +0.000 C 
ATOM     24  C   UNL     1       2.939   5.534  19.879  0.00  0.00    +0.000 C 
BRANCH  24  25
ATOM     25  C   UNL     1       3.547   4.142  19.901  0.00  0.00    +0.000 C 
ATOM     26  C   UNL     1       2.430   3.101  19.851  0.00  0.00    +0.000 C 
BRANCH  25  27
ATOM     27  N   UNL     1       4.502   4.008  18.800  0.00  0.00    +0.000 N 
ATOM     28  C   UNL     1       5.798   4.464  18.917  0.00  0.00    +0.000 C 
ATOM     29  N   UNL     1       6.617   4.092  17.895  0.00  0.00    +0.000 N 
ATOM     30  O   UNL     1       6.210   5.185  19.817  0.00  0.00    +0.000 OA
ATOM     31  H   UNL     1       6.190   3.764  17.045  0.00  0.00    +0.000 HD
ATOM     32  H   UNL     1       7.522   4.537  17.854  0.00  0.00    +0.000 HD
BRANCH  27  33
ATOM     33  O   UNL     1       4.310   2.858  17.998  0.00  0.00    +0.000 OA
ATOM     34  H   UNL     1       4.905   2.222  18.438  0.00  0.00    +0.000 HD
ENDBRANCH  27  33
ENDBRANCH  25  27
ENDBRANCH  24  25
ENDBRANCH   7  23
TORSDOF 8
ENDMDL
MODEL 7
REMARK VINA RESULT:      -7.9      1.468      2.019
REMARK  Name = 
REMARK  10 active torsions:
REMARK  status: ('A' for Active; 'I' for Inactive)
REMARK    1  A    between atoms: C_1  and  C_2
REMARK    2  A    between atoms: C_5  and  C_6
REMARK    3  A    between atoms: N_8  and  C_9
REMARK    4  A    between atoms: C_9  and  C_10
REMARK    5  A    between atoms: C_15  and  C_16
REMARK    6  A    between atoms: C_21  and  C_22
REMARK    7  A    between atoms: C_23  and  C_24
REMARK    8  A    between atoms: C_24  and  C_25
REMARK    9  A    between atoms: C_24  and  N_26
REMARK   10  A    between atoms: N_26  and  O_27
REMARK                            x       y       z     vdW  Elec       q    Type
REMARK                         _______ _______ _______ _____ _____    ______ ____
ROOT
ATOM      1  C   UNL     1       3.923   3.926  19.291  0.00  0.00    +0.000 C 
ATOM      2  C   UNL     1       3.436   5.308  18.945  0.00  0.00    +0.000 A 
ATOM      3  C   UNL     1       2.637   6.004  19.863  0.00  0.00    +0.000 A 
ATOM      4  C   UNL     1       2.157   7.283  19.565  0.00  0.00    +0.000 A 
ATOM      5  C   UNL     1       2.458   7.878  18.337  0.00  0.00    +0.000 A 
ATOM      6  C   UNL     1       3.264   7.197  17.416  0.00  0.00    +0.000 A 
ATOM      7  C   UNL     1       3.758   5.919  17.718  0.00  0.00    +0.000 A 
ENDROOT
BRANCH   5   8
ATOM      8  C   UNL     1       1.931   9.248  18.071  0.00  0.00    +0.000 C 
ATOM      9  O   UNL     1       2.624  10.066  17.478  0.00  0.00    +0.000 OA
ATOM     10  N   UNL     1       0.674   9.523  18.563  0.00  0.00    +0.000 N 
ATOM     11  H   UNL     1       0.279   8.898  19.253  0.00  0.00    +0.000 HD
BRANCH  10  12
ATOM     12  C   UNL     1       0.091  10.845  18.486  0.00  0.00    +0.000 C 
BRANCH  12  13
ATOM     13  C   UNL     1      -1.364  10.817  18.073  0.00  0.00    +0.000 A 
ATOM     14  C   UNL     1      -1.719   9.971  16.999  0.00  0.00    +0.000 A 
ATOM     15  C   UNL     1      -3.022   9.932  16.501  0.00  0.00    +0.000 A 
ATOM     16  C   UNL     1      -4.003  10.733  17.066  0.00  0.00    +0.000 A 
ATOM     17  C   UNL     1      -3.682  11.560  18.140  0.00  0.00    +0.000 A 
ATOM     18  C   UNL     1      -2.372  11.614  18.665  0.00  0.00    +0.000 A 
BRANCH  18  19
ATOM     19  C   UNL     1      -2.157  12.539  19.843  0.00  0.00    +0.000 C 
ATOM     20  F   UNL     1      -1.629  11.961  20.958  0.00  0.00    +0.000 F 
ATOM     21  F   UNL     1      -1.325  13.575  19.544  0.00  0.00    +0.000 F 
ATOM     22  F   UNL     1      -3.322  13.112  20.259  0.00  0.00    +0.000 F 
ENDBRANCH  18  19
ENDBRANCH  12  13
ENDBRANCH  10  12
ENDBRANCH   5   8
BRANCH   7  23
ATOM     23  C   UNL     1       4.575   5.248  16.748  0.00  0.00    +0.000 C 
ATOM     24  C   UNL     1       5.282   4.681  15.810  0.00  0.00    +0.000 C 
BRANCH  24  25
ATOM     25  C   UNL     1       6.105   4.020  14.717  0.00  0.00    +0.000 C 
ATOM     26  C   UNL     1       5.237   3.829  13.475  0.00  0.00    +0.000 C 
BRANCH  25  27
ATOM     27  N   UNL     1       7.304   4.820  14.458  0.00  0.00    +0.000 N 
ATOM     28  C   UNL     1       7.761   5.029  13.176  0.00  0.00    +0.000 C 
ATOM     29  N   UNL     1       8.760   5.951  13.080  0.00  0.00    +0.000 N 
ATOM     30  O   UNL     1       7.372   4.426  12.184  0.00  0.00    +0.000 OA
ATOM     31  H   UNL     1       9.251   6.202  13.922  0.00  0.00    +0.000 HD
ATOM     32  H   UNL     1       9.235   6.015  12.192  0.00  0.00    +0.000 HD
BRANCH  27  33
ATOM     33  O   UNL     1       7.510   5.874  15.379  0.00  0.00    +0.000 OA
ATOM     34  H   UNL     1       6.590   6.125  15.586  0.00  0.00    +0.000 HD
ENDBRANCH  27  33
ENDBRANCH  25  27
ENDBRANCH  24  25
ENDBRANCH   7  23
TORSDOF 8
ENDMDL
MODEL 8
REMARK VINA RESULT:      -7.8      3.424      4.789
REMARK  Name = 
REMARK  10 active torsions:
REMARK  status: ('A' for Active; 'I' for Inactive)
REMARK    1  A    between atoms: C_1  and  C_2
REMARK    2  A    between atoms: C_5  and  C_6
REMARK    3  A    between atoms: N_8  and  C_9
REMARK    4  A    between atoms: C_9  and  C_10
REMARK    5  A    between atoms: C_15  and  C_16
REMARK    6  A    between atoms: C_21  and  C_22
REMARK    7  A    between atoms: C_23  and  C_24
REMARK    8  A    between atoms: C_24  and  C_25
REMARK    9  A    between atoms: C_24  and  N_26
REMARK   10  A    between atoms: N_26  and  O_27
REMARK                            x       y       z     vdW  Elec       q    Type
REMARK                         _______ _______ _______ _____ _____    ______ ____
ROOT
ATOM      1  C   UNL     1       2.419   7.963  17.971  0.00  0.00    +0.000 C 
ATOM      2  C   UNL     1       1.711   8.542  19.166  0.00  0.00    +0.000 A 
ATOM      3  C   UNL     1       1.269   9.873  19.125  0.00  0.00    +0.000 A 
ATOM      4  C   UNL     1       0.621  10.443  20.224  0.00  0.00    +0.000 A 
ATOM      5  C   UNL     1       0.420   9.696  21.388  0.00  0.00    +0.000 A 
ATOM      6  C   UNL     1       0.848   8.363  21.438  0.00  0.00    +0.000 A 
ATOM      7  C   UNL     1       1.486   7.784  20.331  0.00  0.00    +0.000 A 
ENDROOT
BRANCH   5   8
ATOM      8  C   UNL     1      -0.286  10.347  22.529  0.00  0.00    +0.000 C 
ATOM      9  O   UNL     1       0.015  10.057  23.680  0.00  0.00    +0.000 OA
ATOM     10  N   UNL     1      -1.290  11.231  22.200  0.00  0.00    +0.000 N 
ATOM     11  H   UNL     1      -1.650  11.222  21.255  0.00  0.00    +0.000 HD
BRANCH  10  12
ATOM     12  C   UNL     1      -2.137  11.839  23.203  0.00  0.00    +0.000 C 
BRANCH  12  13
ATOM     13  C   UNL     1      -2.921  13.017  22.666  0.00  0.00    +0.000 A 
ATOM     14  C   UNL     1      -4.162  12.745  22.050  0.00  0.00    +0.000 A 
ATOM     15  C   UNL     1      -4.922  13.757  21.463  0.00  0.00    +0.000 A 
ATOM     16  C   UNL     1      -4.463  15.066  21.480  0.00  0.00    +0.000 A 
ATOM     17  C   UNL     1      -3.252  15.362  22.101  0.00  0.00    +0.000 A 
ATOM     18  C   UNL     1      -2.466  14.356  22.707  0.00  0.00    +0.000 A 
BRANCH  18  19
ATOM     19  C   UNL     1      -1.181  14.811  23.363  0.00  0.00    +0.000 C 
ATOM     20  F   UNL     1      -1.085  14.571  24.700  0.00  0.00    +0.000 F 
ATOM     21  F   UNL     1      -0.082  14.224  22.810  0.00  0.00    +0.000 F 
ATOM     22  F   UNL     1      -0.988  16.153  23.228  0.00  0.00    +0.000 F 
ENDBRANCH  18  19
ENDBRANCH  12  13
ENDBRANCH  10  12
ENDBRANCH   5   8
BRANCH   7  23
ATOM     23  C   UNL     1       1.917   6.417  20.420  0.00  0.00    +0.000 C 
ATOM     24  C   UNL     1       2.234   5.157  20.520  0.00  0.00    +0.000 C 
BRANCH  24  25
ATOM     25  C   UNL     1       2.603   3.687  20.636  0.00  0.00    +0.000 C 
ATOM     26  C   UNL     1       1.468   2.934  21.327  0.00  0.00    +0.000 C 
BRANCH  25  27
ATOM     27  N   UNL     1       2.916   3.156  19.308  0.00  0.00    +0.000 N 
ATOM     28  C   UNL     1       4.219   2.979  18.898  0.00  0.00    +0.000 C 
ATOM     29  N   UNL     1       4.350   2.295  17.727  0.00  0.00    +0.000 N 
ATOM     30  O   UNL     1       5.204   3.423  19.474  0.00  0.00    +0.000 OA
ATOM     31  H   UNL     1       3.538   2.207  17.140  0.00  0.00    +0.000 HD
ATOM     32  H   UNL     1       5.268   2.285  17.307  0.00  0.00    +0.000 HD
BRANCH  27  33
ATOM     33  O   UNL     1       1.969   2.228  18.814  0.00  0.00    +0.000 OA
ATOM     34  H   UNL     1       2.443   1.386  18.951  0.00  0.00    +0.000 HD
ENDBRANCH  27  33
ENDBRANCH  25  27
ENDBRANCH  24  25
ENDBRANCH   7  23
TORSDOF 8
ENDMDL
MODEL 9
REMARK VINA RESULT:      -7.8      2.660      3.775
REMARK  Name = 
REMARK  10 active torsions:
REMARK  status: ('A' for Active; 'I' for Inactive)
REMARK    1  A    between atoms: C_1  and  C_2
REMARK    2  A    between atoms: C_5  and  C_6
REMARK    3  A    between atoms: N_8  and  C_9
REMARK    4  A    between atoms: C_9  and  C_10
REMARK    5  A    between atoms: C_15  and  C_16
REMARK    6  A    between atoms: C_21  and  C_22
REMARK    7  A    between atoms: C_23  and  C_24
REMARK    8  A    between atoms: C_24  and  C_25
REMARK    9  A    between atoms: C_24  and  N_26
REMARK   10  A    between atoms: N_26  and  O_27
REMARK                            x       y       z     vdW  Elec       q    Type
REMARK                         _______ _______ _______ _____ _____    ______ ____
ROOT
ATOM      1  C   UNL     1       3.843   6.603  17.592  0.00  0.00    +0.000 C 
ATOM      2  C   UNL     1       2.843   7.497  18.275  0.00  0.00    +0.000 A 
ATOM      3  C   UNL     1       2.586   8.771  17.746  0.00  0.00    +0.000 A 
ATOM      4  C   UNL     1       1.674   9.629  18.365  0.00  0.00    +0.000 A 
ATOM      5  C   UNL     1       1.016   9.233  19.534  0.00  0.00    +0.000 A 
ATOM      6  C   UNL     1       1.257   7.959  20.066  0.00  0.00    +0.000 A 
ATOM      7  C   UNL     1       2.162   7.091  19.438  0.00  0.00    +0.000 A 
ENDROOT
BRANCH   5   8
ATOM      8  C   UNL     1       0.045  10.181  20.151  0.00  0.00    +0.000 C 
ATOM      9  O   UNL     1      -0.302  10.030  21.316  0.00  0.00    +0.000 OA
ATOM     10  N   UNL     1      -0.446  11.172  19.329  0.00  0.00    +0.000 N 
ATOM     11  H   UNL     1      -0.318  11.077  18.330  0.00  0.00    +0.000 HD
BRANCH  10  12
ATOM     12  C   UNL     1      -1.484  12.083  19.758  0.00  0.00    +0.000 C 
BRANCH  12  13
ATOM     13  C   UNL     1      -2.793  11.858  19.033  0.00  0.00    +0.000 A 
ATOM     14  C   UNL     1      -2.735  11.239  17.765  0.00  0.00    +0.000 A 
ATOM     15  C   UNL     1      -3.881  11.055  16.990  0.00  0.00    +0.000 A 
ATOM     16  C   UNL     1      -5.113  11.481  17.464  0.00  0.00    +0.000 A 
ATOM     17  C   UNL     1      -5.198  12.075  18.721  0.00  0.00    +0.000 A 
ATOM     18  C   UNL     1      -4.054  12.269  19.527  0.00  0.00    +0.000 A 
BRANCH  18  19
ATOM     19  C   UNL     1      -4.283  12.909  20.878  0.00  0.00    +0.000 C 
ATOM     20  F   UNL     1      -3.753  12.245  21.943  0.00  0.00    +0.000 F 
ATOM     21  F   UNL     1      -3.772  14.170  20.947  0.00  0.00    +0.000 F 
ATOM     22  F   UNL     1      -5.610  13.034  21.164  0.00  0.00    +0.000 F 
ENDBRANCH  18  19
ENDBRANCH  12  13
ENDBRANCH  10  12
ENDBRANCH   5   8
BRANCH   7  23
ATOM     23  C   UNL     1       2.389   5.796  20.015  0.00  0.00    +0.000 C 
ATOM     24  C   UNL     1       2.664   4.617  20.500  0.00  0.00    +0.000 C 
BRANCH  24  25
ATOM     25  C   UNL     1       2.985   3.244  21.064  0.00  0.00    +0.000 C 
ATOM     26  C   UNL     1       1.716   2.628  21.651  0.00  0.00    +0.000 C 
BRANCH  25  27
ATOM     27  N   UNL     1       3.591   2.416  20.020  0.00  0.00    +0.000 N 
ATOM     28  C   UNL     1       2.906   2.103  18.867  0.00  0.00    +0.000 C 
ATOM     29  N   UNL     1       3.666   1.501  17.910  0.00  0.00    +0.000 N 
ATOM     30  O   UNL     1       1.709   2.285  18.690  0.00  0.00    +0.000 OA
ATOM     31  H   UNL     1       4.547   1.104  18.189  0.00  0.00    +0.000 HD
ATOM     32  H   UNL     1       3.174   1.108  17.121  0.00  0.00    +0.000 HD
BRANCH  27  33
ATOM     33  O   UNL     1       4.993   2.568  19.898  0.00  0.00    +0.000 OA
ATOM     34  H   UNL     1       5.286   2.337  20.800  0.00  0.00    +0.000 HD
ENDBRANCH  27  33
ENDBRANCH  25  27
ENDBRANCH  24  25
ENDBRANCH   7  23
TORSDOF 8
ENDMDL
