MODEL 1
REMARK VINA RESULT:      -7.1      0.000      0.000
REMARK  Name = 
REMARK  6 active torsions:
REMARK  status: ('A' for Active; 'I' for Inactive)
REMARK    1  A    between atoms: C_1  and  C_2
REMARK    2  A    between atoms: C_2  and  C_3
REMARK    3  A    between atoms: C_3  and  C_5
REMARK    4  A    between atoms: C_22  and  C_23
REMARK    5  A    between atoms: C_26  and  C_27
REMARK    6  A    between atoms: C_36  and  C_37
REMARK                            x       y       z     vdW  Elec       q    Type
REMARK                         _______ _______ _______ _____ _____    ______ ____
ROOT
ATOM      1  C   UNL     1       7.361  14.900  27.020  0.00  0.00    +0.000 C 
ATOM      2  C   UNL     1       7.237  13.947  25.829  0.00  0.00    +0.000 C 
ATOM      3  C   UNL     1       8.466  13.046  25.861  0.00  0.00    +0.000 C 
ATOM      4  C   UNL     1       8.306  12.283  24.585  0.00  0.00    +0.000 C 
ATOM      5  C   UNL     1       8.177  13.417  23.588  0.00  0.00    +0.000 C 
ATOM      6  C   UNL     1       7.984  13.103  22.109  0.00  0.00    +0.000 C 
ATOM      7  C   UNL     1       8.593  11.692  21.785  0.00  0.00    +0.000 C 
ATOM      8  C   UNL     1       9.650  11.651  20.710  0.00  0.00    +0.000 C 
ATOM      9  C   UNL     1       9.283  12.639  19.675  0.00  0.00    +0.000 C 
ATOM     10  C   UNL     1       9.369  12.338  18.354  0.00  0.00    +0.000 C 
ATOM     11  C   UNL     1      10.787  12.674  18.039  0.00  0.00    +0.000 C 
ATOM     12  O   UNL     1      11.525  11.844  17.518  0.00  0.00    +0.000 OA
ATOM     13  C   UNL     1      11.204  14.106  18.398  0.00  0.00    +0.000 C 
ATOM     14  C   UNL     1      10.098  14.903  19.206  0.00  0.00    +0.000 C 
ATOM     15  C   UNL     1       9.276  14.021  20.157  0.00  0.00    +0.000 C 
ATOM     16  C   UNL     1       8.542  14.280  21.288  0.00  0.00    +0.000 C 
ATOM     17  C   UNL     1       7.961  15.667  21.803  0.00  0.00    +0.000 C 
ATOM     18  C   UNL     1       7.912  15.791  23.507  0.00  0.00    +0.000 C 
ATOM     19  C   UNL     1       7.243  14.514  24.229  0.00  0.00    +0.000 C 
ATOM     20  C   UNL     1       5.752  14.737  23.913  0.00  0.00    +0.000 C 
ENDROOT
BRANCH  17  21
ATOM     21  C   UNL     1       6.588  15.931  21.067  0.00  0.00    +0.000 A 
ATOM     22  C   UNL     1       5.885  14.880  20.444  0.00  0.00    +0.000 A 
ATOM     23  C   UNL     1       4.587  15.015  19.937  0.00  0.00    +0.000 A 
ATOM     24  C   UNL     1       3.904  16.231  19.971  0.00  0.00    +0.000 A 
ATOM     25  C   UNL     1       4.621  17.317  20.508  0.00  0.00    +0.000 A 
ATOM     26  C   UNL     1       5.944  17.180  21.030  0.00  0.00    +0.000 A 
BRANCH  24  27
ATOM     27  C   UNL     1       2.495  16.301  19.493  0.00  0.00    +0.000 A 
ATOM     28  C   UNL     1       1.642  15.191  19.437  0.00  0.00    +0.000 A 
ATOM     29  C   UNL     1       0.349  15.304  18.915  0.00  0.00    +0.000 A 
ATOM     30  C   UNL     1      -0.072  16.539  18.439  0.00  0.00    +0.000 A 
ATOM     31  N   UNL     1       0.697  17.638  18.468  0.00  0.00    +0.000 NA
ATOM     32  C   UNL     1       1.943  17.490  18.992  0.00  0.00    +0.000 A 
ENDBRANCH  24  27
ENDBRANCH  17  21
BRANCH   2  33
ATOM     33  C   UNL     1       5.927  13.053  26.191  0.00  0.00    +0.000 C 
ATOM     34  O   UNL     1       4.889  13.555  26.614  0.00  0.00    +0.000 OA
BRANCH  33  35
ATOM     35  C   UNL     1       5.960  11.534  26.140  0.00  0.00    +0.000 C 
ATOM     36  C   UNL     1       6.114  10.752  27.433  0.00  0.00    +0.000 C 
ATOM     37  C   UNL     1       4.817  10.696  26.685  0.00  0.00    +0.000 C 
ENDBRANCH  33  35
ENDBRANCH   2  33
TORSDOF 4
ENDMDL
MODEL 2
REMARK VINA RESULT:      -7.0      5.842      9.613
REMARK  Name = 
REMARK  6 active torsions:
REMARK  status: ('A' for Active; 'I' for Inactive)
REMARK    1  A    between atoms: C_1  and  C_2
REMARK    2  A    between atoms: C_2  and  C_3
REMARK    3  A    between atoms: C_3  and  C_5
REMARK    4  A    between atoms: C_22  and  C_23
REMARK    5  A    between atoms: C_26  and  C_27
REMARK    6  A    between atoms: C_36  and  C_37
REMARK                            x       y       z     vdW  Elec       q    Type
REMARK                         _______ _______ _______ _____ _____    ______ ____
ROOT
ATOM      1  C   UNL     1      -4.884  13.537  19.698  0.00  0.00    +0.000 C 
ATOM      2  C   UNL     1      -3.662  13.493  20.619  0.00  0.00    +0.000 C 
ATOM      3  C   UNL     1      -3.323  14.939  20.963  0.00  0.00    +0.000 C 
ATOM      4  C   UNL     1      -2.046  14.770  21.723  0.00  0.00    +0.000 C 
ATOM      5  C   UNL     1      -1.224  13.975  20.728  0.00  0.00    +0.000 C 
ATOM      6  C   UNL     1       0.196  13.555  21.088  0.00  0.00    +0.000 C 
ATOM      7  C   UNL     1       0.791  14.554  22.143  0.00  0.00    +0.000 C 
ATOM      8  C   UNL     1       2.076  15.244  21.761  0.00  0.00    +0.000 C 
ATOM      9  C   UNL     1       2.896  14.283  20.995  0.00  0.00    +0.000 C 
ATOM     10  C   UNL     1       4.224  14.146  21.233  0.00  0.00    +0.000 C 
ATOM     11  C   UNL     1       4.819  15.202  20.364  0.00  0.00    +0.000 C 
ATOM     12  O   UNL     1       5.574  16.046  20.833  0.00  0.00    +0.000 OA
ATOM     13  C   UNL     1       4.421  15.117  18.884  0.00  0.00    +0.000 C 
ATOM     14  C   UNL     1       3.306  14.030  18.591  0.00  0.00    +0.000 C 
ATOM     15  C   UNL     1       2.288  13.870  19.728  0.00  0.00    +0.000 C 
ATOM     16  C   UNL     1       0.999  13.399  19.783  0.00  0.00    +0.000 C 
ATOM     17  C   UNL     1       0.228  12.482  18.740  0.00  0.00    +0.000 C 
ATOM     18  C   UNL     1      -1.446  12.814  18.651  0.00  0.00    +0.000 C 
ATOM     19  C   UNL     1      -2.168  12.884  20.090  0.00  0.00    +0.000 C 
ATOM     20  C   UNL     1      -2.224  11.394  20.472  0.00  0.00    +0.000 C 
ENDROOT
BRANCH  17  21
ATOM     21  C   UNL     1       0.602  10.975  19.035  0.00  0.00    +0.000 A 
ATOM     22  C   UNL     1       0.855  10.071  17.984  0.00  0.00    +0.000 A 
ATOM     23  C   UNL     1       1.363   8.781  18.181  0.00  0.00    +0.000 A 
ATOM     24  C   UNL     1       1.615   8.275  19.457  0.00  0.00    +0.000 A 
ATOM     25  C   UNL     1       1.285   9.128  20.527  0.00  0.00    +0.000 A 
ATOM     26  C   UNL     1       0.771  10.446  20.327  0.00  0.00    +0.000 A 
BRANCH  24  27
ATOM     27  C   UNL     1       2.233   6.928  19.609  0.00  0.00    +0.000 A 
ATOM     28  C   UNL     1       1.815   5.988  20.560  0.00  0.00    +0.000 A 
ATOM     29  C   UNL     1       2.479   4.765  20.700  0.00  0.00    +0.000 A 
ATOM     30  C   UNL     1       3.572   4.502  19.886  0.00  0.00    +0.000 A 
ATOM     31  N   UNL     1       4.018   5.361  18.956  0.00  0.00    +0.000 NA
ATOM     32  C   UNL     1       3.341   6.534  18.843  0.00  0.00    +0.000 A 
ENDBRANCH  24  27
ENDBRANCH  17  21
BRANCH   2  33
ATOM     33  C   UNL     1      -4.220  12.758  21.958  0.00  0.00    +0.000 C 
ATOM     34  O   UNL     1      -5.272  12.122  21.966  0.00  0.00    +0.000 OA
BRANCH  33  35
ATOM     35  C   UNL     1      -3.530  12.919  23.303  0.00  0.00    +0.000 C 
ATOM     36  C   UNL     1      -4.114  13.879  24.326  0.00  0.00    +0.000 C 
ATOM     37  C   UNL     1      -4.159  12.404  24.585  0.00  0.00    +0.000 C 
ENDBRANCH  33  35
ENDBRANCH   2  33
TORSDOF 4
ENDMDL
MODEL 3
REMARK VINA RESULT:      -7.0      5.998     10.773
REMARK  Name = 
REMARK  6 active torsions:
REMARK  status: ('A' for Active; 'I' for Inactive)
REMARK    1  A    between atoms: C_1  and  C_2
REMARK    2  A    between atoms: C_2  and  C_3
REMARK    3  A    between atoms: C_3  and  C_5
REMARK    4  A    between atoms: C_22  and  C_23
REMARK    5  A    between atoms: C_26  and  C_27
REMARK    6  A    between atoms: C_36  and  C_37
REMARK                            x       y       z     vdW  Elec       q    Type
REMARK                         _______ _______ _______ _____ _____    ______ ____
ROOT
ATOM      1  C   UNL     1      -4.172  12.850  25.038  0.00  0.00    +0.000 C 
ATOM      2  C   UNL     1      -4.340  13.300  23.585  0.00  0.00    +0.000 C 
ATOM      3  C   UNL     1      -5.570  12.579  23.045  0.00  0.00    +0.000 C 
ATOM      4  C   UNL     1      -5.534  12.975  21.603  0.00  0.00    +0.000 C 
ATOM      5  C   UNL     1      -4.130  12.549  21.223  0.00  0.00    +0.000 C 
ATOM      6  C   UNL     1      -3.633  12.771  19.799  0.00  0.00    +0.000 C 
ATOM      7  C   UNL     1      -4.854  12.805  18.813  0.00  0.00    +0.000 C 
ATOM      8  C   UNL     1      -4.830  11.807  17.683  0.00  0.00    +0.000 C 
ATOM      9  C   UNL     1      -3.429  11.656  17.242  0.00  0.00    +0.000 C 
ATOM     10  C   UNL     1      -3.106  11.631  15.924  0.00  0.00    +0.000 C 
ATOM     11  C   UNL     1      -3.272  10.189  15.579  0.00  0.00    +0.000 C 
ATOM     12  O   UNL     1      -3.995   9.848  14.650  0.00  0.00    +0.000 OA
ATOM     13  C   UNL     1      -2.465   9.222  16.456  0.00  0.00    +0.000 C 
ATOM     14  C   UNL     1      -1.749   9.926  17.681  0.00  0.00    +0.000 C 
ATOM     15  C   UNL     1      -2.545  11.100  18.268  0.00  0.00    +0.000 C 
ATOM     16  C   UNL     1      -2.553  11.716  19.495  0.00  0.00    +0.000 C 
ATOM     17  C   UNL     1      -1.449  11.678  20.637  0.00  0.00    +0.000 C 
ATOM     18  C   UNL     1      -2.100  11.769  22.214  0.00  0.00    +0.000 C 
ATOM     19  C   UNL     1      -3.169  12.960  22.404  0.00  0.00    +0.000 C 
ATOM     20  C   UNL     1      -2.245  14.191  22.439  0.00  0.00    +0.000 C 
ENDROOT
BRANCH  17  21
ATOM     21  C   UNL     1      -0.349  12.761  20.297  0.00  0.00    +0.000 A 
ATOM     22  C   UNL     1       0.862  12.815  21.017  0.00  0.00    +0.000 A 
ATOM     23  C   UNL     1       1.942  13.627  20.650  0.00  0.00    +0.000 A 
ATOM     24  C   UNL     1       1.877  14.489  19.554  0.00  0.00    +0.000 A 
ATOM     25  C   UNL     1       0.646  14.518  18.874  0.00  0.00    +0.000 A 
ATOM     26  C   UNL     1      -0.456  13.686  19.244  0.00  0.00    +0.000 A 
BRANCH  24  27
ATOM     27  C   UNL     1       3.082  15.270  19.157  0.00  0.00    +0.000 A 
ATOM     28  C   UNL     1       4.163  14.720  18.455  0.00  0.00    +0.000 A 
ATOM     29  C   UNL     1       5.298  15.486  18.169  0.00  0.00    +0.000 A 
ATOM     30  C   UNL     1       5.341  16.804  18.606  0.00  0.00    +0.000 A 
ATOM     31  N   UNL     1       4.337  17.386  19.280  0.00  0.00    +0.000 NA
ATOM     32  C   UNL     1       3.248  16.613  19.529  0.00  0.00    +0.000 A 
ENDBRANCH  24  27
ENDBRANCH  17  21
BRANCH   2  33
ATOM     33  C   UNL     1      -4.683  14.885  23.714  0.00  0.00    +0.000 C 
ATOM     34  O   UNL     1      -4.155  15.602  24.560  0.00  0.00    +0.000 OA
BRANCH  33  35
ATOM     35  C   UNL     1      -5.768  15.537  22.872  0.00  0.00    +0.000 C 
ATOM     36  C   UNL     1      -7.122  15.822  23.499  0.00  0.00    +0.000 C 
ATOM     37  C   UNL     1      -6.224  16.962  23.130  0.00  0.00    +0.000 C 
ENDBRANCH  33  35
ENDBRANCH   2  33
TORSDOF 4
ENDMDL
MODEL 4
REMARK VINA RESULT:      -6.9      8.045     11.928
REMARK  Name = 
REMARK  6 active torsions:
REMARK  status: ('A' for Active; 'I' for Inactive)
REMARK    1  A    between atoms: C_1  and  C_2
REMARK    2  A    between atoms: C_2  and  C_3
REMARK    3  A    between atoms: C_3  and  C_5
REMARK    4  A    between atoms: C_22  and  C_23
REMARK    5  A    between atoms: C_26  and  C_27
REMARK    6  A    between atoms: C_36  and  C_37
REMARK                            x       y       z     vdW  Elec       q    Type
REMARK                         _______ _______ _______ _____ _____    ______ ____
ROOT
ATOM      1  C   UNL     1      -7.444  13.919  19.441  0.00  0.00    +0.000 C 
ATOM      2  C   UNL     1      -6.650  13.583  20.705  0.00  0.00    +0.000 C 
ATOM      3  C   UNL     1      -7.217  14.453  21.820  0.00  0.00    +0.000 C 
ATOM      4  C   UNL     1      -6.273  14.151  22.940  0.00  0.00    +0.000 C 
ATOM      5  C   UNL     1      -4.942  14.464  22.285  0.00  0.00    +0.000 C 
ATOM      6  C   UNL     1      -3.651  14.289  23.077  0.00  0.00    +0.000 C 
ATOM      7  C   UNL     1      -3.949  14.438  24.611  0.00  0.00    +0.000 C 
ATOM      8  C   UNL     1      -3.171  15.501  25.344  0.00  0.00    +0.000 C 
ATOM      9  C   UNL     1      -1.811  15.545  24.768  0.00  0.00    +0.000 C 
ATOM     10  C   UNL     1      -0.713  15.625  25.563  0.00  0.00    +0.000 C 
ATOM     11  C   UNL     1      -0.572  17.096  25.769  0.00  0.00    +0.000 C 
ATOM     12  O   UNL     1      -0.514  17.566  26.900  0.00  0.00    +0.000 OA
ATOM     13  C   UNL     1      -0.491  17.921  24.477  0.00  0.00    +0.000 C 
ATOM     14  C   UNL     1      -0.757  17.072  23.167  0.00  0.00    +0.000 C 
ATOM     15  C   UNL     1      -1.780  15.945  23.360  0.00  0.00    +0.000 C 
ATOM     16  C   UNL     1      -2.597  15.252  22.501  0.00  0.00    +0.000 C 
ATOM     17  C   UNL     1      -2.489  15.109  20.922  0.00  0.00    +0.000 C 
ATOM     18  C   UNL     1      -4.006  14.978  20.147  0.00  0.00    +0.000 C 
ATOM     19  C   UNL     1      -4.983  13.886  20.818  0.00  0.00    +0.000 C 
ATOM     20  C   UNL     1      -4.338  12.572  20.341  0.00  0.00    +0.000 C 
ENDROOT
BRANCH  17  21
ATOM     21  C   UNL     1      -1.464  13.949  20.600  0.00  0.00    +0.000 A 
ATOM     22  C   UNL     1      -1.215  12.922  21.532  0.00  0.00    +0.000 A 
ATOM     23  C   UNL     1      -0.463  11.778  21.238  0.00  0.00    +0.000 A 
ATOM     24  C   UNL     1       0.143  11.594  19.994  0.00  0.00    +0.000 A 
ATOM     25  C   UNL     1      -0.018  12.649  19.077  0.00  0.00    +0.000 A 
ATOM     26  C   UNL     1      -0.790  13.815  19.374  0.00  0.00    +0.000 A 
BRANCH  24  27
ATOM     27  C   UNL     1       0.863  10.323  19.705  0.00  0.00    +0.000 A 
ATOM     28  C   UNL     1       1.377   9.995  18.443  0.00  0.00    +0.000 A 
ATOM     29  C   UNL     1       1.984   8.756  18.215  0.00  0.00    +0.000 A 
ATOM     30  C   UNL     1       2.058   7.846  19.261  0.00  0.00    +0.000 A 
ATOM     31  N   UNL     1       1.586   8.103  20.491  0.00  0.00    +0.000 NA
ATOM     32  C   UNL     1       1.013   9.321  20.676  0.00  0.00    +0.000 A 
ENDBRANCH  24  27
ENDBRANCH  17  21
BRANCH   2  33
ATOM     33  C   UNL     1      -7.044  12.034  21.004  0.00  0.00    +0.000 C 
ATOM     34  O   UNL     1      -6.861  11.511  22.101  0.00  0.00    +0.000 OA
BRANCH  33  35
ATOM     35  C   UNL     1      -7.550  11.113  19.905  0.00  0.00    +0.000 C 
ATOM     36  C   UNL     1      -6.556  10.506  18.930  0.00  0.00    +0.000 C 
ATOM     37  C   UNL     1      -7.255   9.624  19.918  0.00  0.00    +0.000 C 
ENDBRANCH  33  35
ENDBRANCH   2  33
TORSDOF 4
ENDMDL
MODEL 5
REMARK VINA RESULT:      -6.8      0.772      1.283
REMARK  Name = 
REMARK  6 active torsions:
REMARK  status: ('A' for Active; 'I' for Inactive)
REMARK    1  A    between atoms: C_1  and  C_2
REMARK    2  A    between atoms: C_2  and  C_3
REMARK    3  A    between atoms: C_3  and  C_5
REMARK    4  A    between atoms: C_22  and  C_23
REMARK    5  A    between atoms: C_26  and  C_27
REMARK    6  A    between atoms: C_36  and  C_37
REMARK                            x       y       z     vdW  Elec       q    Type
REMARK                         _______ _______ _______ _____ _____    ______ ____
ROOT
ATOM      1  C   UNL     1       7.192  14.922  27.175  0.00  0.00    +0.000 C 
ATOM      2  C   UNL     1       7.115  13.984  25.969  0.00  0.00    +0.000 C 
ATOM      3  C   UNL     1       8.462  13.277  25.880  0.00  0.00    +0.000 C 
ATOM      4  C   UNL     1       8.316  12.523  24.596  0.00  0.00    +0.000 C 
ATOM      5  C   UNL     1       7.942  13.644  23.647  0.00  0.00    +0.000 C 
ATOM      6  C   UNL     1       7.681  13.332  22.178  0.00  0.00    +0.000 C 
ATOM      7  C   UNL     1       8.464  12.036  21.765  0.00  0.00    +0.000 C 
ATOM      8  C   UNL     1       9.426  12.174  20.613  0.00  0.00    +0.000 C 
ATOM      9  C   UNL     1       8.836  13.115  19.640  0.00  0.00    +0.000 C 
ATOM     10  C   UNL     1       8.860  12.856  18.308  0.00  0.00    +0.000 C 
ATOM     11  C   UNL     1      10.183  13.406  17.896  0.00  0.00    +0.000 C 
ATOM     12  O   UNL     1      10.992  12.707  17.295  0.00  0.00    +0.000 OA
ATOM     13  C   UNL     1      10.410  14.878  18.266  0.00  0.00    +0.000 C 
ATOM     14  C   UNL     1       9.267  15.484  19.180  0.00  0.00    +0.000 C 
ATOM     15  C   UNL     1       8.662  14.471  20.163  0.00  0.00    +0.000 C 
ATOM     16  C   UNL     1       7.991  14.596  21.354  0.00  0.00    +0.000 C 
ATOM     17  C   UNL     1       7.254  15.870  21.954  0.00  0.00    +0.000 C 
ATOM     18  C   UNL     1       7.323  15.952  23.660  0.00  0.00    +0.000 C 
ATOM     19  C   UNL     1       6.909  14.576  24.390  0.00  0.00    +0.000 C 
ATOM     20  C   UNL     1       5.382  14.579  24.196  0.00  0.00    +0.000 C 
ENDROOT
BRANCH  17  21
ATOM     21  C   UNL     1       5.802  15.939  21.333  0.00  0.00    +0.000 A 
ATOM     22  C   UNL     1       5.064  17.140  21.348  0.00  0.00    +0.000 A 
ATOM     23  C   UNL     1       3.857  17.312  20.659  0.00  0.00    +0.000 A 
ATOM     24  C   UNL     1       3.266  16.274  19.936  0.00  0.00    +0.000 A 
ATOM     25  C   UNL     1       3.941  15.040  19.982  0.00  0.00    +0.000 A 
ATOM     26  C   UNL     1       5.175  14.864  20.680  0.00  0.00    +0.000 A 
BRANCH  24  27
ATOM     27  C   UNL     1       2.026  16.533  19.154  0.00  0.00    +0.000 A 
ATOM     28  C   UNL     1       1.840  17.665  18.350  0.00  0.00    +0.000 A 
ATOM     29  C   UNL     1       0.626  17.887  17.692  0.00  0.00    +0.000 A 
ATOM     30  C   UNL     1      -0.402  16.969  17.860  0.00  0.00    +0.000 A 
ATOM     31  N   UNL     1      -0.284  15.866  18.615  0.00  0.00    +0.000 NA
ATOM     32  C   UNL     1       0.914  15.679  19.230  0.00  0.00    +0.000 A 
ENDBRANCH  24  27
ENDBRANCH  17  21
BRANCH   2  33
ATOM     33  C   UNL     1       5.985  12.897  26.401  0.00  0.00    +0.000 C 
ATOM     34  O   UNL     1       4.869  13.232  26.789  0.00  0.00    +0.000 OA
BRANCH  33  35
ATOM     35  C   UNL     1       6.293  11.410  26.464  0.00  0.00    +0.000 C 
ATOM     36  C   UNL     1       6.566  10.766  27.813  0.00  0.00    +0.000 C 
ATOM     37  C   UNL     1       5.312  10.421  27.070  0.00  0.00    +0.000 C 
ENDBRANCH  33  35
ENDBRANCH   2  33
TORSDOF 4
ENDMDL
MODEL 6
REMARK VINA RESULT:      -6.7      2.953      8.007
REMARK  Name = 
REMARK  6 active torsions:
REMARK  status: ('A' for Active; 'I' for Inactive)
REMARK    1  A    between atoms: C_1  and  C_2
REMARK    2  A    between atoms: C_2  and  C_3
REMARK    3  A    between atoms: C_3  and  C_5
REMARK    4  A    between atoms: C_22  and  C_23
REMARK    5  A    between atoms: C_26  and  C_27
REMARK    6  A    between atoms: C_36  and  C_37
REMARK                            x       y       z     vdW  Elec       q    Type
REMARK                         _______ _______ _______ _____ _____    ______ ____
ROOT
ATOM      1  C   UNL     1      11.416  16.997  19.528  0.00  0.00    +0.000 C 
ATOM      2  C   UNL     1      10.272  16.035  19.199  0.00  0.00    +0.000 C 
ATOM      3  C   UNL     1       9.616  16.556  17.926  0.00  0.00    +0.000 C 
ATOM      4  C   UNL     1       8.442  15.638  17.801  0.00  0.00    +0.000 C 
ATOM      5  C   UNL     1       7.794  15.815  19.160  0.00  0.00    +0.000 C 
ATOM      6  C   UNL     1       6.526  15.041  19.498  0.00  0.00    +0.000 C 
ATOM      7  C   UNL     1       5.751  14.694  18.177  0.00  0.00    +0.000 C 
ATOM      8  C   UNL     1       4.328  15.182  18.089  0.00  0.00    +0.000 C 
ATOM      9  C   UNL     1       3.729  15.082  19.436  0.00  0.00    +0.000 C 
ATOM     10  C   UNL     1       2.479  14.586  19.615  0.00  0.00    +0.000 C 
ATOM     11  C   UNL     1       1.623  15.793  19.427  0.00  0.00    +0.000 C 
ATOM     12  O   UNL     1       0.708  15.789  18.611  0.00  0.00    +0.000 OA
ATOM     13  C   UNL     1       1.978  16.980  20.333  0.00  0.00    +0.000 C 
ATOM     14  C   UNL     1       3.304  16.762  21.170  0.00  0.00    +0.000 C 
ATOM     15  C   UNL     1       4.372  15.943  20.431  0.00  0.00    +0.000 C 
ATOM     16  C   UNL     1       5.736  15.843  20.549  0.00  0.00    +0.000 C 
ATOM     17  C   UNL     1       6.663  16.259  21.771  0.00  0.00    +0.000 C 
ATOM     18  C   UNL     1       8.208  16.811  21.293  0.00  0.00    +0.000 C 
ATOM     19  C   UNL     1       8.945  15.839  20.239  0.00  0.00    +0.000 C 
ATOM     20  C   UNL     1       9.362  14.669  21.149  0.00  0.00    +0.000 C 
ENDROOT
BRANCH  17  21
ATOM     21  C   UNL     1       6.664  15.075  22.817  0.00  0.00    +0.000 A 
ATOM     22  C   UNL     1       7.121  15.272  24.136  0.00  0.00    +0.000 A 
ATOM     23  C   UNL     1       6.979  14.319  25.152  0.00  0.00    +0.000 A 
ATOM     24  C   UNL     1       6.409  13.068  24.915  0.00  0.00    +0.000 A 
ATOM     25  C   UNL     1       6.026  12.815  23.585  0.00  0.00    +0.000 A 
ATOM     26  C   UNL     1       6.165  13.788  22.548  0.00  0.00    +0.000 A 
BRANCH  24  27
ATOM     27  C   UNL     1       6.206  12.122  26.048  0.00  0.00    +0.000 A 
ATOM     28  C   UNL     1       7.069  12.038  27.149  0.00  0.00    +0.000 A 
ATOM     29  C   UNL     1       6.864  11.083  28.150  0.00  0.00    +0.000 A 
ATOM     30  C   UNL     1       5.794  10.207  28.028  0.00  0.00    +0.000 A 
ATOM     31  N   UNL     1       4.934  10.239  26.999  0.00  0.00    +0.000 NA
ATOM     32  C   UNL     1       5.159  11.188  26.052  0.00  0.00    +0.000 A 
ENDBRANCH  24  27
ENDBRANCH  17  21
BRANCH   2  33
ATOM     33  C   UNL     1      11.034  14.639  18.857  0.00  0.00    +0.000 C 
ATOM     34  O   UNL     1      12.081  14.312  19.410  0.00  0.00    +0.000 OA
BRANCH  33  35
ATOM     35  C   UNL     1      10.554  13.721  17.744  0.00  0.00    +0.000 C 
ATOM     36  C   UNL     1      11.512  13.349  16.625  0.00  0.00    +0.000 C 
ATOM     37  C   UNL     1      11.077  12.302  17.605  0.00  0.00    +0.000 C 
ENDBRANCH  33  35
ENDBRANCH   2  33
TORSDOF 4
ENDMDL
MODEL 7
REMARK VINA RESULT:      -6.7      5.966     10.577
REMARK  Name = 
REMARK  6 active torsions:
REMARK  status: ('A' for Active; 'I' for Inactive)
REMARK    1  A    between atoms: C_1  and  C_2
REMARK    2  A    between atoms: C_2  and  C_3
REMARK    3  A    between atoms: C_3  and  C_5
REMARK    4  A    between atoms: C_22  and  C_23
REMARK    5  A    between atoms: C_26  and  C_27
REMARK    6  A    between atoms: C_36  and  C_37
REMARK                            x       y       z     vdW  Elec       q    Type
REMARK                         _______ _______ _______ _____ _____    ______ ____
ROOT
ATOM      1  C   UNL     1      -4.257  12.851  25.084  0.00  0.00    +0.000 C 
ATOM      2  C   UNL     1      -4.397  13.307  23.629  0.00  0.00    +0.000 C 
ATOM      3  C   UNL     1      -5.625  12.600  23.067  0.00  0.00    +0.000 C 
ATOM      4  C   UNL     1      -5.562  13.000  21.627  0.00  0.00    +0.000 C 
ATOM      5  C   UNL     1      -4.156  12.559  21.269  0.00  0.00    +0.000 C 
ATOM      6  C   UNL     1      -3.634  12.779  19.854  0.00  0.00    +0.000 C 
ATOM      7  C   UNL     1      -4.838  12.829  18.848  0.00  0.00    +0.000 C 
ATOM      8  C   UNL     1      -4.806  11.834  17.717  0.00  0.00    +0.000 C 
ATOM      9  C   UNL     1      -3.399  11.669  17.298  0.00  0.00    +0.000 C 
ATOM     10  C   UNL     1      -3.055  11.643  15.985  0.00  0.00    +0.000 C 
ATOM     11  C   UNL     1      -3.230  10.204  15.634  0.00  0.00    +0.000 C 
ATOM     12  O   UNL     1      -3.941   9.873  14.692  0.00  0.00    +0.000 OA
ATOM     13  C   UNL     1      -2.448   9.226  16.521  0.00  0.00    +0.000 C 
ATOM     14  C   UNL     1      -1.745   9.919  17.760  0.00  0.00    +0.000 C 
ATOM     15  C   UNL     1      -2.538  11.100  18.337  0.00  0.00    +0.000 C 
ATOM     16  C   UNL     1      -2.560  11.714  19.565  0.00  0.00    +0.000 C 
ATOM     17  C   UNL     1      -1.475  11.661  20.725  0.00  0.00    +0.000 C 
ATOM     18  C   UNL     1      -2.151  11.755  22.291  0.00  0.00    +0.000 C 
ATOM     19  C   UNL     1      -3.210  12.957  22.467  0.00  0.00    +0.000 C 
ATOM     20  C   UNL     1      -2.274  14.178  22.520  0.00  0.00    +0.000 C 
ENDROOT
BRANCH  17  21
ATOM     21  C   UNL     1      -0.358  12.733  20.406  0.00  0.00    +0.000 A 
ATOM     22  C   UNL     1       0.876  12.718  21.086  0.00  0.00    +0.000 A 
ATOM     23  C   UNL     1       1.966  13.521  20.726  0.00  0.00    +0.000 A 
ATOM     24  C   UNL     1       1.888  14.442  19.681  0.00  0.00    +0.000 A 
ATOM     25  C   UNL     1       0.637  14.538  19.045  0.00  0.00    +0.000 A 
ATOM     26  C   UNL     1      -0.474  13.716  19.408  0.00  0.00    +0.000 A 
BRANCH  24  27
ATOM     27  C   UNL     1       3.100  15.213  19.285  0.00  0.00    +0.000 A 
ATOM     28  C   UNL     1       4.387  14.930  19.762  0.00  0.00    +0.000 A 
ATOM     29  C   UNL     1       5.476  15.731  19.407  0.00  0.00    +0.000 A 
ATOM     30  C   UNL     1       5.259  16.826  18.581  0.00  0.00    +0.000 A 
ATOM     31  N   UNL     1       4.051  17.147  18.091  0.00  0.00    +0.000 NA
ATOM     32  C   UNL     1       3.020  16.338  18.450  0.00  0.00    +0.000 A 
ENDBRANCH  24  27
ENDBRANCH  17  21
BRANCH   2  33
ATOM     33  C   UNL     1      -4.725  14.895  23.757  0.00  0.00    +0.000 C 
ATOM     34  O   UNL     1      -5.280  15.523  22.858  0.00  0.00    +0.000 OA
BRANCH  33  35
ATOM     35  C   UNL     1      -4.251  15.714  24.947  0.00  0.00    +0.000 C 
ATOM     36  C   UNL     1      -2.924  16.449  24.860  0.00  0.00    +0.000 C 
ATOM     37  C   UNL     1      -4.201  17.231  24.897  0.00  0.00    +0.000 C 
ENDBRANCH  33  35
ENDBRANCH   2  33
TORSDOF 4
ENDMDL
MODEL 8
REMARK VINA RESULT:      -6.6      1.042      1.449
REMARK  Name = 
REMARK  6 active torsions:
REMARK  status: ('A' for Active; 'I' for Inactive)
REMARK    1  A    between atoms: C_1  and  C_2
REMARK    2  A    between atoms: C_2  and  C_3
REMARK    3  A    between atoms: C_3  and  C_5
REMARK    4  A    between atoms: C_22  and  C_23
REMARK    5  A    between atoms: C_26  and  C_27
REMARK    6  A    between atoms: C_36  and  C_37
REMARK                            x       y       z     vdW  Elec       q    Type
REMARK                         _______ _______ _______ _____ _____    ______ ____
ROOT
ATOM      1  C   UNL     1       7.283  13.965  26.695  0.00  0.00    +0.000 C 
ATOM      2  C   UNL     1       7.281  13.190  25.375  0.00  0.00    +0.000 C 
ATOM      3  C   UNL     1       8.631  12.489  25.278  0.00  0.00    +0.000 C 
ATOM      4  C   UNL     1       8.564  11.907  23.902  0.00  0.00    +0.000 C 
ATOM      5  C   UNL     1       8.248  13.144  23.084  0.00  0.00    +0.000 C 
ATOM      6  C   UNL     1       8.078  13.026  21.574  0.00  0.00    +0.000 C 
ATOM      7  C   UNL     1       8.885  11.787  21.046  0.00  0.00    +0.000 C 
ATOM      8  C   UNL     1       9.916  12.064  19.982  0.00  0.00    +0.000 C 
ATOM      9  C   UNL     1       9.386  13.127  19.103  0.00  0.00    +0.000 C 
ATOM     10  C   UNL     1       9.491  13.041  17.753  0.00  0.00    +0.000 C 
ATOM     11  C   UNL     1      10.837  13.629  17.496  0.00  0.00    +0.000 C 
ATOM     12  O   UNL     1      11.681  13.007  16.861  0.00  0.00    +0.000 OA
ATOM     13  C   UNL     1      11.041  15.040  18.066  0.00  0.00    +0.000 C 
ATOM     14  C   UNL     1       9.844  15.532  18.979  0.00  0.00    +0.000 C 
ATOM     15  C   UNL     1       9.180  14.406  19.785  0.00  0.00    +0.000 C 
ATOM     16  C   UNL     1       8.438  14.382  20.939  0.00  0.00    +0.000 C 
ATOM     17  C   UNL     1       7.665  15.574  21.652  0.00  0.00    +0.000 C 
ATOM     18  C   UNL     1       7.629  15.436  23.355  0.00  0.00    +0.000 C 
ATOM     19  C   UNL     1       7.172  13.981  23.877  0.00  0.00    +0.000 C 
ATOM     20  C   UNL     1       5.660  14.020  23.592  0.00  0.00    +0.000 C 
ENDROOT
BRANCH  17  21
ATOM     21  C   UNL     1       6.254  15.733  20.958  0.00  0.00    +0.000 A 
ATOM     22  C   UNL     1       5.405  16.811  21.282  0.00  0.00    +0.000 A 
ATOM     23  C   UNL     1       4.231  17.107  20.577  0.00  0.00    +0.000 A 
ATOM     24  C   UNL     1       3.788  16.314  19.518  0.00  0.00    +0.000 A 
ATOM     25  C   UNL     1       4.573  15.181  19.235  0.00  0.00    +0.000 A 
ATOM     26  C   UNL     1       5.774  14.881  19.949  0.00  0.00    +0.000 A 
BRANCH  24  27
ATOM     27  C   UNL     1       2.578  16.719  18.749  0.00  0.00    +0.000 A 
ATOM     28  C   UNL     1       2.631  17.416  17.535  0.00  0.00    +0.000 A 
ATOM     29  C   UNL     1       1.459  17.829  16.893  0.00  0.00    +0.000 A 
ATOM     30  C   UNL     1       0.236  17.546  17.488  0.00  0.00    +0.000 A 
ATOM     31  N   UNL     1       0.122  16.881  18.648  0.00  0.00    +0.000 NA
ATOM     32  C   UNL     1       1.282  16.487  19.236  0.00  0.00    +0.000 A 
ENDBRANCH  24  27
ENDBRANCH  17  21
BRANCH   2  33
ATOM     33  C   UNL     1       6.127  12.065  25.595  0.00  0.00    +0.000 C 
ATOM     34  O   UNL     1       5.490  11.589  24.658  0.00  0.00    +0.000 OA
BRANCH  33  35
ATOM     35  C   UNL     1       5.690  11.631  26.985  0.00  0.00    +0.000 C 
ATOM     36  C   UNL     1       4.414  12.207  27.575  0.00  0.00    +0.000 C 
ATOM     37  C   UNL     1       4.466  10.759  27.196  0.00  0.00    +0.000 C 
ENDBRANCH  33  35
ENDBRANCH   2  33
TORSDOF 4
ENDMDL
MODEL 9
REMARK VINA RESULT:      -6.5      4.532      9.221
REMARK  Name = 
REMARK  6 active torsions:
REMARK  status: ('A' for Active; 'I' for Inactive)
REMARK    1  A    between atoms: C_1  and  C_2
REMARK    2  A    between atoms: C_2  and  C_3
REMARK    3  A    between atoms: C_3  and  C_5
REMARK    4  A    between atoms: C_22  and  C_23
REMARK    5  A    between atoms: C_26  and  C_27
REMARK    6  A    between atoms: C_36  and  C_37
REMARK                            x       y       z     vdW  Elec       q    Type
REMARK                         _______ _______ _______ _____ _____    ______ ____
ROOT
ATOM      1  C   UNL     1      -0.922  10.210  17.632  0.00  0.00    +0.000 C 
ATOM      2  C   UNL     1      -0.457  10.798  18.966  0.00  0.00    +0.000 C 
ATOM      3  C   UNL     1      -1.693  10.901  19.852  0.00  0.00    +0.000 C 
ATOM      4  C   UNL     1      -1.144  11.620  21.043  0.00  0.00    +0.000 C 
ATOM      5  C   UNL     1      -0.533  12.841  20.384  0.00  0.00    +0.000 C 
ATOM      6  C   UNL     1       0.169  13.888  21.241  0.00  0.00    +0.000 C 
ATOM      7  C   UNL     1      -0.415  13.857  22.698  0.00  0.00    +0.000 C 
ATOM      8  C   UNL     1      -0.987  15.151  23.217  0.00  0.00    +0.000 C 
ATOM      9  C   UNL     1      -0.157  16.256  22.694  0.00  0.00    +0.000 C 
ATOM     10  C   UNL     1       0.231  17.283  23.491  0.00  0.00    +0.000 C 
ATOM     11  C   UNL     1      -0.922  18.224  23.388  0.00  0.00    +0.000 C 
ATOM     12  O   UNL     1      -1.490  18.630  24.396  0.00  0.00    +0.000 OA
ATOM     13  C   UNL     1      -1.293  18.631  21.955  0.00  0.00    +0.000 C 
ATOM     14  C   UNL     1      -0.498  17.829  20.844  0.00  0.00    +0.000 C 
ATOM     15  C   UNL     1      -0.189  16.377  21.235  0.00  0.00    +0.000 C 
ATOM     16  C   UNL     1       0.086  15.242  20.512  0.00  0.00    +0.000 C 
ATOM     17  C   UNL     1       0.570  15.115  19.004  0.00  0.00    +0.000 C 
ATOM     18  C   UNL     1      -0.014  13.713  18.220  0.00  0.00    +0.000 C 
ATOM     19  C   UNL     1       0.199  12.360  19.072  0.00  0.00    +0.000 C 
ATOM     20  C   UNL     1       1.712  12.134  18.906  0.00  0.00    +0.000 C 
ENDROOT
BRANCH  17  21
ATOM     21  C   UNL     1       2.139  15.303  18.970  0.00  0.00    +0.000 A 
ATOM     22  C   UNL     1       2.908  15.191  20.146  0.00  0.00    +0.000 A 
ATOM     23  C   UNL     1       4.308  15.167  20.153  0.00  0.00    +0.000 A 
ATOM     24  C   UNL     1       5.053  15.303  18.981  0.00  0.00    +0.000 A 
ATOM     25  C   UNL     1       4.307  15.506  17.805  0.00  0.00    +0.000 A 
ATOM     26  C   UNL     1       2.878  15.525  17.796  0.00  0.00    +0.000 A 
BRANCH  24  27
ATOM     27  C   UNL     1       6.538  15.188  19.033  0.00  0.00    +0.000 A 
ATOM     28  C   UNL     1       7.352  15.169  17.893  0.00  0.00    +0.000 A 
ATOM     29  C   UNL     1       8.735  14.991  18.001  0.00  0.00    +0.000 A 
ATOM     30  C   UNL     1       9.289  14.820  19.263  0.00  0.00    +0.000 A 
ATOM     31  N   UNL     1       8.562  14.831  20.391  0.00  0.00    +0.000 NA
ATOM     32  C   UNL     1       7.223  15.017  20.245  0.00  0.00    +0.000 A 
ENDBRANCH  24  27
ENDBRANCH  17  21
BRANCH   2  33
ATOM     33  C   UNL     1       0.520   9.647  19.571  0.00  0.00    +0.000 C 
ATOM     34  O   UNL     1       1.210   8.930  18.851  0.00  0.00    +0.000 OA
BRANCH  33  35
ATOM     35  C   UNL     1       0.539   9.316  21.054  0.00  0.00    +0.000 C 
ATOM     36  C   UNL     1      -0.317   8.171  21.570  0.00  0.00    +0.000 C 
ATOM     37  C   UNL     1       1.175   8.039  21.575  0.00  0.00    +0.000 C 
ENDBRANCH  33  35
ENDBRANCH   2  33
TORSDOF 4
ENDMDL
