MODEL 1
REMARK VINA RESULT:      -7.4      0.000      0.000
REMARK  Name = 
REMARK  13 active torsions:
REMARK  status: ('A' for Active; 'I' for Inactive)
REMARK    1  A    between atoms: C_1  and  O_2
REMARK    2  A    between atoms: O_2  and  C_3
REMARK    3  A    between atoms: C_3  and  C_4
REMARK    4  A    between atoms: C_4  and  N_5
REMARK    5  A    between atoms: N_5  and  C_6
REMARK    6  A    between atoms: C_6  and  C_7
REMARK    7  A    between atoms: C_7  and  O_8
REMARK    8  A    between atoms: O_8  and  C_9
REMARK    9  A    between atoms: C_10  and  C_12
REMARK   10  A    between atoms: C_15  and  N_16
REMARK   11  A    between atoms: N_16  and  S_17
REMARK   12  A    between atoms: S_17  and  C_20
REMARK   13  A    between atoms: C_25  and  O_26
REMARK                            x       y       z     vdW  Elec       q    Type
REMARK                         _______ _______ _______ _____ _____    ______ ____
ROOT
ATOM      1  C   UNL     1       1.145   9.469  19.336  0.00  0.00    +0.000 A 
ATOM      2  C   UNL     1       1.962   8.859  18.376  0.00  0.00    +0.000 A 
ATOM      3  C   UNL     1       2.489   7.581  18.599  0.00  0.00    +0.000 A 
ATOM      4  C   UNL     1       2.283   6.948  19.823  0.00  0.00    +0.000 A 
ATOM      5  C   UNL     1       1.529   7.571  20.813  0.00  0.00    +0.000 A 
ATOM      6  C   UNL     1       0.962   8.826  20.570  0.00  0.00    +0.000 A 
ENDROOT
BRANCH   1   8
ATOM      7  N   UNL     1      -0.654  11.013  18.416  0.00  0.00    +0.000 N 
ATOM      8  C   UNL     1       0.527  10.820  19.161  0.00  0.00    +0.000 C 
ATOM      9  O   UNL     1       1.110  11.748  19.728  0.00  0.00    +0.000 OA
BRANCH   7  10
ATOM     10  C   UNL     1      -1.058  12.416  18.167  0.00  0.00    +0.000 C 
BRANCH  10  11
ATOM     11  C   UNL     1      -1.742  13.164  19.331  0.00  0.00    +0.000 C 
BRANCH  11  13
ATOM     12  C   UNL     1      -3.765  12.903  20.534  0.00  0.00    +0.000 C 
ATOM     13  O   UNL     1      -2.505  12.337  20.204  0.00  0.00    +0.000 OA
ENDBRANCH  11  13
ENDBRANCH  10  11
ENDBRANCH   7  10
BRANCH   7  14
ATOM     14  C   UNL     1      -1.346   9.934  17.688  0.00  0.00    +0.000 C 
BRANCH  14  15
ATOM     15  C   UNL     1      -2.854   9.820  17.884  0.00  0.00    +0.000 C 
BRANCH  15  16
ATOM     16  O   UNL     1      -3.542  10.196  16.691  0.00  0.00    +0.000 OA
ATOM     17  C   UNL     1      -2.642  10.196  15.586  0.00  0.00    +0.000 C 
ENDBRANCH  15  16
ENDBRANCH  14  15
ENDBRANCH   7  14
ENDBRANCH   1   8
BRANCH   4  18
ATOM     18  N   UNL     1       2.803   5.654  20.087  0.00  0.00    +0.000 N 
ATOM     19  H   UNL     1       2.611   5.251  21.005  0.00  0.00    +0.000 HD
BRANCH  18  20
ATOM     20  S   UNL     1       2.736   4.477  18.883  0.00  0.00    +0.000 S 
ATOM     21  O   UNL     1       2.789   3.205  19.573  0.00  0.00    +0.000 OA
ATOM     22  O   UNL     1       1.644   4.777  17.980  0.00  0.00    +0.000 OA
BRANCH  20  23
ATOM     23  C   UNL     1       4.266   4.681  17.998  0.00  0.00    +0.000 A 
ATOM     24  C   UNL     1       5.381   5.162  18.697  0.00  0.00    +0.000 A 
ATOM     25  C   UNL     1       6.575   5.464  18.032  0.00  0.00    +0.000 A 
ATOM     26  C   UNL     1       6.582   5.274  16.651  0.00  0.00    +0.000 A 
ATOM     27  N   UNL     1       7.541   5.501  15.696  0.00  0.00    +0.000 N 
ATOM     28  C   UNL     1       7.018   5.146  14.486  0.00  0.00    +0.000 A 
ATOM     29  N   UNL     1       5.786   4.710  14.594  0.00  0.00    +0.000 NA
ATOM     30  C   UNL     1       5.491   4.792  15.935  0.00  0.00    +0.000 A 
ATOM     31  C   UNL     1       4.298   4.484  16.607  0.00  0.00    +0.000 A 
ATOM     32  H   UNL     1       8.461   5.879  15.864  0.00  0.00    +0.000 HD
BRANCH  28  33
ATOM     33  O   UNL     1       7.662   5.228  13.337  0.00  0.00    +0.000 OA
ATOM     34  H   UNL     1       7.528   6.109  12.959  0.00  0.00    +0.000 HD
ENDBRANCH  28  33
ENDBRANCH  20  23
ENDBRANCH  18  20
ENDBRANCH   4  18
TORSDOF 11
ENDMDL
MODEL 2
REMARK VINA RESULT:      -7.3      1.610      2.685
REMARK  Name = 
REMARK  13 active torsions:
REMARK  status: ('A' for Active; 'I' for Inactive)
REMARK    1  A    between atoms: C_1  and  O_2
REMARK    2  A    between atoms: O_2  and  C_3
REMARK    3  A    between atoms: C_3  and  C_4
REMARK    4  A    between atoms: C_4  and  N_5
REMARK    5  A    between atoms: N_5  and  C_6
REMARK    6  A    between atoms: C_6  and  C_7
REMARK    7  A    between atoms: C_7  and  O_8
REMARK    8  A    between atoms: O_8  and  C_9
REMARK    9  A    between atoms: C_10  and  C_12
REMARK   10  A    between atoms: C_15  and  N_16
REMARK   11  A    between atoms: N_16  and  S_17
REMARK   12  A    between atoms: S_17  and  C_20
REMARK   13  A    between atoms: C_25  and  O_26
REMARK                            x       y       z     vdW  Elec       q    Type
REMARK                         _______ _______ _______ _____ _____    ______ ____
ROOT
ATOM      1  C   UNL     1       0.948   9.476  18.848  0.00  0.00    +0.000 A 
ATOM      2  C   UNL     1       1.858   8.901  17.953  0.00  0.00    +0.000 A 
ATOM      3  C   UNL     1       2.578   7.754  18.308  0.00  0.00    +0.000 A 
ATOM      4  C   UNL     1       2.463   7.233  19.595  0.00  0.00    +0.000 A 
ATOM      5  C   UNL     1       1.613   7.834  20.519  0.00  0.00    +0.000 A 
ATOM      6  C   UNL     1       0.858   8.950  20.147  0.00  0.00    +0.000 A 
ENDROOT
BRANCH   1   8
ATOM      7  N   UNL     1       0.590  11.994  18.786  0.00  0.00    +0.000 N 
ATOM      8  C   UNL     1       0.127  10.686  18.534  0.00  0.00    +0.000 C 
ATOM      9  O   UNL     1      -0.974  10.463  18.022  0.00  0.00    +0.000 OA
BRANCH   7  10
ATOM     10  C   UNL     1      -0.388  13.090  18.602  0.00  0.00    +0.000 C 
BRANCH  10  11
ATOM     11  C   UNL     1      -1.467  13.256  19.693  0.00  0.00    +0.000 C 
BRANCH  11  13
ATOM     12  C   UNL     1      -1.474  11.988  21.694  0.00  0.00    +0.000 C 
ATOM     13  O   UNL     1      -0.985  13.143  21.029  0.00  0.00    +0.000 OA
ENDBRANCH  11  13
ENDBRANCH  10  11
ENDBRANCH   7  10
BRANCH   7  14
ATOM     14  C   UNL     1       1.878  12.291  19.440  0.00  0.00    +0.000 C 
BRANCH  14  15
ATOM     15  C   UNL     1       2.249  13.761  19.603  0.00  0.00    +0.000 C 
BRANCH  15  16
ATOM     16  O   UNL     1       3.457  14.052  18.897  0.00  0.00    +0.000 OA
ATOM     17  C   UNL     1       3.201  14.992  17.857  0.00  0.00    +0.000 C 
ENDBRANCH  15  16
ENDBRANCH  14  15
ENDBRANCH   7  14
ENDBRANCH   1   8
BRANCH   4  18
ATOM     18  N   UNL     1       3.178   6.074  19.994  0.00  0.00    +0.000 N 
ATOM     19  H   UNL     1       3.173   5.839  20.987  0.00  0.00    +0.000 HD
BRANCH  18  20
ATOM     20  S   UNL     1       3.092   4.684  19.043  0.00  0.00    +0.000 S 
ATOM     21  O   UNL     1       3.317   3.575  19.946  0.00  0.00    +0.000 OA
ATOM     22  O   UNL     1       1.896   4.736  18.228  0.00  0.00    +0.000 OA
BRANCH  20  23
ATOM     23  C   UNL     1       4.506   4.810  17.970  0.00  0.00    +0.000 A 
ATOM     24  C   UNL     1       5.640   5.486  18.440  0.00  0.00    +0.000 A 
ATOM     25  C   UNL     1       6.734   5.729  17.601  0.00  0.00    +0.000 A 
ATOM     26  C   UNL     1       6.622   5.277  16.287  0.00  0.00    +0.000 A 
ATOM     27  N   UNL     1       7.461   5.376  15.206  0.00  0.00    +0.000 N 
ATOM     28  C   UNL     1       6.854   4.762  14.148  0.00  0.00    +0.000 A 
ATOM     29  N   UNL     1       5.678   4.278  14.472  0.00  0.00    +0.000 NA
ATOM     30  C   UNL     1       5.510   4.599  15.798  0.00  0.00    +0.000 A 
ATOM     31  C   UNL     1       4.418   4.351  16.645  0.00  0.00    +0.000 A 
ATOM     32  H   UNL     1       8.358   5.836  15.197  0.00  0.00    +0.000 HD
BRANCH  28  33
ATOM     33  O   UNL     1       7.373   4.662  12.940  0.00  0.00    +0.000 OA
ATOM     34  H   UNL     1       8.335   4.576  13.011  0.00  0.00    +0.000 HD
ENDBRANCH  28  33
ENDBRANCH  20  23
ENDBRANCH  18  20
ENDBRANCH   4  18
TORSDOF 11
ENDMDL
MODEL 3
REMARK VINA RESULT:      -7.2      3.082     10.323
REMARK  Name = 
REMARK  13 active torsions:
REMARK  status: ('A' for Active; 'I' for Inactive)
REMARK    1  A    between atoms: C_1  and  O_2
REMARK    2  A    between atoms: O_2  and  C_3
REMARK    3  A    between atoms: C_3  and  C_4
REMARK    4  A    between atoms: C_4  and  N_5
REMARK    5  A    between atoms: N_5  and  C_6
REMARK    6  A    between atoms: C_6  and  C_7
REMARK    7  A    between atoms: C_7  and  O_8
REMARK    8  A    between atoms: O_8  and  C_9
REMARK    9  A    between atoms: C_10  and  C_12
REMARK   10  A    between atoms: C_15  and  N_16
REMARK   11  A    between atoms: N_16  and  S_17
REMARK   12  A    between atoms: S_17  and  C_20
REMARK   13  A    between atoms: C_25  and  O_26
REMARK                            x       y       z     vdW  Elec       q    Type
REMARK                         _______ _______ _______ _____ _____    ______ ____
ROOT
ATOM      1  C   UNL     1       2.296   7.589  19.006  0.00  0.00    +0.000 A 
ATOM      2  C   UNL     1       2.158   8.418  17.887  0.00  0.00    +0.000 A 
ATOM      3  C   UNL     1       1.586   9.690  18.009  0.00  0.00    +0.000 A 
ATOM      4  C   UNL     1       1.062  10.101  19.233  0.00  0.00    +0.000 A 
ATOM      5  C   UNL     1       1.131   9.261  20.340  0.00  0.00    +0.000 A 
ATOM      6  C   UNL     1       1.747   8.010  20.228  0.00  0.00    +0.000 A 
ENDROOT
BRANCH   1   8
ATOM      7  N   UNL     1       4.026   5.938  18.140  0.00  0.00    +0.000 N 
ATOM      8  C   UNL     1       2.917   6.229  18.960  0.00  0.00    +0.000 C 
ATOM      9  O   UNL     1       2.403   5.385  19.700  0.00  0.00    +0.000 OA
BRANCH   7  10
ATOM     10  C   UNL     1       4.427   4.516  18.047  0.00  0.00    +0.000 C 
BRANCH  10  11
ATOM     11  C   UNL     1       5.711   4.100  18.796  0.00  0.00    +0.000 C 
BRANCH  11  13
ATOM     12  C   UNL     1       7.445   5.632  19.303  0.00  0.00    +0.000 C 
ATOM     13  O   UNL     1       6.206   5.072  19.713  0.00  0.00    +0.000 OA
ENDBRANCH  11  13
ENDBRANCH  10  11
ENDBRANCH   7  10
BRANCH   7  14
ATOM     14  C   UNL     1       4.630   6.909  17.209  0.00  0.00    +0.000 C 
BRANCH  14  15
ATOM     15  C   UNL     1       5.130   6.371  15.873  0.00  0.00    +0.000 C 
BRANCH  15  16
ATOM     16  O   UNL     1       6.536   6.125  15.929  0.00  0.00    +0.000 OA
ATOM     17  C   UNL     1       6.854   4.944  15.196  0.00  0.00    +0.000 C 
ENDBRANCH  15  16
ENDBRANCH  14  15
ENDBRANCH   7  14
ENDBRANCH   1   8
BRANCH   4  18
ATOM     18  N   UNL     1       0.472  11.382  19.396  0.00  0.00    +0.000 N 
ATOM     19  H   UNL     1       1.003  12.188  19.067  0.00  0.00    +0.000 HD
BRANCH  18  20
ATOM     20  S   UNL     1      -1.175  11.576  19.088  0.00  0.00    +0.000 S 
ATOM     21  O   UNL     1      -1.281  12.755  18.254  0.00  0.00    +0.000 OA
ATOM     22  O   UNL     1      -1.731  10.314  18.647  0.00  0.00    +0.000 OA
BRANCH  20  23
ATOM     23  C   UNL     1      -1.866  11.968  20.679  0.00  0.00    +0.000 A 
ATOM     24  C   UNL     1      -1.171  11.562  21.826  0.00  0.00    +0.000 A 
ATOM     25  C   UNL     1      -1.724  11.727  23.101  0.00  0.00    +0.000 A 
ATOM     26  C   UNL     1      -2.994  12.298  23.158  0.00  0.00    +0.000 A 
ATOM     27  N   UNL     1      -3.836  12.565  24.209  0.00  0.00    +0.000 N 
ATOM     28  C   UNL     1      -4.972  13.127  23.701  0.00  0.00    +0.000 A 
ATOM     29  N   UNL     1      -4.923  13.237  22.395  0.00  0.00    +0.000 NA
ATOM     30  C   UNL     1      -3.702  12.715  22.036  0.00  0.00    +0.000 A 
ATOM     31  C   UNL     1      -3.141  12.554  20.759  0.00  0.00    +0.000 A 
ATOM     32  H   UNL     1      -3.649  12.364  25.179  0.00  0.00    +0.000 HD
BRANCH  28  33
ATOM     33  O   UNL     1      -6.004  13.516  24.425  0.00  0.00    +0.000 OA
ATOM     34  H   UNL     1      -6.068  14.482  24.398  0.00  0.00    +0.000 HD
ENDBRANCH  28  33
ENDBRANCH  20  23
ENDBRANCH  18  20
ENDBRANCH   4  18
TORSDOF 11
ENDMDL
MODEL 4
REMARK VINA RESULT:      -7.2      1.054      1.468
REMARK  Name = 
REMARK  13 active torsions:
REMARK  status: ('A' for Active; 'I' for Inactive)
REMARK    1  A    between atoms: C_1  and  O_2
REMARK    2  A    between atoms: O_2  and  C_3
REMARK    3  A    between atoms: C_3  and  C_4
REMARK    4  A    between atoms: C_4  and  N_5
REMARK    5  A    between atoms: N_5  and  C_6
REMARK    6  A    between atoms: C_6  and  C_7
REMARK    7  A    between atoms: C_7  and  O_8
REMARK    8  A    between atoms: O_8  and  C_9
REMARK    9  A    between atoms: C_10  and  C_12
REMARK   10  A    between atoms: C_15  and  N_16
REMARK   11  A    between atoms: N_16  and  S_17
REMARK   12  A    between atoms: S_17  and  C_20
REMARK   13  A    between atoms: C_25  and  O_26
REMARK                            x       y       z     vdW  Elec       q    Type
REMARK                         _______ _______ _______ _____ _____    ______ ____
ROOT
ATOM      1  C   UNL     1       1.448   9.517  19.213  0.00  0.00    +0.000 A 
ATOM      2  C   UNL     1       1.077   8.916  20.423  0.00  0.00    +0.000 A 
ATOM      3  C   UNL     1       1.516   7.625  20.740  0.00  0.00    +0.000 A 
ATOM      4  C   UNL     1       2.246   6.891  19.809  0.00  0.00    +0.000 A 
ATOM      5  C   UNL     1       2.565   7.449  18.575  0.00  0.00    +0.000 A 
ATOM      6  C   UNL     1       2.169   8.757  18.278  0.00  0.00    +0.000 A 
ENDROOT
BRANCH   1   8
ATOM      7  N   UNL     1      -0.311  11.251  18.606  0.00  0.00    +0.000 N 
ATOM      8  C   UNL     1       1.039  10.899  18.814  0.00  0.00    +0.000 C 
ATOM      9  O   UNL     1       1.960  11.712  18.696  0.00  0.00    +0.000 OA
BRANCH   7  10
ATOM     10  C   UNL     1      -0.564  12.594  18.037  0.00  0.00    +0.000 C 
BRANCH  10  11
ATOM     11  C   UNL     1      -0.913  13.721  19.032  0.00  0.00    +0.000 C 
BRANCH  11  13
ATOM     12  C   UNL     1       0.375  13.912  21.011  0.00  0.00    +0.000 C 
ATOM     13  O   UNL     1       0.211  14.328  19.663  0.00  0.00    +0.000 OA
ENDBRANCH  11  13
ENDBRANCH  10  11
ENDBRANCH   7  10
BRANCH   7  14
ATOM     14  C   UNL     1      -1.427  10.292  18.690  0.00  0.00    +0.000 C 
BRANCH  14  15
ATOM     15  C   UNL     1      -2.062   9.850  17.376  0.00  0.00    +0.000 C 
BRANCH  15  16
ATOM     16  O   UNL     1      -3.487   9.917  17.463  0.00  0.00    +0.000 OA
ATOM     17  C   UNL     1      -3.939  11.216  17.092  0.00  0.00    +0.000 C 
ENDBRANCH  15  16
ENDBRANCH  14  15
ENDBRANCH   7  14
ENDBRANCH   1   8
BRANCH   4  18
ATOM     18  N   UNL     1       2.706   5.579  20.092  0.00  0.00    +0.000 N 
ATOM     19  H   UNL     1       2.508   5.203  21.020  0.00  0.00    +0.000 HD
BRANCH  18  20
ATOM     20  S   UNL     1       2.564   4.383  18.912  0.00  0.00    +0.000 S 
ATOM     21  O   UNL     1       2.504   3.127  19.632  0.00  0.00    +0.000 OA
ATOM     22  O   UNL     1       1.514   4.748  17.985  0.00  0.00    +0.000 OA
BRANCH  20  23
ATOM     23  C   UNL     1       4.119   4.443  18.050  0.00  0.00    +0.000 A 
ATOM     24  C   UNL     1       5.295   4.554  18.804  0.00  0.00    +0.000 A 
ATOM     25  C   UNL     1       6.536   4.735  18.183  0.00  0.00    +0.000 A 
ATOM     26  C   UNL     1       6.529   4.810  16.791  0.00  0.00    +0.000 A 
ATOM     27  N   UNL     1       7.530   5.018  15.876  0.00  0.00    +0.000 N 
ATOM     28  C   UNL     1       6.968   5.007  14.632  0.00  0.00    +0.000 A 
ATOM     29  N   UNL     1       5.672   4.811  14.681  0.00  0.00    +0.000 NA
ATOM     30  C   UNL     1       5.377   4.697  16.020  0.00  0.00    +0.000 A 
ATOM     31  C   UNL     1       4.135   4.509  16.647  0.00  0.00    +0.000 A 
ATOM     32  H   UNL     1       8.504   5.168  16.093  0.00  0.00    +0.000 HD
BRANCH  28  33
ATOM     33  O   UNL     1       7.635   5.175  13.506  0.00  0.00    +0.000 OA
ATOM     34  H   UNL     1       8.457   4.665  13.542  0.00  0.00    +0.000 HD
ENDBRANCH  28  33
ENDBRANCH  20  23
ENDBRANCH  18  20
ENDBRANCH   4  18
TORSDOF 11
ENDMDL
MODEL 5
REMARK VINA RESULT:      -7.2      1.732      2.989
REMARK  Name = 
REMARK  13 active torsions:
REMARK  status: ('A' for Active; 'I' for Inactive)
REMARK    1  A    between atoms: C_1  and  O_2
REMARK    2  A    between atoms: O_2  and  C_3
REMARK    3  A    between atoms: C_3  and  C_4
REMARK    4  A    between atoms: C_4  and  N_5
REMARK    5  A    between atoms: N_5  and  C_6
REMARK    6  A    between atoms: C_6  and  C_7
REMARK    7  A    between atoms: C_7  and  O_8
REMARK    8  A    between atoms: O_8  and  C_9
REMARK    9  A    between atoms: C_10  and  C_12
REMARK   10  A    between atoms: C_15  and  N_16
REMARK   11  A    between atoms: N_16  and  S_17
REMARK   12  A    between atoms: S_17  and  C_20
REMARK   13  A    between atoms: C_25  and  O_26
REMARK                            x       y       z     vdW  Elec       q    Type
REMARK                         _______ _______ _______ _____ _____    ______ ____
ROOT
ATOM      1  C   UNL     1       0.858   9.634  19.032  0.00  0.00    +0.000 A 
ATOM      2  C   UNL     1       1.741   8.993  18.156  0.00  0.00    +0.000 A 
ATOM      3  C   UNL     1       2.403   7.821  18.543  0.00  0.00    +0.000 A 
ATOM      4  C   UNL     1       2.259   7.339  19.842  0.00  0.00    +0.000 A 
ATOM      5  C   UNL     1       1.436   8.004  20.746  0.00  0.00    +0.000 A 
ATOM      6  C   UNL     1       0.737   9.146  20.343  0.00  0.00    +0.000 A 
ENDROOT
BRANCH   1   8
ATOM      7  N   UNL     1       0.701  12.149  18.682  0.00  0.00    +0.000 N 
ATOM      8  C   UNL     1       0.098  10.875  18.684  0.00  0.00    +0.000 C 
ATOM      9  O   UNL     1      -1.087  10.704  18.381  0.00  0.00    +0.000 OA
BRANCH   7  10
ATOM     10  C   UNL     1      -0.200  13.309  18.500  0.00  0.00    +0.000 C 
BRANCH  10  11
ATOM     11  C   UNL     1      -0.946  13.818  19.752  0.00  0.00    +0.000 C 
BRANCH  11  13
ATOM     12  C   UNL     1      -0.329  15.908  18.824  0.00  0.00    +0.000 C 
ATOM     13  O   UNL     1      -1.029  15.236  19.860  0.00  0.00    +0.000 OA
ENDBRANCH  11  13
ENDBRANCH  10  11
ENDBRANCH   7  10
BRANCH   7  14
ATOM     14  C   UNL     1       2.099  12.390  19.086  0.00  0.00    +0.000 C 
BRANCH  14  15
ATOM     15  C   UNL     1       2.538  13.843  19.228  0.00  0.00    +0.000 C 
BRANCH  15  16
ATOM     16  O   UNL     1       3.261  14.030  20.446  0.00  0.00    +0.000 OA
ATOM     17  C   UNL     1       2.526  14.877  21.326  0.00  0.00    +0.000 C 
ENDBRANCH  15  16
ENDBRANCH  14  15
ENDBRANCH   7  14
ENDBRANCH   1   8
BRANCH   4  18
ATOM     18  N   UNL     1       2.915   6.157  20.273  0.00  0.00    +0.000 N 
ATOM     19  H   UNL     1       2.896   5.948  21.271  0.00  0.00    +0.000 HD
BRANCH  18  20
ATOM     20  S   UNL     1       2.762   4.749  19.357  0.00  0.00    +0.000 S 
ATOM     21  O   UNL     1       2.821   3.656  20.305  0.00  0.00    +0.000 OA
ATOM     22  O   UNL     1       1.634   4.883  18.459  0.00  0.00    +0.000 OA
BRANCH  20  23
ATOM     23  C   UNL     1       4.250   4.707  18.384  0.00  0.00    +0.000 A 
ATOM     24  C   UNL     1       5.483   4.751  19.049  0.00  0.00    +0.000 A 
ATOM     25  C   UNL     1       6.684   4.850  18.337  0.00  0.00    +0.000 A 
ATOM     26  C   UNL     1       6.580   4.915  16.948  0.00  0.00    +0.000 A 
ATOM     27  N   UNL     1       7.522   5.054  15.961  0.00  0.00    +0.000 N 
ATOM     28  C   UNL     1       6.871   5.069  14.761  0.00  0.00    +0.000 A 
ATOM     29  N   UNL     1       5.573   4.954  14.907  0.00  0.00    +0.000 NA
ATOM     30  C   UNL     1       5.370   4.868  16.264  0.00  0.00    +0.000 A 
ATOM     31  C   UNL     1       4.168   4.762  16.982  0.00  0.00    +0.000 A 
ATOM     32  H   UNL     1       8.516   5.146  16.105  0.00  0.00    +0.000 HD
BRANCH  28  33
ATOM     33  O   UNL     1       7.463   5.188  13.588  0.00  0.00    +0.000 OA
ATOM     34  H   UNL     1       7.827   4.330  13.326  0.00  0.00    +0.000 HD
ENDBRANCH  28  33
ENDBRANCH  20  23
ENDBRANCH  18  20
ENDBRANCH   4  18
TORSDOF 11
ENDMDL
MODEL 6
REMARK VINA RESULT:      -7.2      1.678      2.851
REMARK  Name = 
REMARK  13 active torsions:
REMARK  status: ('A' for Active; 'I' for Inactive)
REMARK    1  A    between atoms: C_1  and  O_2
REMARK    2  A    between atoms: O_2  and  C_3
REMARK    3  A    between atoms: C_3  and  C_4
REMARK    4  A    between atoms: C_4  and  N_5
REMARK    5  A    between atoms: N_5  and  C_6
REMARK    6  A    between atoms: C_6  and  C_7
REMARK    7  A    between atoms: C_7  and  O_8
REMARK    8  A    between atoms: O_8  and  C_9
REMARK    9  A    between atoms: C_10  and  C_12
REMARK   10  A    between atoms: C_15  and  N_16
REMARK   11  A    between atoms: N_16  and  S_17
REMARK   12  A    between atoms: S_17  and  C_20
REMARK   13  A    between atoms: C_25  and  O_26
REMARK                            x       y       z     vdW  Elec       q    Type
REMARK                         _______ _______ _______ _____ _____    ______ ____
ROOT
ATOM      1  C   UNL     1       0.817   9.647  19.153  0.00  0.00    +0.000 A 
ATOM      2  C   UNL     1       0.642   9.039  20.402  0.00  0.00    +0.000 A 
ATOM      3  C   UNL     1       1.387   7.907  20.753  0.00  0.00    +0.000 A 
ATOM      4  C   UNL     1       2.240   7.320  19.820  0.00  0.00    +0.000 A 
ATOM      5  C   UNL     1       2.374   7.874  18.551  0.00  0.00    +0.000 A 
ATOM      6  C   UNL     1       1.666   9.034  18.218  0.00  0.00    +0.000 A 
ENDROOT
BRANCH   1   8
ATOM      7  N   UNL     1       0.680  12.145  18.690  0.00  0.00    +0.000 N 
ATOM      8  C   UNL     1       0.076  10.871  18.714  0.00  0.00    +0.000 C 
ATOM      9  O   UNL     1      -1.091  10.686  18.359  0.00  0.00    +0.000 OA
BRANCH   7  10
ATOM     10  C   UNL     1      -0.211  13.295  18.415  0.00  0.00    +0.000 C 
BRANCH  10  11
ATOM     11  C   UNL     1      -0.892  13.960  19.630  0.00  0.00    +0.000 C 
BRANCH  11  13
ATOM     12  C   UNL     1      -2.283  12.706  21.081  0.00  0.00    +0.000 C 
ATOM     13  O   UNL     1      -0.962  13.142  20.794  0.00  0.00    +0.000 OA
ENDBRANCH  11  13
ENDBRANCH  10  11
ENDBRANCH   7  10
BRANCH   7  14
ATOM     14  C   UNL     1       2.054  12.405  19.155  0.00  0.00    +0.000 C 
BRANCH  14  15
ATOM     15  C   UNL     1       2.552  13.845  19.077  0.00  0.00    +0.000 C 
BRANCH  15  16
ATOM     16  O   UNL     1       3.588  13.962  18.100  0.00  0.00    +0.000 OA
ATOM     17  C   UNL     1       3.716  15.319  17.684  0.00  0.00    +0.000 C 
ENDBRANCH  15  16
ENDBRANCH  14  15
ENDBRANCH   7  14
ENDBRANCH   1   8
BRANCH   4  18
ATOM     18  N   UNL     1       3.010   6.171  20.138  0.00  0.00    +0.000 N 
ATOM     19  H   UNL     1       3.124   5.942  21.125  0.00  0.00    +0.000 HD
BRANCH  18  20
ATOM     20  S   UNL     1       2.826   4.775  19.210  0.00  0.00    +0.000 S 
ATOM     21  O   UNL     1       2.856   3.673  20.149  0.00  0.00    +0.000 OA
ATOM     22  O   UNL     1       1.704   4.942  18.310  0.00  0.00    +0.000 OA
BRANCH  20  23
ATOM     23  C   UNL     1       4.316   4.706  18.240  0.00  0.00    +0.000 A 
ATOM     24  C   UNL     1       5.548   4.726  18.909  0.00  0.00    +0.000 A 
ATOM     25  C   UNL     1       6.752   4.803  18.200  0.00  0.00    +0.000 A 
ATOM     26  C   UNL     1       6.653   4.871  16.812  0.00  0.00    +0.000 A 
ATOM     27  N   UNL     1       7.601   4.992  15.827  0.00  0.00    +0.000 N 
ATOM     28  C   UNL     1       6.954   5.019  14.625  0.00  0.00    +0.000 A 
ATOM     29  N   UNL     1       5.653   4.928  14.767  0.00  0.00    +0.000 NA
ATOM     30  C   UNL     1       5.444   4.845  16.124  0.00  0.00    +0.000 A 
ATOM     31  C   UNL     1       4.238   4.762  16.838  0.00  0.00    +0.000 A 
ATOM     32  H   UNL     1       8.596   5.065  15.973  0.00  0.00    +0.000 HD
BRANCH  28  33
ATOM     33  O   UNL     1       7.551   5.127  13.453  0.00  0.00    +0.000 OA
ATOM     34  H   UNL     1       7.983   5.991  13.393  0.00  0.00    +0.000 HD
ENDBRANCH  28  33
ENDBRANCH  20  23
ENDBRANCH  18  20
ENDBRANCH   4  18
TORSDOF 11
ENDMDL
MODEL 7
REMARK VINA RESULT:      -7.1      2.174      3.631
REMARK  Name = 
REMARK  13 active torsions:
REMARK  status: ('A' for Active; 'I' for Inactive)
REMARK    1  A    between atoms: C_1  and  O_2
REMARK    2  A    between atoms: O_2  and  C_3
REMARK    3  A    between atoms: C_3  and  C_4
REMARK    4  A    between atoms: C_4  and  N_5
REMARK    5  A    between atoms: N_5  and  C_6
REMARK    6  A    between atoms: C_6  and  C_7
REMARK    7  A    between atoms: C_7  and  O_8
REMARK    8  A    between atoms: O_8  and  C_9
REMARK    9  A    between atoms: C_10  and  C_12
REMARK   10  A    between atoms: C_15  and  N_16
REMARK   11  A    between atoms: N_16  and  S_17
REMARK   12  A    between atoms: S_17  and  C_20
REMARK   13  A    between atoms: C_25  and  O_26
REMARK                            x       y       z     vdW  Elec       q    Type
REMARK                         _______ _______ _______ _____ _____    ______ ____
ROOT
ATOM      1  C   UNL     1       1.993   7.216  18.833  0.00  0.00    +0.000 A 
ATOM      2  C   UNL     1       2.305   6.779  20.127  0.00  0.00    +0.000 A 
ATOM      3  C   UNL     1       2.515   5.420  20.387  0.00  0.00    +0.000 A 
ATOM      4  C   UNL     1       2.319   4.481  19.377  0.00  0.00    +0.000 A 
ATOM      5  C   UNL     1       1.942   4.894  18.103  0.00  0.00    +0.000 A 
ATOM      6  C   UNL     1       1.781   6.256  17.831  0.00  0.00    +0.000 A 
ENDROOT
BRANCH   1   8
ATOM      7  N   UNL     1       1.159   9.562  19.354  0.00  0.00    +0.000 N 
ATOM      8  C   UNL     1       1.777   8.652  18.472  0.00  0.00    +0.000 C 
ATOM      9  O   UNL     1       2.193   8.988  17.360  0.00  0.00    +0.000 OA
BRANCH   7  10
ATOM     10  C   UNL     1       0.840  10.901  18.807  0.00  0.00    +0.000 C 
BRANCH  10  11
ATOM     11  C   UNL     1      -0.643  11.196  18.499  0.00  0.00    +0.000 C 
BRANCH  11  13
ATOM     12  C   UNL     1      -2.259  10.549  16.893  0.00  0.00    +0.000 C 
ATOM     13  O   UNL     1      -1.352  10.117  17.896  0.00  0.00    +0.000 OA
ENDBRANCH  11  13
ENDBRANCH  10  11
ENDBRANCH   7  10
BRANCH   7  14
ATOM     14  C   UNL     1       0.607   9.180  20.667  0.00  0.00    +0.000 C 
BRANCH  14  15
ATOM     15  C   UNL     1       1.086   9.975  21.877  0.00  0.00    +0.000 C 
BRANCH  15  16
ATOM     16  O   UNL     1       0.371   9.579  23.049  0.00  0.00    +0.000 OA
ATOM     17  C   UNL     1      -0.862  10.289  23.132  0.00  0.00    +0.000 C 
ENDBRANCH  15  16
ENDBRANCH  14  15
ENDBRANCH   7  14
ENDBRANCH   1   8
BRANCH   4  18
ATOM     18  N   UNL     1       2.519   3.094  19.603  0.00  0.00    +0.000 N 
ATOM     19  H   UNL     1       1.733   2.471  19.417  0.00  0.00    +0.000 HD
BRANCH  18  20
ATOM     20  S   UNL     1       3.976   2.385  19.136  0.00  0.00    +0.000 S 
ATOM     21  O   UNL     1       4.732   2.202  20.358  0.00  0.00    +0.000 OA
ATOM     22  O   UNL     1       3.704   1.260  18.266  0.00  0.00    +0.000 OA
BRANCH  20  23
ATOM     23  C   UNL     1       4.782   3.650  18.180  0.00  0.00    +0.000 A 
ATOM     24  C   UNL     1       4.779   3.533  16.783  0.00  0.00    +0.000 A 
ATOM     25  C   UNL     1       5.503   4.424  15.983  0.00  0.00    +0.000 A 
ATOM     26  C   UNL     1       6.226   5.411  16.650  0.00  0.00    +0.000 A 
ATOM     27  N   UNL     1       7.060   6.404  16.199  0.00  0.00    +0.000 N 
ATOM     28  C   UNL     1       7.517   7.091  17.286  0.00  0.00    +0.000 A 
ATOM     29  N   UNL     1       7.039   6.609  18.408  0.00  0.00    +0.000 NA
ATOM     30  C   UNL     1       6.241   5.553  18.034  0.00  0.00    +0.000 A 
ATOM     31  C   UNL     1       5.508   4.661  18.832  0.00  0.00    +0.000 A 
ATOM     32  H   UNL     1       7.301   6.577  15.235  0.00  0.00    +0.000 HD
BRANCH  28  33
ATOM     33  O   UNL     1       8.343   8.119  17.231  0.00  0.00    +0.000 OA
ATOM     34  H   UNL     1       8.161   8.633  16.431  0.00  0.00    +0.000 HD
ENDBRANCH  28  33
ENDBRANCH  20  23
ENDBRANCH  18  20
ENDBRANCH   4  18
TORSDOF 11
ENDMDL
MODEL 8
REMARK VINA RESULT:      -7.0      3.033     10.224
REMARK  Name = 
REMARK  13 active torsions:
REMARK  status: ('A' for Active; 'I' for Inactive)
REMARK    1  A    between atoms: C_1  and  O_2
REMARK    2  A    between atoms: O_2  and  C_3
REMARK    3  A    between atoms: C_3  and  C_4
REMARK    4  A    between atoms: C_4  and  N_5
REMARK    5  A    between atoms: N_5  and  C_6
REMARK    6  A    between atoms: C_6  and  C_7
REMARK    7  A    between atoms: C_7  and  O_8
REMARK    8  A    between atoms: O_8  and  C_9
REMARK    9  A    between atoms: C_10  and  C_12
REMARK   10  A    between atoms: C_15  and  N_16
REMARK   11  A    between atoms: N_16  and  S_17
REMARK   12  A    between atoms: S_17  and  C_20
REMARK   13  A    between atoms: C_25  and  O_26
REMARK                            x       y       z     vdW  Elec       q    Type
REMARK                         _______ _______ _______ _____ _____    ______ ____
ROOT
ATOM      1  C   UNL     1       2.304   7.450  19.153  0.00  0.00    +0.000 A 
ATOM      2  C   UNL     1       2.194   8.208  17.981  0.00  0.00    +0.000 A 
ATOM      3  C   UNL     1       1.642   9.494  18.014  0.00  0.00    +0.000 A 
ATOM      4  C   UNL     1       1.110   9.991  19.202  0.00  0.00    +0.000 A 
ATOM      5  C   UNL     1       1.151   9.223  20.362  0.00  0.00    +0.000 A 
ATOM      6  C   UNL     1       1.747   7.958  20.338  0.00  0.00    +0.000 A 
ENDROOT
BRANCH   1   8
ATOM      7  N   UNL     1       4.008   5.715  18.407  0.00  0.00    +0.000 N 
ATOM      8  C   UNL     1       2.902   6.080  19.202  0.00  0.00    +0.000 C 
ATOM      9  O   UNL     1       2.374   5.298  19.997  0.00  0.00    +0.000 OA
BRANCH   7  10
ATOM     10  C   UNL     1       4.385   4.283  18.413  0.00  0.00    +0.000 C 
BRANCH  10  11
ATOM     11  C   UNL     1       3.650   3.363  17.416  0.00  0.00    +0.000 C 
BRANCH  11  13
ATOM     12  C   UNL     1       2.156   2.030  18.682  0.00  0.00    +0.000 C 
ATOM     13  O   UNL     1       3.350   2.062  17.915  0.00  0.00    +0.000 OA
ENDBRANCH  11  13
ENDBRANCH  10  11
ENDBRANCH   7  10
BRANCH   7  14
ATOM     14  C   UNL     1       4.628   6.610  17.413  0.00  0.00    +0.000 C 
BRANCH  14  15
ATOM     15  C   UNL     1       6.152   6.647  17.369  0.00  0.00    +0.000 C 
BRANCH  15  16
ATOM     16  O   UNL     1       6.631   6.060  16.158  0.00  0.00    +0.000 OA
ATOM     17  C   UNL     1       5.546   5.835  15.261  0.00  0.00    +0.000 C 
ENDBRANCH  15  16
ENDBRANCH  14  15
ENDBRANCH   7  14
ENDBRANCH   1   8
BRANCH   4  18
ATOM     18  N   UNL     1       0.540  11.289  19.276  0.00  0.00    +0.000 N 
ATOM     19  H   UNL     1       1.074  12.059  18.872  0.00  0.00    +0.000 HD
BRANCH  18  20
ATOM     20  S   UNL     1      -1.111  11.481  18.988  0.00  0.00    +0.000 S 
ATOM     21  O   UNL     1      -1.225  12.627  18.110  0.00  0.00    +0.000 OA
ATOM     22  O   UNL     1      -1.682  10.206  18.610  0.00  0.00    +0.000 OA
BRANCH  20  23
ATOM     23  C   UNL     1      -1.771  11.943  20.574  0.00  0.00    +0.000 A 
ATOM     24  C   UNL     1      -1.054  11.586  21.724  0.00  0.00    +0.000 A 
ATOM     25  C   UNL     1      -1.582  11.807  23.001  0.00  0.00    +0.000 A 
ATOM     26  C   UNL     1      -2.851  12.380  23.058  0.00  0.00    +0.000 A 
ATOM     27  N   UNL     1      -3.672  12.694  24.112  0.00  0.00    +0.000 N 
ATOM     28  C   UNL     1      -4.818  13.233  23.603  0.00  0.00    +0.000 A 
ATOM     29  N   UNL     1      -4.795  13.287  22.293  0.00  0.00    +0.000 NA
ATOM     30  C   UNL     1      -3.581  12.749  21.933  0.00  0.00    +0.000 A 
ATOM     31  C   UNL     1      -3.045  12.532  20.654  0.00  0.00    +0.000 A 
ATOM     32  H   UNL     1      -3.467  12.534  25.087  0.00  0.00    +0.000 HD
BRANCH  28  33
ATOM     33  O   UNL     1      -5.837  13.654  24.329  0.00  0.00    +0.000 OA
ATOM     34  H   UNL     1      -6.529  12.977  24.331  0.00  0.00    +0.000 HD
ENDBRANCH  28  33
ENDBRANCH  20  23
ENDBRANCH  18  20
ENDBRANCH   4  18
TORSDOF 11
ENDMDL
MODEL 9
REMARK VINA RESULT:      -7.0      1.778      2.308
REMARK  Name = 
REMARK  13 active torsions:
REMARK  status: ('A' for Active; 'I' for Inactive)
REMARK    1  A    between atoms: C_1  and  O_2
REMARK    2  A    between atoms: O_2  and  C_3
REMARK    3  A    between atoms: C_3  and  C_4
REMARK    4  A    between atoms: C_4  and  N_5
REMARK    5  A    between atoms: N_5  and  C_6
REMARK    6  A    between atoms: C_6  and  C_7
REMARK    7  A    between atoms: C_7  and  O_8
REMARK    8  A    between atoms: O_8  and  C_9
REMARK    9  A    between atoms: C_10  and  C_12
REMARK   10  A    between atoms: C_15  and  N_16
REMARK   11  A    between atoms: N_16  and  S_17
REMARK   12  A    between atoms: S_17  and  C_20
REMARK   13  A    between atoms: C_25  and  O_26
REMARK                            x       y       z     vdW  Elec       q    Type
REMARK                         _______ _______ _______ _____ _____    ______ ____
ROOT
ATOM      1  C   UNL     1       1.698   7.625  20.311  0.00  0.00    +0.000 A 
ATOM      2  C   UNL     1       1.188   6.488  20.950  0.00  0.00    +0.000 A 
ATOM      3  C   UNL     1       1.374   5.216  20.395  0.00  0.00    +0.000 A 
ATOM      4  C   UNL     1       1.986   5.085  19.150  0.00  0.00    +0.000 A 
ATOM      5  C   UNL     1       2.437   6.212  18.470  0.00  0.00    +0.000 A 
ATOM      6  C   UNL     1       2.295   7.477  19.049  0.00  0.00    +0.000 A 
ENDROOT
BRANCH   1   8
ATOM      7  N   UNL     1       0.917  10.039  20.131  0.00  0.00    +0.000 N 
ATOM      8  C   UNL     1       1.560   9.013  20.852  0.00  0.00    +0.000 C 
ATOM      9  O   UNL     1       2.031   9.192  21.979  0.00  0.00    +0.000 OA
BRANCH   7  10
ATOM     10  C   UNL     1       1.011  11.405  20.696  0.00  0.00    +0.000 C 
BRANCH  10  11
ATOM     11  C   UNL     1      -0.119  11.845  21.651  0.00  0.00    +0.000 C 
BRANCH  11  13
ATOM     12  C   UNL     1      -1.043  10.349  23.238  0.00  0.00    +0.000 C 
ATOM     13  O   UNL     1      -1.103  10.847  21.909  0.00  0.00    +0.000 OA
ENDBRANCH  11  13
ENDBRANCH  10  11
ENDBRANCH   7  10
BRANCH   7  14
ATOM     14  C   UNL     1       0.390   9.869  18.764  0.00  0.00    +0.000 C 
BRANCH  14  15
ATOM     15  C   UNL     1      -1.053  10.294  18.520  0.00  0.00    +0.000 C 
BRANCH  15  16
ATOM     16  O   UNL     1      -1.435  10.016  17.172  0.00  0.00    +0.000 OA
ATOM     17  C   UNL     1      -2.550  10.823  16.803  0.00  0.00    +0.000 C 
ENDBRANCH  15  16
ENDBRANCH  14  15
ENDBRANCH   7  14
ENDBRANCH   1   8
BRANCH   4  18
ATOM     18  N   UNL     1       2.189   3.813  18.553  0.00  0.00    +0.000 N 
ATOM     19  H   UNL     1       1.993   3.727  17.555  0.00  0.00    +0.000 HD
BRANCH  18  20
ATOM     20  S   UNL     1       3.546   2.909  18.982  0.00  0.00    +0.000 S 
ATOM     21  O   UNL     1       3.766   3.175  20.389  0.00  0.00    +0.000 OA
ATOM     22  O   UNL     1       3.386   1.550  18.508  0.00  0.00    +0.000 OA
BRANCH  20  23
ATOM     23  C   UNL     1       4.873   3.667  18.071  0.00  0.00    +0.000 A 
ATOM     24  C   UNL     1       5.752   4.517  18.756  0.00  0.00    +0.000 A 
ATOM     25  C   UNL     1       6.735   5.241  18.073  0.00  0.00    +0.000 A 
ATOM     26  C   UNL     1       6.776   5.080  16.689  0.00  0.00    +0.000 A 
ATOM     27  N   UNL     1       7.562   5.651  15.719  0.00  0.00    +0.000 N 
ATOM     28  C   UNL     1       7.175   5.141  14.514  0.00  0.00    +0.000 A 
ATOM     29  N   UNL     1       6.191   4.283  14.638  0.00  0.00    +0.000 NA
ATOM     30  C   UNL     1       5.920   4.240  15.986  0.00  0.00    +0.000 A 
ATOM     31  C   UNL     1       4.939   3.509  16.676  0.00  0.00    +0.000 A 
ATOM     32  H   UNL     1       8.284   6.338  15.876  0.00  0.00    +0.000 HD
BRANCH  28  33
ATOM     33  O   UNL     1       7.715   5.464  13.354  0.00  0.00    +0.000 OA
ATOM     34  H   UNL     1       7.181   5.092  12.638  0.00  0.00    +0.000 HD
ENDBRANCH  28  33
ENDBRANCH  20  23
ENDBRANCH  18  20
ENDBRANCH   4  18
TORSDOF 11
ENDMDL
