MODEL 1
REMARK VINA RESULT:      -8.1      0.000      0.000
REMARK  Name = 
REMARK  7 active torsions:
REMARK  status: ('A' for Active; 'I' for Inactive)
REMARK    1  A    between atoms: C_1  and  C_2
REMARK    2  A    between atoms: C_2  and  N_3
REMARK    3  A    between atoms: N_3  and  C_4
REMARK    4  A    between atoms: N_3  and  S_10
REMARK    5  A    between atoms: S_10  and  C_13
REMARK    6  A    between atoms: C_15  and  C_16
REMARK    7  A    between atoms: C_19  and  C_20
REMARK                            x       y       z     vdW  Elec       q    Type
REMARK                         _______ _______ _______ _____ _____    ______ ____
ROOT
ATOM      1  S   UNL     1       5.374   4.721  18.993  0.00  0.00    +0.000 S 
ATOM      2  O   UNL     1       6.232   5.702  19.630  0.00  0.00    +0.000 OA
ATOM      3  O   UNL     1       5.411   3.337  19.396  0.00  0.00    +0.000 OA
ENDROOT
BRANCH   1   4
ATOM      4  C   UNL     1       6.005   4.680  17.305  0.00  0.00    +0.000 A 
ATOM      5  C   UNL     1       5.335   4.285  16.150  0.00  0.00    +0.000 A 
ATOM      6  C   UNL     1       6.256   4.310  15.084  0.00  0.00    +0.000 A 
ATOM      7  C   UNL     1       7.435   4.781  15.607  0.00  0.00    +0.000 A 
ATOM      8  O   UNL     1       7.302   5.009  16.948  0.00  0.00    +0.000 OA
BRANCH   6   9
ATOM      9  C   UNL     1       6.007   3.899  13.682  0.00  0.00    +0.000 A 
ATOM     10  N   UNL     1       6.942   3.688  12.774  0.00  0.00    +0.000 NA
ATOM     11  N   UNL     1       6.296   3.326  11.606  0.00  0.00    +0.000 NA
ATOM     12  C   UNL     1       5.009   3.354  11.874  0.00  0.00    +0.000 A 
ATOM     13  C   UNL     1       3.853   3.147  10.985  0.00  0.00    +0.000 C 
ATOM     14  O   UNL     1       4.745   3.686  13.173  0.00  0.00    +0.000 OA
ENDBRANCH   6   9
ENDBRANCH   1   4
BRANCH   1  15
ATOM     15  N   UNL     1       3.788   5.296  19.030  0.00  0.00    +0.000 N 
BRANCH  15  16
ATOM     16  C   UNL     1       2.737   4.397  19.367  0.00  0.00    +0.000 A 
ATOM     17  C   UNL     1       2.053   3.743  18.339  0.00  0.00    +0.000 A 
ATOM     18  C   UNL     1       0.990   2.890  18.639  0.00  0.00    +0.000 A 
ATOM     19  C   UNL     1       0.616   2.690  19.966  0.00  0.00    +0.000 A 
ATOM     20  C   UNL     1       1.310   3.330  20.993  0.00  0.00    +0.000 A 
ATOM     21  C   UNL     1       2.376   4.184  20.695  0.00  0.00    +0.000 A 
ENDBRANCH  15  16
BRANCH  15  23
ATOM     22  C   UNL     1       2.390   7.266  19.421  0.00  0.00    +0.000 C 
ATOM     23  C   UNL     1       3.487   6.654  18.559  0.00  0.00    +0.000 C 
ENDBRANCH  15  23
ENDBRANCH   1  15
TORSDOF 5
ENDMDL
MODEL 2
REMARK VINA RESULT:      -8.1      0.118      1.013
REMARK  Name = 
REMARK  7 active torsions:
REMARK  status: ('A' for Active; 'I' for Inactive)
REMARK    1  A    between atoms: C_1  and  C_2
REMARK    2  A    between atoms: C_2  and  N_3
REMARK    3  A    between atoms: N_3  and  C_4
REMARK    4  A    between atoms: N_3  and  S_10
REMARK    5  A    between atoms: S_10  and  C_13
REMARK    6  A    between atoms: C_15  and  C_16
REMARK    7  A    between atoms: C_19  and  C_20
REMARK                            x       y       z     vdW  Elec       q    Type
REMARK                         _______ _______ _______ _____ _____    ______ ____
ROOT
ATOM      1  S   UNL     1       5.352   4.700  18.975  0.00  0.00    +0.000 S 
ATOM      2  O   UNL     1       6.224   5.662  19.621  0.00  0.00    +0.000 OA
ATOM      3  O   UNL     1       5.364   3.312  19.371  0.00  0.00    +0.000 OA
ENDROOT
BRANCH   1   4
ATOM      4  C   UNL     1       5.991   4.657  17.289  0.00  0.00    +0.000 A 
ATOM      5  C   UNL     1       5.321   4.269  16.131  0.00  0.00    +0.000 A 
ATOM      6  C   UNL     1       6.247   4.289  15.069  0.00  0.00    +0.000 A 
ATOM      7  C   UNL     1       7.428   4.748  15.598  0.00  0.00    +0.000 A 
ATOM      8  O   UNL     1       7.291   4.974  16.938  0.00  0.00    +0.000 OA
BRANCH   6   9
ATOM      9  C   UNL     1       6.000   3.883  13.665  0.00  0.00    +0.000 A 
ATOM     10  N   UNL     1       6.937   3.655  12.763  0.00  0.00    +0.000 NA
ATOM     11  N   UNL     1       6.293   3.306  11.590  0.00  0.00    +0.000 NA
ATOM     12  C   UNL     1       5.004   3.357  11.849  0.00  0.00    +0.000 A 
ATOM     13  C   UNL     1       3.851   3.172  10.952  0.00  0.00    +0.000 C 
ATOM     14  O   UNL     1       4.738   3.693  13.147  0.00  0.00    +0.000 OA
ENDBRANCH   6   9
ENDBRANCH   1   4
BRANCH   1  15
ATOM     15  N   UNL     1       3.777   5.302  19.008  0.00  0.00    +0.000 N 
BRANCH  15  16
ATOM     16  C   UNL     1       2.718   4.439  19.409  0.00  0.00    +0.000 A 
ATOM     17  C   UNL     1       2.462   4.274  20.773  0.00  0.00    +0.000 A 
ATOM     18  C   UNL     1       1.460   3.400  21.196  0.00  0.00    +0.000 A 
ATOM     19  C   UNL     1       0.711   2.697  20.254  0.00  0.00    +0.000 A 
ATOM     20  C   UNL     1       0.955   2.876  18.891  0.00  0.00    +0.000 A 
ATOM     21  C   UNL     1       1.959   3.751  18.466  0.00  0.00    +0.000 A 
ENDBRANCH  15  16
BRANCH  15  23
ATOM     22  C   UNL     1       2.379   7.291  19.288  0.00  0.00    +0.000 C 
ATOM     23  C   UNL     1       3.489   6.638  18.473  0.00  0.00    +0.000 C 
ENDBRANCH  15  23
ENDBRANCH   1  15
TORSDOF 5
ENDMDL
MODEL 3
REMARK VINA RESULT:      -8.1      4.394      6.448
REMARK  Name = 
REMARK  7 active torsions:
REMARK  status: ('A' for Active; 'I' for Inactive)
REMARK    1  A    between atoms: C_1  and  C_2
REMARK    2  A    between atoms: C_2  and  N_3
REMARK    3  A    between atoms: N_3  and  C_4
REMARK    4  A    between atoms: N_3  and  S_10
REMARK    5  A    between atoms: S_10  and  C_13
REMARK    6  A    between atoms: C_15  and  C_16
REMARK    7  A    between atoms: C_19  and  C_20
REMARK                            x       y       z     vdW  Elec       q    Type
REMARK                         _______ _______ _______ _____ _____    ______ ____
ROOT
ATOM      1  S   UNL     1       6.964   4.810  18.004  0.00  0.00    +0.000 S 
ATOM      2  O   UNL     1       6.429   4.737  19.350  0.00  0.00    +0.000 OA
ATOM      3  O   UNL     1       8.221   4.184  17.675  0.00  0.00    +0.000 OA
ENDROOT
BRANCH   1   4
ATOM      4  C   UNL     1       7.311   6.569  17.811  0.00  0.00    +0.000 A 
ATOM      5  C   UNL     1       8.271   7.329  18.475  0.00  0.00    +0.000 A 
ATOM      6  C   UNL     1       8.102   8.673  18.089  0.00  0.00    +0.000 A 
ATOM      7  C   UNL     1       7.094   8.680  17.157  0.00  0.00    +0.000 A 
ATOM      8  O   UNL     1       6.604   7.418  16.978  0.00  0.00    +0.000 OA
BRANCH   6   9
ATOM      9  C   UNL     1       8.854   9.846  18.596  0.00  0.00    +0.000 A 
ATOM     10  N   UNL     1       9.354   9.960  19.812  0.00  0.00    +0.000 NA
ATOM     11  N   UNL     1       9.972  11.196  19.880  0.00  0.00    +0.000 NA
ATOM     12  C   UNL     1       9.795  11.760  18.706  0.00  0.00    +0.000 A 
ATOM     13  C   UNL     1      10.158  13.110  18.240  0.00  0.00    +0.000 C 
ATOM     14  O   UNL     1       9.116  10.961  17.830  0.00  0.00    +0.000 OA
ENDBRANCH   6   9
ENDBRANCH   1   4
BRANCH   1  15
ATOM     15  N   UNL     1       5.766   4.311  16.926  0.00  0.00    +0.000 N 
BRANCH  15  16
ATOM     16  C   UNL     1       4.411   4.291  17.363  0.00  0.00    +0.000 A 
ATOM     17  C   UNL     1       3.777   3.057  17.537  0.00  0.00    +0.000 A 
ATOM     18  C   UNL     1       2.437   3.008  17.922  0.00  0.00    +0.000 A 
ATOM     19  C   UNL     1       1.734   4.192  18.136  0.00  0.00    +0.000 A 
ATOM     20  C   UNL     1       2.372   5.423  17.979  0.00  0.00    +0.000 A 
ATOM     21  C   UNL     1       3.715   5.474  17.594  0.00  0.00    +0.000 A 
ENDBRANCH  15  16
BRANCH  15  23
ATOM     22  C   UNL     1       5.921   4.798  14.532  0.00  0.00    +0.000 C 
ATOM     23  C   UNL     1       6.137   3.753  15.620  0.00  0.00    +0.000 C 
ENDBRANCH  15  23
ENDBRANCH   1  15
TORSDOF 5
ENDMDL
MODEL 4
REMARK VINA RESULT:      -8.0      1.854      3.149
REMARK  Name = 
REMARK  7 active torsions:
REMARK  status: ('A' for Active; 'I' for Inactive)
REMARK    1  A    between atoms: C_1  and  C_2
REMARK    2  A    between atoms: C_2  and  N_3
REMARK    3  A    between atoms: N_3  and  C_4
REMARK    4  A    between atoms: N_3  and  S_10
REMARK    5  A    between atoms: S_10  and  C_13
REMARK    6  A    between atoms: C_15  and  C_16
REMARK    7  A    between atoms: C_19  and  C_20
REMARK                            x       y       z     vdW  Elec       q    Type
REMARK                         _______ _______ _______ _____ _____    ______ ____
ROOT
ATOM      1  S   UNL     1       3.542   2.626  19.173  0.00  0.00    +0.000 S 
ATOM      2  O   UNL     1       4.242   2.365  20.416  0.00  0.00    +0.000 OA
ATOM      3  O   UNL     1       3.228   1.551  18.264  0.00  0.00    +0.000 OA
ENDROOT
BRANCH   1   4
ATOM      4  C   UNL     1       4.732   3.619  18.250  0.00  0.00    +0.000 A 
ATOM      5  C   UNL     1       4.965   3.617  16.877  0.00  0.00    +0.000 A 
ATOM      6  C   UNL     1       6.060   4.466  16.623  0.00  0.00    +0.000 A 
ATOM      7  C   UNL     1       6.415   5.007  17.834  0.00  0.00    +0.000 A 
ATOM      8  O   UNL     1       5.623   4.505  18.828  0.00  0.00    +0.000 OA
BRANCH   6   9
ATOM      9  C   UNL     1       6.707   4.716  15.313  0.00  0.00    +0.000 A 
ATOM     10  N   UNL     1       7.635   5.627  15.086  0.00  0.00    +0.000 NA
ATOM     11  N   UNL     1       7.968   5.538  13.746  0.00  0.00    +0.000 NA
ATOM     12  C   UNL     1       7.211   4.589  13.241  0.00  0.00    +0.000 A 
ATOM     13  C   UNL     1       7.073   4.129  11.849  0.00  0.00    +0.000 C 
ATOM     14  O   UNL     1       6.400   4.005  14.174  0.00  0.00    +0.000 OA
ENDBRANCH   6   9
ENDBRANCH   1   4
BRANCH   1  15
ATOM     15  N   UNL     1       2.154   3.519  19.521  0.00  0.00    +0.000 N 
BRANCH  15  16
ATOM     16  C   UNL     1       2.169   4.927  19.310  0.00  0.00    +0.000 A 
ATOM     17  C   UNL     1       2.274   5.412  18.003  0.00  0.00    +0.000 A 
ATOM     18  C   UNL     1       2.336   6.787  17.770  0.00  0.00    +0.000 A 
ATOM     19  C   UNL     1       2.288   7.673  18.844  0.00  0.00    +0.000 A 
ATOM     20  C   UNL     1       2.166   7.189  20.147  0.00  0.00    +0.000 A 
ATOM     21  C   UNL     1       2.103   5.813  20.382  0.00  0.00    +0.000 A 
ENDBRANCH  15  16
BRANCH  15  23
ATOM     22  C   UNL     1       1.321   2.677  21.663  0.00  0.00    +0.000 C 
ATOM     23  C   UNL     1       1.012   2.876  20.184  0.00  0.00    +0.000 C 
ENDBRANCH  15  23
ENDBRANCH   1  15
TORSDOF 5
ENDMDL
MODEL 5
REMARK VINA RESULT:      -8.0      4.396      6.459
REMARK  Name = 
REMARK  7 active torsions:
REMARK  status: ('A' for Active; 'I' for Inactive)
REMARK    1  A    between atoms: C_1  and  C_2
REMARK    2  A    between atoms: C_2  and  N_3
REMARK    3  A    between atoms: N_3  and  C_4
REMARK    4  A    between atoms: N_3  and  S_10
REMARK    5  A    between atoms: S_10  and  C_13
REMARK    6  A    between atoms: C_15  and  C_16
REMARK    7  A    between atoms: C_19  and  C_20
REMARK                            x       y       z     vdW  Elec       q    Type
REMARK                         _______ _______ _______ _____ _____    ______ ____
ROOT
ATOM      1  S   UNL     1       6.972   4.807  17.990  0.00  0.00    +0.000 S 
ATOM      2  O   UNL     1       6.423   4.736  19.330  0.00  0.00    +0.000 OA
ATOM      3  O   UNL     1       8.238   4.190  17.677  0.00  0.00    +0.000 OA
ENDROOT
BRANCH   1   4
ATOM      4  C   UNL     1       7.308   6.568  17.793  0.00  0.00    +0.000 A 
ATOM      5  C   UNL     1       8.254   7.339  18.466  0.00  0.00    +0.000 A 
ATOM      6  C   UNL     1       8.080   8.679  18.070  0.00  0.00    +0.000 A 
ATOM      7  C   UNL     1       7.083   8.674  17.126  0.00  0.00    +0.000 A 
ATOM      8  O   UNL     1       6.605   7.407  16.946  0.00  0.00    +0.000 OA
BRANCH   6   9
ATOM      9  C   UNL     1       8.815   9.861  18.581  0.00  0.00    +0.000 A 
ATOM     10  N   UNL     1       9.393   9.942  19.765  0.00  0.00    +0.000 NA
ATOM     11  N   UNL     1       9.963  11.200  19.851  0.00  0.00    +0.000 NA
ATOM     12  C   UNL     1       9.682  11.808  18.719  0.00  0.00    +0.000 A 
ATOM     13  C   UNL     1       9.957  13.192  18.295  0.00  0.00    +0.000 C 
ATOM     14  O   UNL     1       8.978  11.019  17.854  0.00  0.00    +0.000 OA
ENDBRANCH   6   9
ENDBRANCH   1   4
BRANCH   1  15
ATOM     15  N   UNL     1       5.790   4.295  16.901  0.00  0.00    +0.000 N 
BRANCH  15  16
ATOM     16  C   UNL     1       4.432   4.253  17.328  0.00  0.00    +0.000 A 
ATOM     17  C   UNL     1       3.754   5.457  17.537  0.00  0.00    +0.000 A 
ATOM     18  C   UNL     1       2.437   5.446  17.998  0.00  0.00    +0.000 A 
ATOM     19  C   UNL     1       1.799   4.232  18.244  0.00  0.00    +0.000 A 
ATOM     20  C   UNL     1       2.471   3.030  18.017  0.00  0.00    +0.000 A 
ATOM     21  C   UNL     1       3.790   3.039  17.555  0.00  0.00    +0.000 A 
ENDBRANCH  15  16
BRANCH  15  23
ATOM     22  C   UNL     1       5.826   4.737  14.494  0.00  0.00    +0.000 C 
ATOM     23  C   UNL     1       6.179   3.745  15.596  0.00  0.00    +0.000 C 
ENDBRANCH  15  23
ENDBRANCH   1  15
TORSDOF 5
ENDMDL
MODEL 6
REMARK VINA RESULT:      -7.9      4.400      6.532
REMARK  Name = 
REMARK  7 active torsions:
REMARK  status: ('A' for Active; 'I' for Inactive)
REMARK    1  A    between atoms: C_1  and  C_2
REMARK    2  A    between atoms: C_2  and  N_3
REMARK    3  A    between atoms: N_3  and  C_4
REMARK    4  A    between atoms: N_3  and  S_10
REMARK    5  A    between atoms: S_10  and  C_13
REMARK    6  A    between atoms: C_15  and  C_16
REMARK    7  A    between atoms: C_19  and  C_20
REMARK                            x       y       z     vdW  Elec       q    Type
REMARK                         _______ _______ _______ _____ _____    ______ ____
ROOT
ATOM      1  S   UNL     1       6.978   4.853  18.055  0.00  0.00    +0.000 S 
ATOM      2  O   UNL     1       6.428   4.806  19.397  0.00  0.00    +0.000 OA
ATOM      3  O   UNL     1       8.249   4.239  17.757  0.00  0.00    +0.000 OA
ENDROOT
BRANCH   1   4
ATOM      4  C   UNL     1       7.299   6.612  17.820  0.00  0.00    +0.000 A 
ATOM      5  C   UNL     1       8.249   7.401  18.463  0.00  0.00    +0.000 A 
ATOM      6  C   UNL     1       8.061   8.733  18.045  0.00  0.00    +0.000 A 
ATOM      7  C   UNL     1       7.051   8.703  17.115  0.00  0.00    +0.000 A 
ATOM      8  O   UNL     1       6.579   7.430  16.968  0.00  0.00    +0.000 OA
BRANCH   6   9
ATOM      9  C   UNL     1       8.796   9.928  18.522  0.00  0.00    +0.000 A 
ATOM     10  N   UNL     1       9.193  10.930  17.760  0.00  0.00    +0.000 NA
ATOM     11  N   UNL     1       9.839  11.833  18.584  0.00  0.00    +0.000 NA
ATOM     12  C   UNL     1       9.807  11.316  19.793  0.00  0.00    +0.000 A 
ATOM     13  C   UNL     1      10.418  11.797  21.044  0.00  0.00    +0.000 C 
ATOM     14  O   UNL     1       9.145  10.122  19.840  0.00  0.00    +0.000 OA
ENDBRANCH   6   9
ENDBRANCH   1   4
BRANCH   1  15
ATOM     15  N   UNL     1       5.800   4.307  16.978  0.00  0.00    +0.000 N 
BRANCH  15  16
ATOM     16  C   UNL     1       4.442   4.269  17.402  0.00  0.00    +0.000 A 
ATOM     17  C   UNL     1       3.823   3.027  17.573  0.00  0.00    +0.000 A 
ATOM     18  C   UNL     1       2.480   2.960  17.945  0.00  0.00    +0.000 A 
ATOM     19  C   UNL     1       1.760   4.135  18.152  0.00  0.00    +0.000 A 
ATOM     20  C   UNL     1       2.383   5.374  17.998  0.00  0.00    +0.000 A 
ATOM     21  C   UNL     1       3.729   5.443  17.626  0.00  0.00    +0.000 A 
ENDBRANCH  15  16
BRANCH  15  23
ATOM     22  C   UNL     1       5.955   4.737  14.573  0.00  0.00    +0.000 C 
ATOM     23  C   UNL     1       6.196   3.726  15.688  0.00  0.00    +0.000 C 
ENDBRANCH  15  23
ENDBRANCH   1  15
TORSDOF 5
ENDMDL
MODEL 7
REMARK VINA RESULT:      -7.9      1.882      3.282
REMARK  Name = 
REMARK  7 active torsions:
REMARK  status: ('A' for Active; 'I' for Inactive)
REMARK    1  A    between atoms: C_1  and  C_2
REMARK    2  A    between atoms: C_2  and  N_3
REMARK    3  A    between atoms: N_3  and  C_4
REMARK    4  A    between atoms: N_3  and  S_10
REMARK    5  A    between atoms: S_10  and  C_13
REMARK    6  A    between atoms: C_15  and  C_16
REMARK    7  A    between atoms: C_19  and  C_20
REMARK                            x       y       z     vdW  Elec       q    Type
REMARK                         _______ _______ _______ _____ _____    ______ ____
ROOT
ATOM      1  S   UNL     1       3.756   2.897  19.479  0.00  0.00    +0.000 S 
ATOM      2  O   UNL     1       4.571   2.199  20.455  0.00  0.00    +0.000 OA
ATOM      3  O   UNL     1       2.975   2.164  18.511  0.00  0.00    +0.000 OA
ENDROOT
BRANCH   1   4
ATOM      4  C   UNL     1       4.986   3.741  18.467  0.00  0.00    +0.000 A 
ATOM      5  C   UNL     1       5.071   3.779  17.077  0.00  0.00    +0.000 A 
ATOM      6  C   UNL     1       6.255   4.460  16.734  0.00  0.00    +0.000 A 
ATOM      7  C   UNL     1       6.818   4.871  17.917  0.00  0.00    +0.000 A 
ATOM      8  O   UNL     1       6.065   4.444  18.974  0.00  0.00    +0.000 OA
BRANCH   6   9
ATOM      9  C   UNL     1       6.793   4.679  15.370  0.00  0.00    +0.000 A 
ATOM     10  N   UNL     1       7.652   5.624  15.035  0.00  0.00    +0.000 NA
ATOM     11  N   UNL     1       7.894   5.487  13.680  0.00  0.00    +0.000 NA
ATOM     12  C   UNL     1       7.155   4.478  13.275  0.00  0.00    +0.000 A 
ATOM     13  C   UNL     1       6.944   3.944  11.918  0.00  0.00    +0.000 C 
ATOM     14  O   UNL     1       6.446   3.899  14.290  0.00  0.00    +0.000 OA
ENDBRANCH   6   9
ENDBRANCH   1   4
BRANCH   1  15
ATOM     15  N   UNL     1       2.781   4.007  20.293  0.00  0.00    +0.000 N 
BRANCH  15  16
ATOM     16  C   UNL     1       2.574   5.293  19.719  0.00  0.00    +0.000 A 
ATOM     17  C   UNL     1       2.276   6.368  20.563  0.00  0.00    +0.000 A 
ATOM     18  C   UNL     1       2.024   7.630  20.023  0.00  0.00    +0.000 A 
ATOM     19  C   UNL     1       2.075   7.816  18.643  0.00  0.00    +0.000 A 
ATOM     20  C   UNL     1       2.390   6.747  17.804  0.00  0.00    +0.000 A 
ATOM     21  C   UNL     1       2.643   5.482  18.342  0.00  0.00    +0.000 A 
ENDBRANCH  15  16
BRANCH  15  23
ATOM     22  C   UNL     1       1.302   2.553  21.593  0.00  0.00    +0.000 C 
ATOM     23  C   UNL     1       2.297   3.706  21.646  0.00  0.00    +0.000 C 
ENDBRANCH  15  23
ENDBRANCH   1  15
TORSDOF 5
ENDMDL
MODEL 8
REMARK VINA RESULT:      -7.8      1.763      2.692
REMARK  Name = 
REMARK  7 active torsions:
REMARK  status: ('A' for Active; 'I' for Inactive)
REMARK    1  A    between atoms: C_1  and  C_2
REMARK    2  A    between atoms: C_2  and  N_3
REMARK    3  A    between atoms: N_3  and  C_4
REMARK    4  A    between atoms: N_3  and  S_10
REMARK    5  A    between atoms: S_10  and  C_13
REMARK    6  A    between atoms: C_15  and  C_16
REMARK    7  A    between atoms: C_19  and  C_20
REMARK                            x       y       z     vdW  Elec       q    Type
REMARK                         _______ _______ _______ _____ _____    ______ ____
ROOT
ATOM      1  S   UNL     1       6.425   5.289  17.885  0.00  0.00    +0.000 S 
ATOM      2  O   UNL     1       6.608   6.724  17.992  0.00  0.00    +0.000 OA
ATOM      3  O   UNL     1       7.400   4.378  18.435  0.00  0.00    +0.000 OA
ENDROOT
BRANCH   1   4
ATOM      4  C   UNL     1       6.546   5.007  16.109  0.00  0.00    +0.000 A 
ATOM      5  C   UNL     1       5.665   4.301  15.293  0.00  0.00    +0.000 A 
ATOM      6  C   UNL     1       6.222   4.246  14.000  0.00  0.00    +0.000 A 
ATOM      7  C   UNL     1       7.386   4.972  14.053  0.00  0.00    +0.000 A 
ATOM      8  O   UNL     1       7.598   5.438  15.319  0.00  0.00    +0.000 OA
BRANCH   6   9
ATOM      9  C   UNL     1       5.669   3.536  12.822  0.00  0.00    +0.000 A 
ATOM     10  N   UNL     1       6.276   2.563  12.168  0.00  0.00    +0.000 NA
ATOM     11  N   UNL     1       5.432   2.178  11.142  0.00  0.00    +0.000 NA
ATOM     12  C   UNL     1       4.372   2.952  11.229  0.00  0.00    +0.000 A 
ATOM     13  C   UNL     1       3.197   3.050  10.345  0.00  0.00    +0.000 C 
ATOM     14  O   UNL     1       4.436   3.823  12.280  0.00  0.00    +0.000 OA
ENDBRANCH   6   9
ENDBRANCH   1   4
BRANCH   1  15
ATOM     15  N   UNL     1       4.884   4.905  18.453  0.00  0.00    +0.000 N 
BRANCH  15  16
ATOM     16  C   UNL     1       3.918   5.943  18.580  0.00  0.00    +0.000 A 
ATOM     17  C   UNL     1       3.772   6.861  17.536  0.00  0.00    +0.000 A 
ATOM     18  C   UNL     1       2.864   7.914  17.653  0.00  0.00    +0.000 A 
ATOM     19  C   UNL     1       2.101   8.045  18.811  0.00  0.00    +0.000 A 
ATOM     20  C   UNL     1       2.234   7.118  19.846  0.00  0.00    +0.000 A 
ATOM     21  C   UNL     1       3.142   6.062  19.731  0.00  0.00    +0.000 A 
ENDBRANCH  15  16
BRANCH  15  23
ATOM     22  C   UNL     1       3.631   2.846  18.027  0.00  0.00    +0.000 C 
ATOM     23  C   UNL     1       4.602   3.557  18.962  0.00  0.00    +0.000 C 
ENDBRANCH  15  23
ENDBRANCH   1  15
TORSDOF 5
ENDMDL
MODEL 9
REMARK VINA RESULT:      -7.8      4.444      6.533
REMARK  Name = 
REMARK  7 active torsions:
REMARK  status: ('A' for Active; 'I' for Inactive)
REMARK    1  A    between atoms: C_1  and  C_2
REMARK    2  A    between atoms: C_2  and  N_3
REMARK    3  A    between atoms: N_3  and  C_4
REMARK    4  A    between atoms: N_3  and  S_10
REMARK    5  A    between atoms: S_10  and  C_13
REMARK    6  A    between atoms: C_15  and  C_16
REMARK    7  A    between atoms: C_19  and  C_20
REMARK                            x       y       z     vdW  Elec       q    Type
REMARK                         _______ _______ _______ _____ _____    ______ ____
ROOT
ATOM      1  S   UNL     1       6.922   4.926  18.198  0.00  0.00    +0.000 S 
ATOM      2  O   UNL     1       6.306   4.938  19.512  0.00  0.00    +0.000 OA
ATOM      3  O   UNL     1       8.203   4.297  17.990  0.00  0.00    +0.000 OA
ENDROOT
BRANCH   1   4
ATOM      4  C   UNL     1       7.262   6.672  17.905  0.00  0.00    +0.000 A 
ATOM      5  C   UNL     1       8.236   7.467  18.505  0.00  0.00    +0.000 A 
ATOM      6  C   UNL     1       8.056   8.788  18.051  0.00  0.00    +0.000 A 
ATOM      7  C   UNL     1       7.026   8.746  17.144  0.00  0.00    +0.000 A 
ATOM      8  O   UNL     1       6.534   7.476  17.044  0.00  0.00    +0.000 OA
BRANCH   6   9
ATOM      9  C   UNL     1       8.817   9.987  18.478  0.00  0.00    +0.000 A 
ATOM     10  N   UNL     1       9.056  11.043  17.722  0.00  0.00    +0.000 NA
ATOM     11  N   UNL     1       9.794  11.928  18.488  0.00  0.00    +0.000 NA
ATOM     12  C   UNL     1       9.969  11.347  19.655  0.00  0.00    +0.000 A 
ATOM     13  C   UNL     1      10.752  11.787  20.822  0.00  0.00    +0.000 C 
ATOM     14  O   UNL     1       9.362  10.125  19.735  0.00  0.00    +0.000 OA
ENDBRANCH   6   9
ENDBRANCH   1   4
BRANCH   1  15
ATOM     15  N   UNL     1       5.796   4.337  17.088  0.00  0.00    +0.000 N 
BRANCH  15  16
ATOM     16  C   UNL     1       4.430   4.244  17.475  0.00  0.00    +0.000 A 
ATOM     17  C   UNL     1       3.692   5.422  17.631  0.00  0.00    +0.000 A 
ATOM     18  C   UNL     1       2.363   5.363  18.053  0.00  0.00    +0.000 A 
ATOM     19  C   UNL     1       1.773   4.128  18.313  0.00  0.00    +0.000 A 
ATOM     20  C   UNL     1       2.505   2.952  18.140  0.00  0.00    +0.000 A 
ATOM     21  C   UNL     1       3.836   3.008  17.717  0.00  0.00    +0.000 A 
ENDBRANCH  15  16
BRANCH  15  23
ATOM     22  C   UNL     1       5.664   4.583  14.657  0.00  0.00    +0.000 C 
ATOM     23  C   UNL     1       6.249   3.776  15.809  0.00  0.00    +0.000 C 
ENDBRANCH  15  23
ENDBRANCH   1  15
TORSDOF 5
ENDMDL
