MODEL 1
REMARK VINA RESULT:      -6.8      0.000      0.000
REMARK  Name = 
REMARK  6 active torsions:
REMARK  status: ('A' for Active; 'I' for Inactive)
REMARK    1  A    between atoms: C_1  and  O_2
REMARK    2  A    between atoms: O_2  and  C_3
REMARK    3  A    between atoms: C_8  and  N_9
REMARK    4  A    between atoms: C_10  and  C_12
REMARK    5  A    between atoms: C_16  and  O_17
REMARK    6  A    between atoms: O_17  and  C_18
REMARK                            x       y       z     vdW  Elec       q    Type
REMARK                         _______ _______ _______ _____ _____    ______ ____
ROOT
ATOM      1  N   UNL     1       4.459   6.995  17.656  0.00  0.00    +0.000 N 
ATOM      2  C   UNL     1       3.210   6.645  18.131  0.00  0.00    +0.000 C 
ATOM      3  O   UNL     1       2.724   5.512  18.103  0.00  0.00    +0.000 OA
ATOM      4  H   UNL     1       4.883   7.872  17.939  0.00  0.00    +0.000 HD
ENDROOT
BRANCH   2   5
ATOM      5  C   UNL     1       2.395   7.690  18.849  0.00  0.00    +0.000 A 
ATOM      6  C   UNL     1       1.849   8.765  18.262  0.00  0.00    +0.000 A 
ATOM      7  C   UNL     1       0.982   9.659  19.092  0.00  0.00    +0.000 A 
ATOM      8  O   UNL     1       0.460  10.635  18.556  0.00  0.00    +0.000 OA
ATOM      9  C   UNL     1       0.771   9.312  20.550  0.00  0.00    +0.000 A 
ATOM     10  C   UNL     1       1.350   8.180  20.970  0.00  0.00    +0.000 A 
ATOM     11  N   UNL     1       2.144   7.404  20.181  0.00  0.00    +0.000 N 
ATOM     12  H   UNL     1       2.442   6.478  20.496  0.00  0.00    +0.000 HD
BRANCH   9  13
ATOM     13  O   UNL     1       0.007  10.058  21.429  0.00  0.00    +0.000 OA
ATOM     14  C   UNL     1      -0.078   9.522  22.746  0.00  0.00    +0.000 C 
ENDBRANCH   9  13
ENDBRANCH   2   5
BRANCH   1  20
ATOM     15  C   UNL     1       6.347   5.425  17.560  0.00  0.00    +0.000 A 
ATOM     16  C   UNL     1       7.188   4.585  16.811  0.00  0.00    +0.000 A 
ATOM     17  C   UNL     1       7.007   4.430  15.438  0.00  0.00    +0.000 A 
ATOM     18  C   UNL     1       5.986   5.113  14.795  0.00  0.00    +0.000 A 
ATOM     19  C   UNL     1       5.161   5.967  15.524  0.00  0.00    +0.000 A 
ATOM     20  C   UNL     1       5.312   6.132  16.908  0.00  0.00    +0.000 A 
BRANCH  15  22
ATOM     21  C   UNL     1       7.804   5.733  19.404  0.00  0.00    +0.000 C 
ATOM     22  O   UNL     1       6.464   5.592  18.922  0.00  0.00    +0.000 OA
ENDBRANCH  15  22
ENDBRANCH   1  20
TORSDOF 4
ENDMDL
MODEL 2
REMARK VINA RESULT:      -6.5      4.204      7.325
REMARK  Name = 
REMARK  6 active torsions:
REMARK  status: ('A' for Active; 'I' for Inactive)
REMARK    1  A    between atoms: C_1  and  O_2
REMARK    2  A    between atoms: O_2  and  C_3
REMARK    3  A    between atoms: C_8  and  N_9
REMARK    4  A    between atoms: C_10  and  C_12
REMARK    5  A    between atoms: C_16  and  O_17
REMARK    6  A    between atoms: O_17  and  C_18
REMARK                            x       y       z     vdW  Elec       q    Type
REMARK                         _______ _______ _______ _____ _____    ______ ____
ROOT
ATOM      1  N   UNL     1       4.085   4.259  18.837  0.00  0.00    +0.000 N 
ATOM      2  C   UNL     1       4.070   3.976  17.485  0.00  0.00    +0.000 C 
ATOM      3  O   UNL     1       3.184   3.359  16.890  0.00  0.00    +0.000 OA
ATOM      4  H   UNL     1       4.704   4.975  19.200  0.00  0.00    +0.000 HD
ENDROOT
BRANCH   2   5
ATOM      5  C   UNL     1       5.161   4.552  16.619  0.00  0.00    +0.000 A 
ATOM      6  C   UNL     1       5.977   5.551  16.986  0.00  0.00    +0.000 A 
ATOM      7  C   UNL     1       7.078   5.945  16.050  0.00  0.00    +0.000 A 
ATOM      8  O   UNL     1       7.843   6.845  16.388  0.00  0.00    +0.000 OA
ATOM      9  C   UNL     1       7.210   5.204  14.737  0.00  0.00    +0.000 A 
ATOM     10  C   UNL     1       6.343   4.201  14.542  0.00  0.00    +0.000 A 
ATOM     11  N   UNL     1       5.348   3.889  15.417  0.00  0.00    +0.000 N 
ATOM     12  H   UNL     1       4.806   3.029  15.301  0.00  0.00    +0.000 HD
BRANCH   9  13
ATOM     13  O   UNL     1       8.171   5.474  13.779  0.00  0.00    +0.000 OA
ATOM     14  C   UNL     1       7.743   5.275  12.435  0.00  0.00    +0.000 C 
ENDBRANCH   9  13
ENDBRANCH   2   5
BRANCH   1  20
ATOM     15  C   UNL     1       3.518   2.635  20.593  0.00  0.00    +0.000 A 
ATOM     16  C   UNL     1       2.590   2.121  21.514  0.00  0.00    +0.000 A 
ATOM     17  C   UNL     1       1.324   2.688  21.648  0.00  0.00    +0.000 A 
ATOM     18  C   UNL     1       0.967   3.774  20.863  0.00  0.00    +0.000 A 
ATOM     19  C   UNL     1       1.871   4.277  19.930  0.00  0.00    +0.000 A 
ATOM     20  C   UNL     1       3.156   3.735  19.783  0.00  0.00    +0.000 A 
BRANCH  15  22
ATOM     21  C   UNL     1       5.156   1.111  21.375  0.00  0.00    +0.000 C 
ATOM     22  O   UNL     1       4.791   2.131  20.440  0.00  0.00    +0.000 OA
ENDBRANCH  15  22
ENDBRANCH   1  20
TORSDOF 4
ENDMDL
MODEL 3
REMARK VINA RESULT:      -6.5      1.049      1.670
REMARK  Name = 
REMARK  6 active torsions:
REMARK  status: ('A' for Active; 'I' for Inactive)
REMARK    1  A    between atoms: C_1  and  O_2
REMARK    2  A    between atoms: O_2  and  C_3
REMARK    3  A    between atoms: C_8  and  N_9
REMARK    4  A    between atoms: C_10  and  C_12
REMARK    5  A    between atoms: C_16  and  O_17
REMARK    6  A    between atoms: O_17  and  C_18
REMARK                            x       y       z     vdW  Elec       q    Type
REMARK                         _______ _______ _______ _____ _____    ______ ____
ROOT
ATOM      1  N   UNL     1       4.451   6.949  17.480  0.00  0.00    +0.000 N 
ATOM      2  C   UNL     1       3.226   6.577  17.997  0.00  0.00    +0.000 C 
ATOM      3  O   UNL     1       2.789   5.425  18.052  0.00  0.00    +0.000 OA
ATOM      4  H   UNL     1       4.840   7.860  17.699  0.00  0.00    +0.000 HD
ENDROOT
BRANCH   2   5
ATOM      5  C   UNL     1       2.373   7.632  18.656  0.00  0.00    +0.000 A 
ATOM      6  C   UNL     1       1.982   7.603  19.938  0.00  0.00    +0.000 A 
ATOM      7  C   UNL     1       1.221   8.777  20.471  0.00  0.00    +0.000 A 
ATOM      8  O   UNL     1       0.877   8.768  21.651  0.00  0.00    +0.000 OA
ATOM      9  C   UNL     1       0.924   9.931  19.538  0.00  0.00    +0.000 A 
ATOM     10  C   UNL     1       1.424   9.824  18.299  0.00  0.00    +0.000 A 
ATOM     11  N   UNL     1       2.099   8.728  17.854  0.00  0.00    +0.000 N 
ATOM     12  H   UNL     1       2.589   8.750  16.957  0.00  0.00    +0.000 HD
BRANCH   9  13
ATOM     13  O   UNL     1       0.220  11.066  19.896  0.00  0.00    +0.000 OA
ATOM     14  C   UNL     1      -1.166  11.033  19.572  0.00  0.00    +0.000 C 
ENDBRANCH   9  13
ENDBRANCH   2   5
BRANCH   1  20
ATOM     15  C   UNL     1       6.347   5.385  17.480  0.00  0.00    +0.000 A 
ATOM     16  C   UNL     1       7.216   4.534  16.776  0.00  0.00    +0.000 A 
ATOM     17  C   UNL     1       7.083   4.352  15.400  0.00  0.00    +0.000 A 
ATOM     18  C   UNL     1       6.082   5.019  14.710  0.00  0.00    +0.000 A 
ATOM     19  C   UNL     1       5.230   5.883  15.394  0.00  0.00    +0.000 A 
ATOM     20  C   UNL     1       5.332   6.075  16.779  0.00  0.00    +0.000 A 
BRANCH  15  22
ATOM     21  C   UNL     1       7.736   5.775  19.360  0.00  0.00    +0.000 C 
ATOM     22  O   UNL     1       6.417   5.578  18.842  0.00  0.00    +0.000 OA
ENDBRANCH  15  22
ENDBRANCH   1  20
TORSDOF 4
ENDMDL
MODEL 4
REMARK VINA RESULT:      -6.4      1.210      1.244
REMARK  Name = 
REMARK  6 active torsions:
REMARK  status: ('A' for Active; 'I' for Inactive)
REMARK    1  A    between atoms: C_1  and  O_2
REMARK    2  A    between atoms: O_2  and  C_3
REMARK    3  A    between atoms: C_8  and  N_9
REMARK    4  A    between atoms: C_10  and  C_12
REMARK    5  A    between atoms: C_16  and  O_17
REMARK    6  A    between atoms: O_17  and  C_18
REMARK                            x       y       z     vdW  Elec       q    Type
REMARK                         _______ _______ _______ _____ _____    ______ ____
ROOT
ATOM      1  N   UNL     1       3.945   6.817  17.568  0.00  0.00    +0.000 N 
ATOM      2  C   UNL     1       3.326   6.612  18.786  0.00  0.00    +0.000 C 
ATOM      3  O   UNL     1       3.550   5.676  19.557  0.00  0.00    +0.000 OA
ATOM      4  H   UNL     1       3.896   7.725  17.119  0.00  0.00    +0.000 HD
ENDROOT
BRANCH   2   5
ATOM      5  C   UNL     1       2.370   7.663  19.292  0.00  0.00    +0.000 A 
ATOM      6  C   UNL     1       1.835   8.631  18.535  0.00  0.00    +0.000 A 
ATOM      7  C   UNL     1       0.823   9.540  19.163  0.00  0.00    +0.000 A 
ATOM      8  O   UNL     1       0.311  10.417  18.471  0.00  0.00    +0.000 OA
ATOM      9  C   UNL     1       0.462   9.326  20.617  0.00  0.00    +0.000 A 
ATOM     10  C   UNL     1       1.055   8.285  21.219  0.00  0.00    +0.000 A 
ATOM     11  N   UNL     1       1.981   7.494  20.610  0.00  0.00    +0.000 N 
ATOM     12  H   UNL     1       2.295   6.628  21.054  0.00  0.00    +0.000 HD
BRANCH   9  13
ATOM     13  O   UNL     1      -0.443  10.099  21.321  0.00  0.00    +0.000 OA
ATOM     14  C   UNL     1      -0.352   9.981  22.737  0.00  0.00    +0.000 C 
ENDBRANCH   9  13
ENDBRANCH   2   5
BRANCH   1  20
ATOM     15  C   UNL     1       6.140   6.271  16.604  0.00  0.00    +0.000 A 
ATOM     16  C   UNL     1       6.991   5.348  15.976  0.00  0.00    +0.000 A 
ATOM     17  C   UNL     1       6.558   4.053  15.690  0.00  0.00    +0.000 A 
ATOM     18  C   UNL     1       5.270   3.666  16.026  0.00  0.00    +0.000 A 
ATOM     19  C   UNL     1       4.409   4.581  16.629  0.00  0.00    +0.000 A 
ATOM     20  C   UNL     1       4.822   5.885  16.939  0.00  0.00    +0.000 A 
BRANCH  15  22
ATOM     21  C   UNL     1       7.743   7.647  17.679  0.00  0.00    +0.000 C 
ATOM     22  O   UNL     1       6.525   7.552  16.934  0.00  0.00    +0.000 OA
ENDBRANCH  15  22
ENDBRANCH   1  20
TORSDOF 4
ENDMDL
MODEL 5
REMARK VINA RESULT:      -6.4      4.032      7.611
REMARK  Name = 
REMARK  6 active torsions:
REMARK  status: ('A' for Active; 'I' for Inactive)
REMARK    1  A    between atoms: C_1  and  O_2
REMARK    2  A    between atoms: O_2  and  C_3
REMARK    3  A    between atoms: C_8  and  N_9
REMARK    4  A    between atoms: C_10  and  C_12
REMARK    5  A    between atoms: C_16  and  O_17
REMARK    6  A    between atoms: O_17  and  C_18
REMARK                            x       y       z     vdW  Elec       q    Type
REMARK                         _______ _______ _______ _____ _____    ______ ____
ROOT
ATOM      1  N   UNL     1       3.826   3.617  17.771  0.00  0.00    +0.000 N 
ATOM      2  C   UNL     1       4.555   4.730  17.397  0.00  0.00    +0.000 C 
ATOM      3  O   UNL     1       4.739   5.734  18.089  0.00  0.00    +0.000 OA
ATOM      4  H   UNL     1       3.931   2.746  17.262  0.00  0.00    +0.000 HD
ENDROOT
BRANCH   2   5
ATOM      5  C   UNL     1       5.289   4.698  16.080  0.00  0.00    +0.000 A 
ATOM      6  C   UNL     1       6.445   5.333  15.839  0.00  0.00    +0.000 A 
ATOM      7  C   UNL     1       7.102   5.123  14.509  0.00  0.00    +0.000 A 
ATOM      8  O   UNL     1       8.172   5.683  14.287  0.00  0.00    +0.000 OA
ATOM      9  C   UNL     1       6.427   4.214  13.505  0.00  0.00    +0.000 A 
ATOM     10  C   UNL     1       5.299   3.621  13.919  0.00  0.00    +0.000 A 
ATOM     11  N   UNL     1       4.731   3.854  15.135  0.00  0.00    +0.000 N 
ATOM     12  H   UNL     1       3.958   3.272  15.466  0.00  0.00    +0.000 HD
BRANCH   9  13
ATOM     13  O   UNL     1       6.917   3.945  12.240  0.00  0.00    +0.000 OA
ATOM     14  C   UNL     1       6.512   2.691  11.699  0.00  0.00    +0.000 C 
ENDBRANCH   9  13
ENDBRANCH   2   5
BRANCH   1  20
ATOM     15  C   UNL     1       3.559   2.900  20.107  0.00  0.00    +0.000 A 
ATOM     16  C   UNL     1       2.768   2.809  21.263  0.00  0.00    +0.000 A 
ATOM     17  C   UNL     1       1.479   3.341  21.294  0.00  0.00    +0.000 A 
ATOM     18  C   UNL     1       0.965   3.968  20.169  0.00  0.00    +0.000 A 
ATOM     19  C   UNL     1       1.733   4.043  19.009  0.00  0.00    +0.000 A 
ATOM     20  C   UNL     1       3.036   3.528  18.954  0.00  0.00    +0.000 A 
BRANCH  15  22
ATOM     21  C   UNL     1       5.125   1.294  20.875  0.00  0.00    +0.000 C 
ATOM     22  O   UNL     1       4.847   2.417  20.032  0.00  0.00    +0.000 OA
ENDBRANCH  15  22
ENDBRANCH   1  20
TORSDOF 4
ENDMDL
MODEL 6
REMARK VINA RESULT:      -6.4      2.294      2.734
REMARK  Name = 
REMARK  6 active torsions:
REMARK  status: ('A' for Active; 'I' for Inactive)
REMARK    1  A    between atoms: C_1  and  O_2
REMARK    2  A    between atoms: O_2  and  C_3
REMARK    3  A    between atoms: C_8  and  N_9
REMARK    4  A    between atoms: C_10  and  C_12
REMARK    5  A    between atoms: C_16  and  O_17
REMARK    6  A    between atoms: O_17  and  C_18
REMARK                            x       y       z     vdW  Elec       q    Type
REMARK                         _______ _______ _______ _____ _____    ______ ____
ROOT
ATOM      1  N   UNL     1       2.137   5.880  19.617  0.00  0.00    +0.000 N 
ATOM      2  C   UNL     1       2.211   7.143  19.061  0.00  0.00    +0.000 C 
ATOM      3  O   UNL     1       2.593   7.402  17.917  0.00  0.00    +0.000 OA
ATOM      4  H   UNL     1       1.585   5.725  20.453  0.00  0.00    +0.000 HD
ENDROOT
BRANCH   2   5
ATOM      5  C   UNL     1       1.687   8.311  19.857  0.00  0.00    +0.000 A 
ATOM      6  C   UNL     1       1.173   9.427  19.321  0.00  0.00    +0.000 A 
ATOM      7  C   UNL     1       0.601  10.456  20.246  0.00  0.00    +0.000 A 
ATOM      8  O   UNL     1       0.108  11.473  19.763  0.00  0.00    +0.000 OA
ATOM      9  C   UNL     1       0.639  10.191  21.736  0.00  0.00    +0.000 A 
ATOM     10  C   UNL     1       1.146   9.006  22.105  0.00  0.00    +0.000 A 
ATOM     11  N   UNL     1       1.668   8.107  21.227  0.00  0.00    +0.000 N 
ATOM     12  H   UNL     1       1.906   7.161  21.533  0.00  0.00    +0.000 HD
BRANCH   9  13
ATOM     13  O   UNL     1       0.159  11.060  22.699  0.00  0.00    +0.000 OA
ATOM     14  C   UNL     1      -1.188  10.824  23.095  0.00  0.00    +0.000 C 
ENDBRANCH   9  13
ENDBRANCH   2   5
BRANCH   1  20
ATOM     15  C   UNL     1       4.031   4.412  19.068  0.00  0.00    +0.000 A 
ATOM     16  C   UNL     1       4.523   3.248  18.455  0.00  0.00    +0.000 A 
ATOM     17  C   UNL     1       3.666   2.366  17.799  0.00  0.00    +0.000 A 
ATOM     18  C   UNL     1       2.307   2.635  17.746  0.00  0.00    +0.000 A 
ATOM     19  C   UNL     1       1.810   3.799  18.330  0.00  0.00    +0.000 A 
ATOM     20  C   UNL     1       2.648   4.697  19.007  0.00  0.00    +0.000 A 
BRANCH  15  22
ATOM     21  C   UNL     1       6.179   5.388  19.287  0.00  0.00    +0.000 C 
ATOM     22  O   UNL     1       4.829   5.303  19.752  0.00  0.00    +0.000 OA
ENDBRANCH  15  22
ENDBRANCH   1  20
TORSDOF 4
ENDMDL
MODEL 7
REMARK VINA RESULT:      -6.4      3.385      7.726
REMARK  Name = 
REMARK  6 active torsions:
REMARK  status: ('A' for Active; 'I' for Inactive)
REMARK    1  A    between atoms: C_1  and  O_2
REMARK    2  A    between atoms: O_2  and  C_3
REMARK    3  A    between atoms: C_8  and  N_9
REMARK    4  A    between atoms: C_10  and  C_12
REMARK    5  A    between atoms: C_16  and  O_17
REMARK    6  A    between atoms: O_17  and  C_18
REMARK                            x       y       z     vdW  Elec       q    Type
REMARK                         _______ _______ _______ _____ _____    ______ ____
ROOT
ATOM      1  N   UNL     1       3.947   3.817  17.878  0.00  0.00    +0.000 N 
ATOM      2  C   UNL     1       5.192   4.378  17.667  0.00  0.00    +0.000 C 
ATOM      3  O   UNL     1       5.967   4.757  18.548  0.00  0.00    +0.000 OA
ATOM      4  H   UNL     1       3.487   3.306  17.132  0.00  0.00    +0.000 HD
ENDROOT
BRANCH   2   5
ATOM      5  C   UNL     1       5.720   4.446  16.256  0.00  0.00    +0.000 A 
ATOM      6  C   UNL     1       6.783   5.169  15.876  0.00  0.00    +0.000 A 
ATOM      7  C   UNL     1       7.244   5.053  14.456  0.00  0.00    +0.000 A 
ATOM      8  O   UNL     1       8.231   5.696  14.104  0.00  0.00    +0.000 OA
ATOM      9  C   UNL     1       6.485   4.136  13.521  0.00  0.00    +0.000 A 
ATOM     10  C   UNL     1       5.473   3.450  14.070  0.00  0.00    +0.000 A 
ATOM     11  N   UNL     1       5.081   3.599  15.365  0.00  0.00    +0.000 N 
ATOM     12  H   UNL     1       4.406   2.953  15.780  0.00  0.00    +0.000 HD
BRANCH   9  13
ATOM     13  O   UNL     1       6.796   3.948  12.186  0.00  0.00    +0.000 OA
ATOM     14  C   UNL     1       6.238   2.774  11.606  0.00  0.00    +0.000 C 
ENDBRANCH   9  13
ENDBRANCH   2   5
BRANCH   1  20
ATOM     15  C   UNL     1       2.366   4.735  19.520  0.00  0.00    +0.000 A 
ATOM     16  C   UNL     1       1.740   4.656  20.775  0.00  0.00    +0.000 A 
ATOM     17  C   UNL     1       2.017   3.605  21.649  0.00  0.00    +0.000 A 
ATOM     18  C   UNL     1       2.923   2.622  21.281  0.00  0.00    +0.000 A 
ATOM     19  C   UNL     1       3.567   2.703  20.048  0.00  0.00    +0.000 A 
ATOM     20  C   UNL     1       3.298   3.741  19.145  0.00  0.00    +0.000 A 
BRANCH  15  22
ATOM     21  C   UNL     1       2.541   7.041  19.001  0.00  0.00    +0.000 C 
ATOM     22  O   UNL     1       2.109   5.735  18.608  0.00  0.00    +0.000 OA
ENDBRANCH  15  22
ENDBRANCH   1  20
TORSDOF 4
ENDMDL
MODEL 8
REMARK VINA RESULT:      -6.4      2.153      3.473
REMARK  Name = 
REMARK  6 active torsions:
REMARK  status: ('A' for Active; 'I' for Inactive)
REMARK    1  A    between atoms: C_1  and  O_2
REMARK    2  A    between atoms: O_2  and  C_3
REMARK    3  A    between atoms: C_8  and  N_9
REMARK    4  A    between atoms: C_10  and  C_12
REMARK    5  A    between atoms: C_16  and  O_17
REMARK    6  A    between atoms: O_17  and  C_18
REMARK                            x       y       z     vdW  Elec       q    Type
REMARK                         _______ _______ _______ _____ _____    ______ ____
ROOT
ATOM      1  N   UNL     1       2.507   6.875  19.294  0.00  0.00    +0.000 N 
ATOM      2  C   UNL     1       1.906   8.056  18.905  0.00  0.00    +0.000 C 
ATOM      3  O   UNL     1       1.729   8.423  17.741  0.00  0.00    +0.000 OA
ATOM      4  H   UNL     1       2.388   6.532  20.241  0.00  0.00    +0.000 HD
ENDROOT
BRANCH   2   5
ATOM      5  C   UNL     1       1.307   8.942  19.969  0.00  0.00    +0.000 A 
ATOM      6  C   UNL     1       1.343   8.682  21.284  0.00  0.00    +0.000 A 
ATOM      7  C   UNL     1       0.791   9.710  22.222  0.00  0.00    +0.000 A 
ATOM      8  O   UNL     1       0.840   9.490  23.430  0.00  0.00    +0.000 OA
ATOM      9  C   UNL     1       0.214  10.984  21.642  0.00  0.00    +0.000 A 
ATOM     10  C   UNL     1       0.296  11.108  20.310  0.00  0.00    +0.000 A 
ATOM     11  N   UNL     1       0.794  10.138  19.495  0.00  0.00    +0.000 N 
ATOM     12  H   UNL     1       0.974  10.332  18.507  0.00  0.00    +0.000 HD
BRANCH   9  13
ATOM     13  O   UNL     1      -0.338  12.006  22.392  0.00  0.00    +0.000 OA
ATOM     14  C   UNL     1      -1.699  11.803  22.762  0.00  0.00    +0.000 C 
ENDBRANCH   9  13
ENDBRANCH   2   5
BRANCH   1  20
ATOM     15  C   UNL     1       2.620   4.690  18.173  0.00  0.00    +0.000 A 
ATOM     16  C   UNL     1       3.283   3.806  17.306  0.00  0.00    +0.000 A 
ATOM     17  C   UNL     1       4.463   4.181  16.666  0.00  0.00    +0.000 A 
ATOM     18  C   UNL     1       4.997   5.442  16.884  0.00  0.00    +0.000 A 
ATOM     19  C   UNL     1       4.360   6.318  17.760  0.00  0.00    +0.000 A 
ATOM     20  C   UNL     1       3.165   5.973  18.408  0.00  0.00    +0.000 A 
BRANCH  15  22
ATOM     21  C   UNL     1       1.175   2.983  18.956  0.00  0.00    +0.000 C 
ATOM     22  O   UNL     1       1.438   4.381  18.810  0.00  0.00    +0.000 OA
ENDBRANCH  15  22
ENDBRANCH   1  20
TORSDOF 4
ENDMDL
MODEL 9
REMARK VINA RESULT:      -6.3      2.207      2.671
REMARK  Name = 
REMARK  6 active torsions:
REMARK  status: ('A' for Active; 'I' for Inactive)
REMARK    1  A    between atoms: C_1  and  O_2
REMARK    2  A    between atoms: O_2  and  C_3
REMARK    3  A    between atoms: C_8  and  N_9
REMARK    4  A    between atoms: C_10  and  C_12
REMARK    5  A    between atoms: C_16  and  O_17
REMARK    6  A    between atoms: O_17  and  C_18
REMARK                            x       y       z     vdW  Elec       q    Type
REMARK                         _______ _______ _______ _____ _____    ______ ____
ROOT
ATOM      1  N   UNL     1       2.569   6.313  18.930  0.00  0.00    +0.000 N 
ATOM      2  C   UNL     1       1.946   6.615  20.125  0.00  0.00    +0.000 C 
ATOM      3  O   UNL     1       1.740   5.823  21.048  0.00  0.00    +0.000 OA
ATOM      4  H   UNL     1       2.924   7.057  18.340  0.00  0.00    +0.000 HD
ENDROOT
BRANCH   2   5
ATOM      5  C   UNL     1       1.572   8.050  20.398  0.00  0.00    +0.000 A 
ATOM      6  C   UNL     1       1.288   8.956  19.451  0.00  0.00    +0.000 A 
ATOM      7  C   UNL     1       0.836  10.315  19.887  0.00  0.00    +0.000 A 
ATOM      8  O   UNL     1       0.553  11.145  19.026  0.00  0.00    +0.000 OA
ATOM      9  C   UNL     1       0.731  10.602  21.370  0.00  0.00    +0.000 A 
ATOM     10  C   UNL     1       1.008   9.575  22.184  0.00  0.00    +0.000 A 
ATOM     11  N   UNL     1       1.430   8.358  21.741  0.00  0.00    +0.000 N 
ATOM     12  H   UNL     1       1.486   7.564  22.383  0.00  0.00    +0.000 HD
BRANCH   9  13
ATOM     13  O   UNL     1       0.341  11.816  21.906  0.00  0.00    +0.000 OA
ATOM     14  C   UNL     1      -0.920  11.796  22.567  0.00  0.00    +0.000 C 
ENDBRANCH   9  13
ENDBRANCH   2   5
BRANCH   1  20
ATOM     15  C   UNL     1       4.205   4.483  18.812  0.00  0.00    +0.000 A 
ATOM     16  C   UNL     1       4.546   3.188  18.386  0.00  0.00    +0.000 A 
ATOM     17  C   UNL     1       3.634   2.401  17.684  0.00  0.00    +0.000 A 
ATOM     18  C   UNL     1       2.372   2.897  17.397  0.00  0.00    +0.000 A 
ATOM     19  C   UNL     1       2.031   4.188  17.794  0.00  0.00    +0.000 A 
ATOM     20  C   UNL     1       2.923   4.997  18.512  0.00  0.00    +0.000 A 
BRANCH  15  22
ATOM     21  C   UNL     1       6.395   5.361  19.031  0.00  0.00    +0.000 C 
ATOM     22  O   UNL     1       5.057   5.291  19.532  0.00  0.00    +0.000 OA
ENDBRANCH  15  22
ENDBRANCH   1  20
TORSDOF 4
ENDMDL
