MODEL 1
REMARK VINA RESULT:      -9.0      0.000      0.000
REMARK  Name = 
REMARK  6 active torsions:
REMARK  status: ('A' for Active; 'I' for Inactive)
REMARK    1  A    between atoms: N_3  and  C_4
REMARK    2  A    between atoms: N_10  and  C_11
REMARK    3  A    between atoms: C_14  and  N_15
REMARK    4  A    between atoms: N_15  and  C_16
REMARK    5  A    between atoms: C_16  and  C_17
REMARK    6  A    between atoms: C_21  and  O_22
REMARK                            x       y       z     vdW  Elec       q    Type
REMARK                         _______ _______ _______ _____ _____    ______ ____
ROOT
ATOM      1  C   UNL     1       6.569   6.967  17.186  0.00  0.00    +0.000 A 
ATOM      2  C   UNL     1       7.258   5.794  16.875  0.00  0.00    +0.000 A 
ATOM      3  C   UNL     1       6.651   4.545  16.989  0.00  0.00    +0.000 A 
ATOM      4  C   UNL     1       5.345   4.421  17.453  0.00  0.00    +0.000 A 
ATOM      5  C   UNL     1       4.631   5.599  17.703  0.00  0.00    +0.000 A 
ATOM      6  C   UNL     1       5.236   6.861  17.584  0.00  0.00    +0.000 A 
ENDROOT
BRANCH   1  10
ATOM      7  O   UNL     1       8.710   8.003  18.819  0.00  0.00    +0.000 OA
ATOM      8  C   UNL     1       8.161   8.703  17.975  0.00  0.00    +0.000 C 
ATOM      9  N   UNL     1       8.458  10.043  17.788  0.00  0.00    +0.000 N 
ATOM     10  N   UNL     1       7.162   8.254  17.133  0.00  0.00    +0.000 N 
ATOM     11  H   UNL     1       7.795  10.595  17.266  0.00  0.00    +0.000 HD
ATOM     12  H   UNL     1       6.864   8.863  16.386  0.00  0.00    +0.000 HD
BRANCH   9  13
ATOM     13  C   UNL     1       9.439  10.751  18.527  0.00  0.00    +0.000 A 
ATOM     14  C   UNL     1      10.607  11.267  17.947  0.00  0.00    +0.000 A 
ATOM     15  C   UNL     1      11.580  11.897  18.722  0.00  0.00    +0.000 A 
ATOM     16  C   UNL     1      11.386  12.046  20.088  0.00  0.00    +0.000 A 
ATOM     17  C   UNL     1      10.215  11.569  20.675  0.00  0.00    +0.000 A 
ATOM     18  C   UNL     1       9.242  10.930  19.898  0.00  0.00    +0.000 A 
ENDBRANCH   9  13
ENDBRANCH   1  10
BRANCH   4  19
ATOM     19  N   UNL     1       4.797   3.147  17.532  0.00  0.00    +0.000 N 
ATOM     20  H   UNL     1       5.127   2.606  18.325  0.00  0.00    +0.000 HD
BRANCH  19  21
ATOM     21  C   UNL     1       3.383   2.936  17.266  0.00  0.00    +0.000 C 
BRANCH  21  22
ATOM     22  C   UNL     1       2.583   2.987  18.544  0.00  0.00    +0.000 A 
ATOM     23  C   UNL     1       1.281   3.511  18.590  0.00  0.00    +0.000 A 
ATOM     24  C   UNL     1       0.579   3.580  19.795  0.00  0.00    +0.000 A 
ATOM     25  C   UNL     1       1.176   3.138  20.972  0.00  0.00    +0.000 A 
ATOM     26  C   UNL     1       2.471   2.631  20.933  0.00  0.00    +0.000 A 
ATOM     27  C   UNL     1       3.176   2.556  19.737  0.00  0.00    +0.000 A 
BRANCH  26  28
ATOM     28  O   UNL     1       3.098   2.195  22.062  0.00  0.00    +0.000 OA
ATOM     29  H   UNL     1       4.036   2.444  22.006  0.00  0.00    +0.000 HD
ENDBRANCH  26  28
ENDBRANCH  21  22
ENDBRANCH  19  21
ENDBRANCH   4  19
TORSDOF 6
ENDMDL
MODEL 2
REMARK VINA RESULT:      -9.0      0.441      1.057
REMARK  Name = 
REMARK  6 active torsions:
REMARK  status: ('A' for Active; 'I' for Inactive)
REMARK    1  A    between atoms: N_3  and  C_4
REMARK    2  A    between atoms: N_10  and  C_11
REMARK    3  A    between atoms: C_14  and  N_15
REMARK    4  A    between atoms: N_15  and  C_16
REMARK    5  A    between atoms: C_16  and  C_17
REMARK    6  A    between atoms: C_21  and  O_22
REMARK                            x       y       z     vdW  Elec       q    Type
REMARK                         _______ _______ _______ _____ _____    ______ ____
ROOT
ATOM      1  C   UNL     1       6.586   6.912  17.177  0.00  0.00    +0.000 A 
ATOM      2  C   UNL     1       7.267   5.768  17.594  0.00  0.00    +0.000 A 
ATOM      3  C   UNL     1       6.640   4.525  17.634  0.00  0.00    +0.000 A 
ATOM      4  C   UNL     1       5.298   4.387  17.296  0.00  0.00    +0.000 A 
ATOM      5  C   UNL     1       4.630   5.520  16.816  0.00  0.00    +0.000 A 
ATOM      6  C   UNL     1       5.259   6.775  16.767  0.00  0.00    +0.000 A 
ENDROOT
BRANCH   1  10
ATOM      7  O   UNL     1       8.721   7.907  18.844  0.00  0.00    +0.000 OA
ATOM      8  C   UNL     1       8.166   8.632  18.025  0.00  0.00    +0.000 C 
ATOM      9  N   UNL     1       8.453   9.980  17.884  0.00  0.00    +0.000 N 
ATOM     10  N   UNL     1       7.170   8.205  17.168  0.00  0.00    +0.000 N 
ATOM     11  H   UNL     1       7.786  10.545  17.380  0.00  0.00    +0.000 HD
ATOM     12  H   UNL     1       6.867   8.837  16.442  0.00  0.00    +0.000 HD
BRANCH   9  13
ATOM     13  C   UNL     1       9.429  10.669  18.646  0.00  0.00    +0.000 A 
ATOM     14  C   UNL     1       9.306  10.888  20.026  0.00  0.00    +0.000 A 
ATOM     15  C   UNL     1      10.256  11.631  20.726  0.00  0.00    +0.000 A 
ATOM     16  C   UNL     1      11.361  12.143  20.060  0.00  0.00    +0.000 A 
ATOM     17  C   UNL     1      11.516  11.905  18.696  0.00  0.00    +0.000 A 
ATOM     18  C   UNL     1      10.558  11.165  17.991  0.00  0.00    +0.000 A 
ENDBRANCH   9  13
ENDBRANCH   1  10
BRANCH   4  19
ATOM     19  N   UNL     1       4.737   3.117  17.348  0.00  0.00    +0.000 N 
ATOM     20  H   UNL     1       5.164   2.508  18.039  0.00  0.00    +0.000 HD
BRANCH  19  21
ATOM     21  C   UNL     1       3.295   2.946  17.271  0.00  0.00    +0.000 C 
BRANCH  21  22
ATOM     22  C   UNL     1       2.650   3.221  18.608  0.00  0.00    +0.000 A 
ATOM     23  C   UNL     1       1.625   4.169  18.761  0.00  0.00    +0.000 A 
ATOM     24  C   UNL     1       1.074   4.429  20.017  0.00  0.00    +0.000 A 
ATOM     25  C   UNL     1       1.549   3.754  21.138  0.00  0.00    +0.000 A 
ATOM     26  C   UNL     1       2.573   2.824  20.992  0.00  0.00    +0.000 A 
ATOM     27  C   UNL     1       3.125   2.556  19.744  0.00  0.00    +0.000 A 
BRANCH  26  28
ATOM     28  O   UNL     1       3.075   2.145  22.062  0.00  0.00    +0.000 OA
ATOM     29  H   UNL     1       2.338   1.923  22.655  0.00  0.00    +0.000 HD
ENDBRANCH  26  28
ENDBRANCH  21  22
ENDBRANCH  19  21
ENDBRANCH   4  19
TORSDOF 6
ENDMDL
MODEL 3
REMARK VINA RESULT:      -8.8      1.065      1.481
REMARK  Name = 
REMARK  6 active torsions:
REMARK  status: ('A' for Active; 'I' for Inactive)
REMARK    1  A    between atoms: N_3  and  C_4
REMARK    2  A    between atoms: N_10  and  C_11
REMARK    3  A    between atoms: C_14  and  N_15
REMARK    4  A    between atoms: N_15  and  C_16
REMARK    5  A    between atoms: C_16  and  C_17
REMARK    6  A    between atoms: C_21  and  O_22
REMARK                            x       y       z     vdW  Elec       q    Type
REMARK                         _______ _______ _______ _____ _____    ______ ____
ROOT
ATOM      1  C   UNL     1       6.552   6.913  17.142  0.00  0.00    +0.000 A 
ATOM      2  C   UNL     1       7.265   5.735  17.368  0.00  0.00    +0.000 A 
ATOM      3  C   UNL     1       6.626   4.498  17.416  0.00  0.00    +0.000 A 
ATOM      4  C   UNL     1       5.245   4.398  17.278  0.00  0.00    +0.000 A 
ATOM      5  C   UNL     1       4.536   5.570  16.987  0.00  0.00    +0.000 A 
ATOM      6  C   UNL     1       5.176   6.818  16.931  0.00  0.00    +0.000 A 
ENDROOT
BRANCH   1  10
ATOM      7  O   UNL     1       8.667   7.891  18.844  0.00  0.00    +0.000 OA
ATOM      8  C   UNL     1       8.138   8.618  18.009  0.00  0.00    +0.000 C 
ATOM      9  N   UNL     1       8.447   9.960  17.864  0.00  0.00    +0.000 N 
ATOM     10  N   UNL     1       7.154   8.197  17.136  0.00  0.00    +0.000 N 
ATOM     11  H   UNL     1       7.798  10.530  17.343  0.00  0.00    +0.000 HD
ATOM     12  H   UNL     1       6.874   8.828  16.399  0.00  0.00    +0.000 HD
BRANCH   9  13
ATOM     13  C   UNL     1       9.418  10.641  18.640  0.00  0.00    +0.000 A 
ATOM     14  C   UNL     1       9.277  10.859  20.018  0.00  0.00    +0.000 A 
ATOM     15  C   UNL     1      10.222  11.595  20.733  0.00  0.00    +0.000 A 
ATOM     16  C   UNL     1      11.340  12.100  20.083  0.00  0.00    +0.000 A 
ATOM     17  C   UNL     1      11.512  11.863  18.720  0.00  0.00    +0.000 A 
ATOM     18  C   UNL     1      10.559  11.131  18.002  0.00  0.00    +0.000 A 
ENDBRANCH   9  13
ENDBRANCH   1  10
BRANCH   4  19
ATOM     19  N   UNL     1       4.673   3.133  17.325  0.00  0.00    +0.000 N 
ATOM     20  H   UNL     1       5.037   2.492  16.627  0.00  0.00    +0.000 HD
BRANCH  19  21
ATOM     21  C   UNL     1       4.427   2.484  18.602  0.00  0.00    +0.000 C 
BRANCH  21  22
ATOM     22  C   UNL     1       3.164   3.010  19.238  0.00  0.00    +0.000 A 
ATOM     23  C   UNL     1       1.920   2.386  19.056  0.00  0.00    +0.000 A 
ATOM     24  C   UNL     1       0.762   2.918  19.626  0.00  0.00    +0.000 A 
ATOM     25  C   UNL     1       0.832   4.089  20.376  0.00  0.00    +0.000 A 
ATOM     26  C   UNL     1       2.061   4.718  20.547  0.00  0.00    +0.000 A 
ATOM     27  C   UNL     1       3.219   4.193  19.986  0.00  0.00    +0.000 A 
BRANCH  26  28
ATOM     28  O   UNL     1       2.176   5.871  21.266  0.00  0.00    +0.000 OA
ATOM     29  H   UNL     1       1.530   5.843  21.992  0.00  0.00    +0.000 HD
ENDBRANCH  26  28
ENDBRANCH  21  22
ENDBRANCH  19  21
ENDBRANCH   4  19
TORSDOF 6
ENDMDL
MODEL 4
REMARK VINA RESULT:      -8.8      0.585      1.152
REMARK  Name = 
REMARK  6 active torsions:
REMARK  status: ('A' for Active; 'I' for Inactive)
REMARK    1  A    between atoms: N_3  and  C_4
REMARK    2  A    between atoms: N_10  and  C_11
REMARK    3  A    between atoms: C_14  and  N_15
REMARK    4  A    between atoms: N_15  and  C_16
REMARK    5  A    between atoms: C_16  and  C_17
REMARK    6  A    between atoms: C_21  and  O_22
REMARK                            x       y       z     vdW  Elec       q    Type
REMARK                         _______ _______ _______ _____ _____    ______ ____
ROOT
ATOM      1  C   UNL     1       6.448   6.970  17.153  0.00  0.00    +0.000 A 
ATOM      2  C   UNL     1       5.122   6.769  17.537  0.00  0.00    +0.000 A 
ATOM      3  C   UNL     1       4.546   5.500  17.518  0.00  0.00    +0.000 A 
ATOM      4  C   UNL     1       5.264   4.393  17.078  0.00  0.00    +0.000 A 
ATOM      5  C   UNL     1       6.613   4.581  16.755  0.00  0.00    +0.000 A 
ATOM      6  C   UNL     1       7.201   5.856  16.779  0.00  0.00    +0.000 A 
ENDROOT
BRANCH   1  10
ATOM      7  O   UNL     1       8.630   7.951  18.767  0.00  0.00    +0.000 OA
ATOM      8  C   UNL     1       8.078   8.672  17.942  0.00  0.00    +0.000 C 
ATOM      9  N   UNL     1       8.392  10.009  17.769  0.00  0.00    +0.000 N 
ATOM     10  N   UNL     1       7.060   8.249  17.109  0.00  0.00    +0.000 N 
ATOM     11  H   UNL     1       7.729  10.579  17.265  0.00  0.00    +0.000 HD
ATOM     12  H   UNL     1       6.759   8.873  16.375  0.00  0.00    +0.000 HD
BRANCH   9  13
ATOM     13  C   UNL     1       9.395  10.692  18.503  0.00  0.00    +0.000 A 
ATOM     14  C   UNL     1      10.569  11.184  17.915  0.00  0.00    +0.000 A 
ATOM     15  C   UNL     1      11.562  11.789  18.684  0.00  0.00    +0.000 A 
ATOM     16  C   UNL     1      11.382  11.937  20.052  0.00  0.00    +0.000 A 
ATOM     17  C   UNL     1      10.206  11.485  20.647  0.00  0.00    +0.000 A 
ATOM     18  C   UNL     1       9.212  10.870  19.875  0.00  0.00    +0.000 A 
ENDBRANCH   9  13
ENDBRANCH   1  10
BRANCH   4  19
ATOM     19  N   UNL     1       4.632   3.155  17.095  0.00  0.00    +0.000 N 
ATOM     20  H   UNL     1       4.859   2.568  16.298  0.00  0.00    +0.000 HD
BRANCH  19  21
ATOM     21  C   UNL     1       4.529   2.398  18.331  0.00  0.00    +0.000 C 
BRANCH  21  22
ATOM     22  C   UNL     1       3.181   2.604  18.977  0.00  0.00    +0.000 A 
ATOM     23  C   UNL     1       2.011   2.784  18.222  0.00  0.00    +0.000 A 
ATOM     24  C   UNL     1       0.784   3.011  18.848  0.00  0.00    +0.000 A 
ATOM     25  C   UNL     1       0.713   3.073  20.237  0.00  0.00    +0.000 A 
ATOM     26  C   UNL     1       1.872   2.909  20.988  0.00  0.00    +0.000 A 
ATOM     27  C   UNL     1       3.098   2.680  20.373  0.00  0.00    +0.000 A 
BRANCH  26  28
ATOM     28  O   UNL     1       1.853   2.971  22.349  0.00  0.00    +0.000 OA
ATOM     29  H   UNL     1       1.366   3.770  22.611  0.00  0.00    +0.000 HD
ENDBRANCH  26  28
ENDBRANCH  21  22
ENDBRANCH  19  21
ENDBRANCH   4  19
TORSDOF 6
ENDMDL
MODEL 5
REMARK VINA RESULT:      -8.6      1.223      1.443
REMARK  Name = 
REMARK  6 active torsions:
REMARK  status: ('A' for Active; 'I' for Inactive)
REMARK    1  A    between atoms: N_3  and  C_4
REMARK    2  A    between atoms: N_10  and  C_11
REMARK    3  A    between atoms: C_14  and  N_15
REMARK    4  A    between atoms: N_15  and  C_16
REMARK    5  A    between atoms: C_16  and  C_17
REMARK    6  A    between atoms: C_21  and  O_22
REMARK                            x       y       z     vdW  Elec       q    Type
REMARK                         _______ _______ _______ _____ _____    ______ ____
ROOT
ATOM      1  C   UNL     1       6.564   6.907  17.215  0.00  0.00    +0.000 A 
ATOM      2  C   UNL     1       6.981   5.912  18.102  0.00  0.00    +0.000 A 
ATOM      3  C   UNL     1       6.364   4.664  18.132  0.00  0.00    +0.000 A 
ATOM      4  C   UNL     1       5.285   4.376  17.303  0.00  0.00    +0.000 A 
ATOM      5  C   UNL     1       4.908   5.348  16.368  0.00  0.00    +0.000 A 
ATOM      6  C   UNL     1       5.529   6.606  16.329  0.00  0.00    +0.000 A 
ENDROOT
BRANCH   1  10
ATOM      7  O   UNL     1       8.738   7.936  18.809  0.00  0.00    +0.000 OA
ATOM      8  C   UNL     1       8.147   8.651  18.008  0.00  0.00    +0.000 C 
ATOM      9  N   UNL     1       8.410  10.002  17.855  0.00  0.00    +0.000 N 
ATOM     10  N   UNL     1       7.129   8.207  17.185  0.00  0.00    +0.000 N 
ATOM     11  H   UNL     1       7.718  10.556  17.373  0.00  0.00    +0.000 HD
ATOM     12  H   UNL     1       6.793   8.834  16.468  0.00  0.00    +0.000 HD
BRANCH   9  13
ATOM     13  C   UNL     1       9.401  10.707  18.584  0.00  0.00    +0.000 A 
ATOM     14  C   UNL     1      10.572  11.205  17.995  0.00  0.00    +0.000 A 
ATOM     15  C   UNL     1      11.554  11.832  18.761  0.00  0.00    +0.000 A 
ATOM     16  C   UNL     1      11.365  11.997  20.126  0.00  0.00    +0.000 A 
ATOM     17  C   UNL     1      10.191  11.539  20.721  0.00  0.00    +0.000 A 
ATOM     18  C   UNL     1       9.209  10.902  19.953  0.00  0.00    +0.000 A 
ENDBRANCH   9  13
ENDBRANCH   1  10
BRANCH   4  19
ATOM     19  N   UNL     1       4.724   3.107  17.376  0.00  0.00    +0.000 N 
ATOM     20  H   UNL     1       5.271   2.447  17.920  0.00  0.00    +0.000 HD
BRANCH  19  21
ATOM     21  C   UNL     1       3.294   2.946  17.582  0.00  0.00    +0.000 C 
BRANCH  21  22
ATOM     22  C   UNL     1       2.910   3.307  18.996  0.00  0.00    +0.000 A 
ATOM     23  C   UNL     1       2.826   2.345  20.016  0.00  0.00    +0.000 A 
ATOM     24  C   UNL     1       2.431   2.704  21.306  0.00  0.00    +0.000 A 
ATOM     25  C   UNL     1       2.104   4.027  21.590  0.00  0.00    +0.000 A 
ATOM     26  C   UNL     1       2.173   4.980  20.579  0.00  0.00    +0.000 A 
ATOM     27  C   UNL     1       2.568   4.632  19.292  0.00  0.00    +0.000 A 
BRANCH  26  28
ATOM     28  O   UNL     1       1.853   6.285  20.808  0.00  0.00    +0.000 OA
ATOM     29  H   UNL     1       2.071   6.797  20.011  0.00  0.00    +0.000 HD
ENDBRANCH  26  28
ENDBRANCH  21  22
ENDBRANCH  19  21
ENDBRANCH   4  19
TORSDOF 6
ENDMDL
MODEL 6
REMARK VINA RESULT:      -8.5      1.051      1.947
REMARK  Name = 
REMARK  6 active torsions:
REMARK  status: ('A' for Active; 'I' for Inactive)
REMARK    1  A    between atoms: N_3  and  C_4
REMARK    2  A    between atoms: N_10  and  C_11
REMARK    3  A    between atoms: C_14  and  N_15
REMARK    4  A    between atoms: N_15  and  C_16
REMARK    5  A    between atoms: C_16  and  C_17
REMARK    6  A    between atoms: C_21  and  O_22
REMARK                            x       y       z     vdW  Elec       q    Type
REMARK                         _______ _______ _______ _____ _____    ______ ____
ROOT
ATOM      1  C   UNL     1       6.391   6.918  17.193  0.00  0.00    +0.000 A 
ATOM      2  C   UNL     1       5.032   6.775  17.478  0.00  0.00    +0.000 A 
ATOM      3  C   UNL     1       4.419   5.525  17.479  0.00  0.00    +0.000 A 
ATOM      4  C   UNL     1       5.133   4.375  17.158  0.00  0.00    +0.000 A 
ATOM      5  C   UNL     1       6.509   4.507  16.936  0.00  0.00    +0.000 A 
ATOM      6  C   UNL     1       7.134   5.764  16.940  0.00  0.00    +0.000 A 
ENDROOT
BRANCH   1  10
ATOM      7  O   UNL     1       8.560   7.873  18.838  0.00  0.00    +0.000 OA
ATOM      8  C   UNL     1       8.054   8.588  17.980  0.00  0.00    +0.000 C 
ATOM      9  N   UNL     1       8.416   9.909  17.781  0.00  0.00    +0.000 N 
ATOM     10  N   UNL     1       7.044   8.175  17.132  0.00  0.00    +0.000 N 
ATOM     11  H   UNL     1       7.785  10.486  17.244  0.00  0.00    +0.000 HD
ATOM     12  H   UNL     1       6.783   8.788  16.374  0.00  0.00    +0.000 HD
BRANCH   9  13
ATOM     13  C   UNL     1       9.421  10.580  18.522  0.00  0.00    +0.000 A 
ATOM     14  C   UNL     1       9.343  10.777  19.909  0.00  0.00    +0.000 A 
ATOM     15  C   UNL     1      10.320  11.502  20.590  0.00  0.00    +0.000 A 
ATOM     16  C   UNL     1      11.407  12.017  19.897  0.00  0.00    +0.000 A 
ATOM     17  C   UNL     1      11.517  11.801  18.525  0.00  0.00    +0.000 A 
ATOM     18  C   UNL     1      10.532  11.079  17.840  0.00  0.00    +0.000 A 
ENDBRANCH   9  13
ENDBRANCH   1  10
BRANCH   4  19
ATOM     19  N   UNL     1       4.463   3.158  17.189  0.00  0.00    +0.000 N 
ATOM     20  H   UNL     1       4.496   2.649  16.311  0.00  0.00    +0.000 HD
BRANCH  19  21
ATOM     21  C   UNL     1       4.579   2.283  18.343  0.00  0.00    +0.000 C 
BRANCH  21  22
ATOM     22  C   UNL     1       3.438   2.508  19.305  0.00  0.00    +0.000 A 
ATOM     23  C   UNL     1       3.643   2.658  20.686  0.00  0.00    +0.000 A 
ATOM     24  C   UNL     1       2.565   2.827  21.555  0.00  0.00    +0.000 A 
ATOM     25  C   UNL     1       1.265   2.835  21.056  0.00  0.00    +0.000 A 
ATOM     26  C   UNL     1       1.056   2.672  19.691  0.00  0.00    +0.000 A 
ATOM     27  C   UNL     1       2.125   2.507  18.817  0.00  0.00    +0.000 A 
BRANCH  26  28
ATOM     28  O   UNL     1      -0.199   2.664  19.159  0.00  0.00    +0.000 OA
ATOM     29  H   UNL     1      -0.208   2.048  18.408  0.00  0.00    +0.000 HD
ENDBRANCH  26  28
ENDBRANCH  21  22
ENDBRANCH  19  21
ENDBRANCH   4  19
TORSDOF 6
ENDMDL
MODEL 7
REMARK VINA RESULT:      -8.5      0.673      1.510
REMARK  Name = 
REMARK  6 active torsions:
REMARK  status: ('A' for Active; 'I' for Inactive)
REMARK    1  A    between atoms: N_3  and  C_4
REMARK    2  A    between atoms: N_10  and  C_11
REMARK    3  A    between atoms: C_14  and  N_15
REMARK    4  A    between atoms: N_15  and  C_16
REMARK    5  A    between atoms: C_16  and  C_17
REMARK    6  A    between atoms: C_21  and  O_22
REMARK                            x       y       z     vdW  Elec       q    Type
REMARK                         _______ _______ _______ _____ _____    ______ ____
ROOT
ATOM      1  C   UNL     1       6.621   7.113  17.172  0.00  0.00    +0.000 A 
ATOM      2  C   UNL     1       5.279   6.929  16.836  0.00  0.00    +0.000 A 
ATOM      3  C   UNL     1       4.697   5.663  16.841  0.00  0.00    +0.000 A 
ATOM      4  C   UNL     1       5.446   4.531  17.146  0.00  0.00    +0.000 A 
ATOM      5  C   UNL     1       6.774   4.719  17.546  0.00  0.00    +0.000 A 
ATOM      6  C   UNL     1       7.364   5.993  17.549  0.00  0.00    +0.000 A 
ENDROOT
BRANCH   1  10
ATOM      7  O   UNL     1       8.772   8.061  18.846  0.00  0.00    +0.000 OA
ATOM      8  C   UNL     1       8.267   8.784  17.993  0.00  0.00    +0.000 C 
ATOM      9  N   UNL     1       8.621  10.110  17.813  0.00  0.00    +0.000 N 
ATOM     10  N   UNL     1       7.267   8.375  17.132  0.00  0.00    +0.000 N 
ATOM     11  H   UNL     1       7.991  10.689  17.279  0.00  0.00    +0.000 HD
ATOM     12  H   UNL     1       7.007   8.996  16.380  0.00  0.00    +0.000 HD
BRANCH   9  13
ATOM     13  C   UNL     1       9.616  10.778  18.571  0.00  0.00    +0.000 A 
ATOM     14  C   UNL     1       9.486  11.035  19.944  0.00  0.00    +0.000 A 
ATOM     15  C   UNL     1      10.457  11.756  20.638  0.00  0.00    +0.000 A 
ATOM     16  C   UNL     1      11.590  12.206  19.974  0.00  0.00    +0.000 A 
ATOM     17  C   UNL     1      11.751  11.928  18.617  0.00  0.00    +0.000 A 
ATOM     18  C   UNL     1      10.772  11.211  17.919  0.00  0.00    +0.000 A 
ENDBRANCH   9  13
ENDBRANCH   1  10
BRANCH   4  19
ATOM     19  N   UNL     1       4.801   3.300  17.142  0.00  0.00    +0.000 N 
ATOM     20  H   UNL     1       5.061   2.702  16.364  0.00  0.00    +0.000 HD
BRANCH  19  21
ATOM     21  C   UNL     1       4.628   2.557  18.379  0.00  0.00    +0.000 C 
BRANCH  21  22
ATOM     22  C   UNL     1       3.207   2.666  18.878  0.00  0.00    +0.000 A 
ATOM     23  C   UNL     1       2.135   2.957  18.019  0.00  0.00    +0.000 A 
ATOM     24  C   UNL     1       0.837   3.089  18.515  0.00  0.00    +0.000 A 
ATOM     25  C   UNL     1       0.597   2.944  19.880  0.00  0.00    +0.000 A 
ATOM     26  C   UNL     1       1.659   2.668  20.735  0.00  0.00    +0.000 A 
ATOM     27  C   UNL     1       2.954   2.532  20.248  0.00  0.00    +0.000 A 
BRANCH  26  28
ATOM     28  O   UNL     1       1.472   2.527  22.077  0.00  0.00    +0.000 OA
ATOM     29  H   UNL     1       2.344   2.493  22.505  0.00  0.00    +0.000 HD
ENDBRANCH  26  28
ENDBRANCH  21  22
ENDBRANCH  19  21
ENDBRANCH   4  19
TORSDOF 6
ENDMDL
MODEL 8
REMARK VINA RESULT:      -8.4      1.214      1.454
REMARK  Name = 
REMARK  6 active torsions:
REMARK  status: ('A' for Active; 'I' for Inactive)
REMARK    1  A    between atoms: N_3  and  C_4
REMARK    2  A    between atoms: N_10  and  C_11
REMARK    3  A    between atoms: C_14  and  N_15
REMARK    4  A    between atoms: N_15  and  C_16
REMARK    5  A    between atoms: C_16  and  C_17
REMARK    6  A    between atoms: C_21  and  O_22
REMARK                            x       y       z     vdW  Elec       q    Type
REMARK                         _______ _______ _______ _____ _____    ______ ____
ROOT
ATOM      1  C   UNL     1       7.329   7.532  17.660  0.00  0.00    +0.000 A 
ATOM      2  C   UNL     1       7.929   6.593  18.501  0.00  0.00    +0.000 A 
ATOM      3  C   UNL     1       7.348   5.347  18.727  0.00  0.00    +0.000 A 
ATOM      4  C   UNL     1       6.129   5.008  18.151  0.00  0.00    +0.000 A 
ATOM      5  C   UNL     1       5.558   5.921  17.256  0.00  0.00    +0.000 A 
ATOM      6  C   UNL     1       6.141   7.176  17.019  0.00  0.00    +0.000 A 
ENDROOT
BRANCH   1  10
ATOM      7  O   UNL     1       9.006   9.086  19.419  0.00  0.00    +0.000 OA
ATOM      8  C   UNL     1       8.624   9.538  18.345  0.00  0.00    +0.000 C 
ATOM      9  N   UNL     1       8.891  10.830  17.925  0.00  0.00    +0.000 N 
ATOM     10  N   UNL     1       7.858   8.829  17.440  0.00  0.00    +0.000 N 
ATOM     11  H   UNL     1       8.335  11.195  17.167  0.00  0.00    +0.000 HD
ATOM     12  H   UNL     1       7.704   9.236  16.530  0.00  0.00    +0.000 HD
BRANCH   9  13
ATOM     13  C   UNL     1       9.651  11.768  18.670  0.00  0.00    +0.000 A 
ATOM     14  C   UNL     1       9.085  12.898  19.277  0.00  0.00    +0.000 A 
ATOM     15  C   UNL     1       9.879  13.833  19.942  0.00  0.00    +0.000 A 
ATOM     16  C   UNL     1      11.249  13.634  20.036  0.00  0.00    +0.000 A 
ATOM     17  C   UNL     1      11.822  12.498  19.468  0.00  0.00    +0.000 A 
ATOM     18  C   UNL     1      11.027  11.564  18.793  0.00  0.00    +0.000 A 
ENDBRANCH   9  13
ENDBRANCH   1  10
BRANCH   4  19
ATOM     19  N   UNL     1       5.611   3.745  18.410  0.00  0.00    +0.000 N 
ATOM     20  H   UNL     1       5.559   3.518  19.399  0.00  0.00    +0.000 HD
BRANCH  19  21
ATOM     21  C   UNL     1       4.464   3.253  17.666  0.00  0.00    +0.000 C 
BRANCH  21  22
ATOM     22  C   UNL     1       3.258   3.118  18.564  0.00  0.00    +0.000 A 
ATOM     23  C   UNL     1       1.947   3.133  18.062  0.00  0.00    +0.000 A 
ATOM     24  C   UNL     1       0.851   3.044  18.922  0.00  0.00    +0.000 A 
ATOM     25  C   UNL     1       1.052   2.952  20.297  0.00  0.00    +0.000 A 
ATOM     26  C   UNL     1       2.349   2.950  20.799  0.00  0.00    +0.000 A 
ATOM     27  C   UNL     1       3.447   3.035  19.949  0.00  0.00    +0.000 A 
BRANCH  26  28
ATOM     28  O   UNL     1       2.593   2.869  22.137  0.00  0.00    +0.000 OA
ATOM     29  H   UNL     1       2.856   1.957  22.345  0.00  0.00    +0.000 HD
ENDBRANCH  26  28
ENDBRANCH  21  22
ENDBRANCH  19  21
ENDBRANCH   4  19
TORSDOF 6
ENDMDL
MODEL 9
REMARK VINA RESULT:      -8.3      1.269      1.696
REMARK  Name = 
REMARK  6 active torsions:
REMARK  status: ('A' for Active; 'I' for Inactive)
REMARK    1  A    between atoms: N_3  and  C_4
REMARK    2  A    between atoms: N_10  and  C_11
REMARK    3  A    between atoms: C_14  and  N_15
REMARK    4  A    between atoms: N_15  and  C_16
REMARK    5  A    between atoms: C_16  and  C_17
REMARK    6  A    between atoms: C_21  and  O_22
REMARK                            x       y       z     vdW  Elec       q    Type
REMARK                         _______ _______ _______ _____ _____    ______ ____
ROOT
ATOM      1  C   UNL     1       6.832   7.241  17.521  0.00  0.00    +0.000 A 
ATOM      2  C   UNL     1       5.559   6.924  17.044  0.00  0.00    +0.000 A 
ATOM      3  C   UNL     1       5.024   5.647  17.199  0.00  0.00    +0.000 A 
ATOM      4  C   UNL     1       5.758   4.630  17.801  0.00  0.00    +0.000 A 
ATOM      5  C   UNL     1       7.008   4.962  18.337  0.00  0.00    +0.000 A 
ATOM      6  C   UNL     1       7.549   6.249  18.190  0.00  0.00    +0.000 A 
ENDROOT
BRANCH   1  10
ATOM      7  O   UNL     1       8.958   8.431  19.066  0.00  0.00    +0.000 OA
ATOM      8  C   UNL     1       8.425   9.043  18.146  0.00  0.00    +0.000 C 
ATOM      9  N   UNL     1       8.734  10.353  17.823  0.00  0.00    +0.000 N 
ATOM     10  N   UNL     1       7.435   8.512  17.341  0.00  0.00    +0.000 N 
ATOM     11  H   UNL     1       8.082  10.851  17.236  0.00  0.00    +0.000 HD
ATOM     12  H   UNL     1       7.151   9.041  16.530  0.00  0.00    +0.000 HD
BRANCH   9  13
ATOM     13  C   UNL     1       9.710  11.130  18.498  0.00  0.00    +0.000 A 
ATOM     14  C   UNL     1      10.841  11.657  17.858  0.00  0.00    +0.000 A 
ATOM     15  C   UNL     1      11.813  12.357  18.573  0.00  0.00    +0.000 A 
ATOM     16  C   UNL     1      11.652  12.565  19.936  0.00  0.00    +0.000 A 
ATOM     17  C   UNL     1      10.517  12.077  20.580  0.00  0.00    +0.000 A 
ATOM     18  C   UNL     1       9.545  11.368  19.864  0.00  0.00    +0.000 A 
ENDBRANCH   9  13
ENDBRANCH   1  10
BRANCH   4  19
ATOM     19  N   UNL     1       5.161   3.383  17.932  0.00  0.00    +0.000 N 
ATOM     20  H   UNL     1       5.581   2.663  17.351  0.00  0.00    +0.000 HD
BRANCH  19  21
ATOM     21  C   UNL     1       4.778   2.884  19.243  0.00  0.00    +0.000 C 
BRANCH  21  22
ATOM     22  C   UNL     1       3.309   3.120  19.499  0.00  0.00    +0.000 A 
ATOM     23  C   UNL     1       2.856   4.014  20.482  0.00  0.00    +0.000 A 
ATOM     24  C   UNL     1       1.491   4.182  20.722  0.00  0.00    +0.000 A 
ATOM     25  C   UNL     1       0.562   3.447  19.990  0.00  0.00    +0.000 A 
ATOM     26  C   UNL     1       1.007   2.550  19.026  0.00  0.00    +0.000 A 
ATOM     27  C   UNL     1       2.364   2.379  18.778  0.00  0.00    +0.000 A 
BRANCH  26  28
ATOM     28  O   UNL     1       0.134   1.803  18.292  0.00  0.00    +0.000 OA
ATOM     29  H   UNL     1      -0.219   1.099  18.862  0.00  0.00    +0.000 HD
ENDBRANCH  26  28
ENDBRANCH  21  22
ENDBRANCH  19  21
ENDBRANCH   4  19
TORSDOF 6
ENDMDL
