MODEL 1
REMARK VINA RESULT:      -8.0      0.000      0.000
REMARK  Name = 
REMARK  6 active torsions:
REMARK  status: ('A' for Active; 'I' for Inactive)
REMARK    1  A    between atoms: C_1  and  C_2
REMARK    2  A    between atoms: C_5  and  S_6
REMARK    3  A    between atoms: S_6  and  N_9
REMARK    4  A    between atoms: N_9  and  C_10
REMARK    5  A    between atoms: N_9  and  C_20
REMARK    6  A    between atoms: C_10  and  C_11
REMARK                            x       y       z     vdW  Elec       q    Type
REMARK                         _______ _______ _______ _____ _____    ______ ____
ROOT
ATOM      1  N   UNL     1       5.813   4.828  15.712  0.00  0.00    +0.000 N 
ENDROOT
BRANCH   1   2
ATOM      2  C   UNL     1       6.085   4.494  14.345  0.00  0.00    +0.000 A 
ATOM      3  C   UNL     1       5.214   3.695  13.608  0.00  0.00    +0.000 A 
ATOM      4  C   UNL     1       5.531   3.312  12.307  0.00  0.00    +0.000 A 
ATOM      5  C   UNL     1       6.719   3.738  11.726  0.00  0.00    +0.000 A 
ATOM      6  C   UNL     1       7.588   4.556  12.448  0.00  0.00    +0.000 A 
ATOM      7  C   UNL     1       7.275   4.933  13.757  0.00  0.00    +0.000 A 
ENDBRANCH   1   2
BRANCH   1   8
ATOM      8  S   UNL     1       5.766   6.455  16.173  0.00  0.00    +0.000 S 
ATOM      9  O   UNL     1       5.170   7.188  15.070  0.00  0.00    +0.000 OA
ATOM     10  O   UNL     1       7.050   6.855  16.711  0.00  0.00    +0.000 OA
BRANCH   8  15
ATOM     11  C   UNL     1       1.641   6.151  20.591  0.00  0.00    +0.000 C 
ATOM     12  C   UNL     1       2.701   6.387  19.556  0.00  0.00    +0.000 A 
ATOM     13  C   UNL     1       4.014   5.965  19.786  0.00  0.00    +0.000 A 
ATOM     14  C   UNL     1       4.975   6.072  18.782  0.00  0.00    +0.000 A 
ATOM     15  C   UNL     1       4.603   6.521  17.513  0.00  0.00    +0.000 A 
ATOM     16  C   UNL     1       3.316   7.021  17.297  0.00  0.00    +0.000 A 
ATOM     17  C   UNL     1       2.366   6.950  18.317  0.00  0.00    +0.000 A 
ENDBRANCH   8  15
ENDBRANCH   1   8
BRANCH   1  18
ATOM     18  C   UNL     1       5.980   3.791  16.745  0.00  0.00    +0.000 C 
BRANCH  18  19
ATOM     19  C   UNL     1       4.710   3.265  17.336  0.00  0.00    +0.000 A 
ATOM     20  N   UNL     1       3.485   3.487  16.895  0.00  0.00    +0.000 NA
ATOM     21  C   UNL     1       2.646   3.130  17.917  0.00  0.00    +0.000 A 
ATOM     22  C   UNL     1       1.254   3.261  18.020  0.00  0.00    +0.000 A 
ATOM     23  C   UNL     1       0.644   2.958  19.243  0.00  0.00    +0.000 A 
ATOM     24  C   UNL     1       1.400   2.497  20.324  0.00  0.00    +0.000 A 
ATOM     25  C   UNL     1       2.783   2.297  20.215  0.00  0.00    +0.000 A 
ATOM     26  C   UNL     1       3.370   2.636  18.994  0.00  0.00    +0.000 A 
ATOM     27  N   UNL     1       4.671   2.632  18.556  0.00  0.00    +0.000 N 
ATOM     28  H   UNL     1       5.476   2.344  19.096  0.00  0.00    +0.000 HD
ENDBRANCH  18  19
ENDBRANCH   1  18
TORSDOF 5
ENDMDL
MODEL 2
REMARK VINA RESULT:      -8.0      2.655      6.585
REMARK  Name = 
REMARK  6 active torsions:
REMARK  status: ('A' for Active; 'I' for Inactive)
REMARK    1  A    between atoms: C_1  and  C_2
REMARK    2  A    between atoms: C_5  and  S_6
REMARK    3  A    between atoms: S_6  and  N_9
REMARK    4  A    between atoms: N_9  and  C_10
REMARK    5  A    between atoms: N_9  and  C_20
REMARK    6  A    between atoms: C_10  and  C_11
REMARK                            x       y       z     vdW  Elec       q    Type
REMARK                         _______ _______ _______ _____ _____    ______ ____
ROOT
ATOM      1  N   UNL     1       3.591   4.995  18.489  0.00  0.00    +0.000 N 
ENDROOT
BRANCH   1   2
ATOM      2  C   UNL     1       2.655   4.303  19.327  0.00  0.00    +0.000 A 
ATOM      3  C   UNL     1       2.825   4.248  20.709  0.00  0.00    +0.000 A 
ATOM      4  C   UNL     1       1.954   3.506  21.502  0.00  0.00    +0.000 A 
ATOM      5  C   UNL     1       0.894   2.821  20.919  0.00  0.00    +0.000 A 
ATOM      6  C   UNL     1       0.704   2.887  19.539  0.00  0.00    +0.000 A 
ATOM      7  C   UNL     1       1.583   3.625  18.741  0.00  0.00    +0.000 A 
ENDBRANCH   1   2
BRANCH   1   8
ATOM      8  S   UNL     1       5.246   4.696  18.677  0.00  0.00    +0.000 S 
ATOM      9  O   UNL     1       5.372   3.379  19.274  0.00  0.00    +0.000 OA
ATOM     10  O   UNL     1       5.890   5.843  19.285  0.00  0.00    +0.000 OA
BRANCH   8  15
ATOM     11  C   UNL     1       7.184   4.771  12.943  0.00  0.00    +0.000 C 
ATOM     12  C   UNL     1       6.780   4.596  14.378  0.00  0.00    +0.000 A 
ATOM     13  C   UNL     1       7.586   5.103  15.401  0.00  0.00    +0.000 A 
ATOM     14  C   UNL     1       7.158   5.050  16.727  0.00  0.00    +0.000 A 
ATOM     15  C   UNL     1       5.881   4.567  17.023  0.00  0.00    +0.000 A 
ATOM     16  C   UNL     1       5.103   3.983  16.020  0.00  0.00    +0.000 A 
ATOM     17  C   UNL     1       5.551   4.001  14.698  0.00  0.00    +0.000 A 
ENDBRANCH   8  15
ENDBRANCH   1   8
BRANCH   1  18
ATOM     18  C   UNL     1       3.153   6.213  17.786  0.00  0.00    +0.000 C 
BRANCH  18  19
ATOM     19  C   UNL     1       2.607   7.296  18.661  0.00  0.00    +0.000 A 
ATOM     20  N   UNL     1       2.366   7.215  19.957  0.00  0.00    +0.000 NA
ATOM     21  C   UNL     1       1.557   8.279  20.257  0.00  0.00    +0.000 A 
ATOM     22  C   UNL     1       0.922   8.609  21.463  0.00  0.00    +0.000 A 
ATOM     23  C   UNL     1       0.015   9.675  21.469  0.00  0.00    +0.000 A 
ATOM     24  C   UNL     1      -0.221  10.420  20.310  0.00  0.00    +0.000 A 
ATOM     25  C   UNL     1       0.456  10.144  19.115  0.00  0.00    +0.000 A 
ATOM     26  C   UNL     1       1.332   9.056  19.128  0.00  0.00    +0.000 A 
ATOM     27  N   UNL     1       2.100   8.469  18.153  0.00  0.00    +0.000 N 
ATOM     28  H   UNL     1       2.164   8.770  17.190  0.00  0.00    +0.000 HD
ENDBRANCH  18  19
ENDBRANCH   1  18
TORSDOF 5
ENDMDL
MODEL 3
REMARK VINA RESULT:      -7.9      2.800      6.508
REMARK  Name = 
REMARK  6 active torsions:
REMARK  status: ('A' for Active; 'I' for Inactive)
REMARK    1  A    between atoms: C_1  and  C_2
REMARK    2  A    between atoms: C_5  and  S_6
REMARK    3  A    between atoms: S_6  and  N_9
REMARK    4  A    between atoms: N_9  and  C_10
REMARK    5  A    between atoms: N_9  and  C_20
REMARK    6  A    between atoms: C_10  and  C_11
REMARK                            x       y       z     vdW  Elec       q    Type
REMARK                         _______ _______ _______ _____ _____    ______ ____
ROOT
ATOM      1  N   UNL     1       4.028   5.216  19.071  0.00  0.00    +0.000 N 
ENDROOT
BRANCH   1   2
ATOM      2  C   UNL     1       2.833   4.502  19.416  0.00  0.00    +0.000 A 
ATOM      3  C   UNL     1       2.526   4.202  20.742  0.00  0.00    +0.000 A 
ATOM      4  C   UNL     1       1.405   3.438  21.056  0.00  0.00    +0.000 A 
ATOM      5  C   UNL     1       0.572   2.977  20.044  0.00  0.00    +0.000 A 
ATOM      6  C   UNL     1       0.859   3.289  18.715  0.00  0.00    +0.000 A 
ATOM      7  C   UNL     1       1.989   4.048  18.399  0.00  0.00    +0.000 A 
ENDBRANCH   1   2
BRANCH   1   8
ATOM      8  S   UNL     1       5.469   4.357  18.849  0.00  0.00    +0.000 S 
ATOM      9  O   UNL     1       5.181   2.966  19.148  0.00  0.00    +0.000 OA
ATOM     10  O   UNL     1       6.560   5.041  19.514  0.00  0.00    +0.000 OA
BRANCH   8  15
ATOM     11  C   UNL     1       6.743   4.111  12.938  0.00  0.00    +0.000 C 
ATOM     12  C   UNL     1       6.378   4.337  14.375  0.00  0.00    +0.000 A 
ATOM     13  C   UNL     1       5.100   4.010  14.835  0.00  0.00    +0.000 A 
ATOM     14  C   UNL     1       4.793   4.105  16.192  0.00  0.00    +0.000 A 
ATOM     15  C   UNL     1       5.794   4.445  17.105  0.00  0.00    +0.000 A 
ATOM     16  C   UNL     1       7.049   4.854  16.648  0.00  0.00    +0.000 A 
ATOM     17  C   UNL     1       7.341   4.796  15.285  0.00  0.00    +0.000 A 
ENDBRANCH   8  15
ENDBRANCH   1   8
BRANCH   1  18
ATOM     18  C   UNL     1       4.083   6.668  19.309  0.00  0.00    +0.000 C 
BRANCH  18  19
ATOM     19  C   UNL     1       2.768   7.378  19.245  0.00  0.00    +0.000 A 
ATOM     20  N   UNL     1       2.250   7.983  18.191  0.00  0.00    +0.000 NA
ATOM     21  C   UNL     1       1.246   8.782  18.671  0.00  0.00    +0.000 A 
ATOM     22  C   UNL     1       0.444   9.713  17.996  0.00  0.00    +0.000 A 
ATOM     23  C   UNL     1      -0.415  10.522  18.749  0.00  0.00    +0.000 A 
ATOM     24  C   UNL     1      -0.502  10.375  20.137  0.00  0.00    +0.000 A 
ATOM     25  C   UNL     1       0.243   9.402  20.816  0.00  0.00    +0.000 A 
ATOM     26  C   UNL     1       1.115   8.631  20.045  0.00  0.00    +0.000 A 
ATOM     27  N   UNL     1       2.022   7.652  20.368  0.00  0.00    +0.000 N 
ATOM     28  H   UNL     1       2.205   7.298  21.297  0.00  0.00    +0.000 HD
ENDBRANCH  18  19
ENDBRANCH   1  18
TORSDOF 5
ENDMDL
MODEL 4
REMARK VINA RESULT:      -7.8      3.053      6.215
REMARK  Name = 
REMARK  6 active torsions:
REMARK  status: ('A' for Active; 'I' for Inactive)
REMARK    1  A    between atoms: C_1  and  C_2
REMARK    2  A    between atoms: C_5  and  S_6
REMARK    3  A    between atoms: S_6  and  N_9
REMARK    4  A    between atoms: N_9  and  C_10
REMARK    5  A    between atoms: N_9  and  C_20
REMARK    6  A    between atoms: C_10  and  C_11
REMARK                            x       y       z     vdW  Elec       q    Type
REMARK                         _______ _______ _______ _____ _____    ______ ____
ROOT
ATOM      1  N   UNL     1       3.732   4.962  18.879  0.00  0.00    +0.000 N 
ENDROOT
BRANCH   1   2
ATOM      2  C   UNL     1       2.665   4.073  19.236  0.00  0.00    +0.000 A 
ATOM      3  C   UNL     1       1.826   3.524  18.268  0.00  0.00    +0.000 A 
ATOM      4  C   UNL     1       0.745   2.727  18.635  0.00  0.00    +0.000 A 
ATOM      5  C   UNL     1       0.502   2.459  19.977  0.00  0.00    +0.000 A 
ATOM      6  C   UNL     1       1.349   2.987  20.952  0.00  0.00    +0.000 A 
ATOM      7  C   UNL     1       2.428   3.794  20.585  0.00  0.00    +0.000 A 
ENDBRANCH   1   2
BRANCH   1   8
ATOM      8  S   UNL     1       5.066   4.356  18.034  0.00  0.00    +0.000 S 
ATOM      9  O   UNL     1       4.624   4.099  16.675  0.00  0.00    +0.000 OA
ATOM     10  O   UNL     1       5.709   3.312  18.806  0.00  0.00    +0.000 OA
BRANCH   8  15
ATOM     11  C   UNL     1       8.659   9.225  18.152  0.00  0.00    +0.000 C 
ATOM     12  C   UNL     1       7.875   7.956  17.999  0.00  0.00    +0.000 A 
ATOM     13  C   UNL     1       8.145   6.859  18.822  0.00  0.00    +0.000 A 
ATOM     14  C   UNL     1       7.342   5.721  18.767  0.00  0.00    +0.000 A 
ATOM     15  C   UNL     1       6.211   5.711  17.948  0.00  0.00    +0.000 A 
ATOM     16  C   UNL     1       5.979   6.766  17.062  0.00  0.00    +0.000 A 
ATOM     17  C   UNL     1       6.808   7.889  17.091  0.00  0.00    +0.000 A 
ENDBRANCH   8  15
ENDBRANCH   1   8
BRANCH   1  18
ATOM     18  C   UNL     1       3.848   6.252  19.581  0.00  0.00    +0.000 C 
BRANCH  18  19
ATOM     19  C   UNL     1       2.666   7.160  19.452  0.00  0.00    +0.000 A 
ATOM     20  N   UNL     1       2.301   7.831  18.375  0.00  0.00    +0.000 NA
ATOM     21  C   UNL     1       1.413   8.781  18.805  0.00  0.00    +0.000 A 
ATOM     22  C   UNL     1       0.802   9.823  18.093  0.00  0.00    +0.000 A 
ATOM     23  C   UNL     1       0.045  10.762  18.803  0.00  0.00    +0.000 A 
ATOM     24  C   UNL     1      -0.131  10.640  20.185  0.00  0.00    +0.000 A 
ATOM     25  C   UNL     1       0.418   9.567  20.899  0.00  0.00    +0.000 A 
ATOM     26  C   UNL     1       1.194   8.663  20.171  0.00  0.00    +0.000 A 
ATOM     27  N   UNL     1       1.919   7.556  20.537  0.00  0.00    +0.000 N 
ATOM     28  H   UNL     1       1.999   7.184  21.474  0.00  0.00    +0.000 HD
ENDBRANCH  18  19
ENDBRANCH   1  18
TORSDOF 5
ENDMDL
MODEL 5
REMARK VINA RESULT:      -7.8      2.455      3.476
REMARK  Name = 
REMARK  6 active torsions:
REMARK  status: ('A' for Active; 'I' for Inactive)
REMARK    1  A    between atoms: C_1  and  C_2
REMARK    2  A    between atoms: C_5  and  S_6
REMARK    3  A    between atoms: S_6  and  N_9
REMARK    4  A    between atoms: N_9  and  C_10
REMARK    5  A    between atoms: N_9  and  C_20
REMARK    6  A    between atoms: C_10  and  C_11
REMARK                            x       y       z     vdW  Elec       q    Type
REMARK                         _______ _______ _______ _____ _____    ______ ____
ROOT
ATOM      1  N   UNL     1       5.934   5.217  15.999  0.00  0.00    +0.000 N 
ENDROOT
BRANCH   1   2
ATOM      2  C   UNL     1       6.265   4.724  14.694  0.00  0.00    +0.000 A 
ATOM      3  C   UNL     1       7.349   5.233  13.981  0.00  0.00    +0.000 A 
ATOM      4  C   UNL     1       7.611   4.803  12.683  0.00  0.00    +0.000 A 
ATOM      5  C   UNL     1       6.795   3.847  12.089  0.00  0.00    +0.000 A 
ATOM      6  C   UNL     1       5.720   3.316  12.801  0.00  0.00    +0.000 A 
ATOM      7  C   UNL     1       5.452   3.754  14.101  0.00  0.00    +0.000 A 
ENDBRANCH   1   2
BRANCH   1   8
ATOM      8  S   UNL     1       6.992   4.922  17.286  0.00  0.00    +0.000 S 
ATOM      9  O   UNL     1       8.165   4.274  16.728  0.00  0.00    +0.000 OA
ATOM     10  O   UNL     1       6.273   4.316  18.388  0.00  0.00    +0.000 OA
BRANCH   8  15
ATOM     11  C   UNL     1       9.235  10.326  18.834  0.00  0.00    +0.000 C 
ATOM     12  C   UNL     1       8.541   9.026  18.550  0.00  0.00    +0.000 A 
ATOM     13  C   UNL     1       7.723   8.898  17.424  0.00  0.00    +0.000 A 
ATOM     14  C   UNL     1       7.172   7.662  17.089  0.00  0.00    +0.000 A 
ATOM     15  C   UNL     1       7.511   6.530  17.833  0.00  0.00    +0.000 A 
ATOM     16  C   UNL     1       8.260   6.660  19.006  0.00  0.00    +0.000 A 
ATOM     17  C   UNL     1       8.777   7.907  19.361  0.00  0.00    +0.000 A 
ENDBRANCH   8  15
ENDBRANCH   1   8
BRANCH   1  18
ATOM     18  C   UNL     1       4.540   5.599  16.284  0.00  0.00    +0.000 C 
BRANCH  18  19
ATOM     19  C   UNL     1       3.845   4.765  17.312  0.00  0.00    +0.000 A 
ATOM     20  N   UNL     1       3.229   3.614  17.109  0.00  0.00    +0.000 NA
ATOM     21  C   UNL     1       2.450   3.403  18.216  0.00  0.00    +0.000 A 
ATOM     22  C   UNL     1       1.517   2.388  18.473  0.00  0.00    +0.000 A 
ATOM     23  C   UNL     1       0.731   2.482  19.627  0.00  0.00    +0.000 A 
ATOM     24  C   UNL     1       0.903   3.541  20.524  0.00  0.00    +0.000 A 
ATOM     25  C   UNL     1       1.877   4.525  20.314  0.00  0.00    +0.000 A 
ATOM     26  C   UNL     1       2.625   4.424  19.139  0.00  0.00    +0.000 A 
ATOM     27  N   UNL     1       3.599   5.220  18.587  0.00  0.00    +0.000 N 
ATOM     28  H   UNL     1       3.965   6.072  18.989  0.00  0.00    +0.000 HD
ENDBRANCH  18  19
ENDBRANCH   1  18
TORSDOF 5
ENDMDL
MODEL 6
REMARK VINA RESULT:      -7.8      2.781      6.457
REMARK  Name = 
REMARK  6 active torsions:
REMARK  status: ('A' for Active; 'I' for Inactive)
REMARK    1  A    between atoms: C_1  and  C_2
REMARK    2  A    between atoms: C_5  and  S_6
REMARK    3  A    between atoms: S_6  and  N_9
REMARK    4  A    between atoms: N_9  and  C_10
REMARK    5  A    between atoms: N_9  and  C_20
REMARK    6  A    between atoms: C_10  and  C_11
REMARK                            x       y       z     vdW  Elec       q    Type
REMARK                         _______ _______ _______ _____ _____    ______ ____
ROOT
ATOM      1  N   UNL     1       3.723   5.468  18.517  0.00  0.00    +0.000 N 
ENDROOT
BRANCH   1   2
ATOM      2  C   UNL     1       2.633   4.693  19.032  0.00  0.00    +0.000 A 
ATOM      3  C   UNL     1       2.493   4.457  20.398  0.00  0.00    +0.000 A 
ATOM      4  C   UNL     1       1.476   3.635  20.877  0.00  0.00    +0.000 A 
ATOM      5  C   UNL     1       0.579   3.051  19.991  0.00  0.00    +0.000 A 
ATOM      6  C   UNL     1       0.697   3.297  18.623  0.00  0.00    +0.000 A 
ATOM      7  C   UNL     1       1.723   4.115  18.142  0.00  0.00    +0.000 A 
ENDBRANCH   1   2
BRANCH   1   8
ATOM      8  S   UNL     1       5.301   4.878  18.669  0.00  0.00    +0.000 S 
ATOM      9  O   UNL     1       5.204   3.567  19.287  0.00  0.00    +0.000 OA
ATOM     10  O   UNL     1       6.159   5.897  19.239  0.00  0.00    +0.000 OA
BRANCH   8  15
ATOM     11  C   UNL     1       6.994   4.501  12.870  0.00  0.00    +0.000 C 
ATOM     12  C   UNL     1       6.640   4.433  14.326  0.00  0.00    +0.000 A 
ATOM     13  C   UNL     1       7.522   4.937  15.287  0.00  0.00    +0.000 A 
ATOM     14  C   UNL     1       7.148   4.987  16.630  0.00  0.00    +0.000 A 
ATOM     15  C   UNL     1       5.855   4.613  17.002  0.00  0.00    +0.000 A 
ATOM     16  C   UNL     1       4.997   4.032  16.065  0.00  0.00    +0.000 A 
ATOM     17  C   UNL     1       5.389   3.946  14.728  0.00  0.00    +0.000 A 
ENDBRANCH   8  15
ENDBRANCH   1   8
BRANCH   1  18
ATOM     18  C   UNL     1       3.512   6.901  18.245  0.00  0.00    +0.000 C 
BRANCH  18  19
ATOM     19  C   UNL     1       2.398   7.541  19.012  0.00  0.00    +0.000 A 
ATOM     20  N   UNL     1       1.511   8.399  18.543  0.00  0.00    +0.000 NA
ATOM     21  C   UNL     1       0.934   8.982  19.641  0.00  0.00    +0.000 A 
ATOM     22  C   UNL     1       0.007  10.031  19.713  0.00  0.00    +0.000 A 
ATOM     23  C   UNL     1      -0.313  10.552  20.972  0.00  0.00    +0.000 A 
ATOM     24  C   UNL     1       0.246  10.010  22.133  0.00  0.00    +0.000 A 
ATOM     25  C   UNL     1       1.121   8.917  22.080  0.00  0.00    +0.000 A 
ATOM     26  C   UNL     1       1.448   8.438  20.810  0.00  0.00    +0.000 A 
ATOM     27  N   UNL     1       2.298   7.448  20.381  0.00  0.00    +0.000 N 
ATOM     28  H   UNL     1       2.858   6.852  20.973  0.00  0.00    +0.000 HD
ENDBRANCH  18  19
ENDBRANCH   1  18
TORSDOF 5
ENDMDL
MODEL 7
REMARK VINA RESULT:      -7.6      3.193      5.492
REMARK  Name = 
REMARK  6 active torsions:
REMARK  status: ('A' for Active; 'I' for Inactive)
REMARK    1  A    between atoms: C_1  and  C_2
REMARK    2  A    between atoms: C_5  and  S_6
REMARK    3  A    between atoms: S_6  and  N_9
REMARK    4  A    between atoms: N_9  and  C_10
REMARK    5  A    between atoms: N_9  and  C_20
REMARK    6  A    between atoms: C_10  and  C_11
REMARK                            x       y       z     vdW  Elec       q    Type
REMARK                         _______ _______ _______ _____ _____    ______ ____
ROOT
ATOM      1  N   UNL     1       4.057   5.689  17.779  0.00  0.00    +0.000 N 
ENDROOT
BRANCH   1   2
ATOM      2  C   UNL     1       5.442   5.960  18.033  0.00  0.00    +0.000 A 
ATOM      3  C   UNL     1       6.100   5.403  19.128  0.00  0.00    +0.000 A 
ATOM      4  C   UNL     1       7.421   5.739  19.409  0.00  0.00    +0.000 A 
ATOM      5  C   UNL     1       8.104   6.627  18.586  0.00  0.00    +0.000 A 
ATOM      6  C   UNL     1       7.461   7.174  17.475  0.00  0.00    +0.000 A 
ATOM      7  C   UNL     1       6.132   6.844  17.198  0.00  0.00    +0.000 A 
ENDBRANCH   1   2
BRANCH   1   8
ATOM      8  S   UNL     1       3.550   4.086  17.590  0.00  0.00    +0.000 S 
ATOM      9  O   UNL     1       4.749   3.279  17.442  0.00  0.00    +0.000 OA
ATOM     10  O   UNL     1       2.491   4.015  16.604  0.00  0.00    +0.000 OA
BRANCH   8  15
ATOM     11  C   UNL     1       0.937   2.086  22.670  0.00  0.00    +0.000 C 
ATOM     12  C   UNL     1       1.627   2.725  21.501  0.00  0.00    +0.000 A 
ATOM     13  C   UNL     1       2.975   2.456  21.248  0.00  0.00    +0.000 A 
ATOM     14  C   UNL     1       3.589   2.951  20.098  0.00  0.00    +0.000 A 
ATOM     15  C   UNL     1       2.830   3.644  19.152  0.00  0.00    +0.000 A 
ATOM     16  C   UNL     1       1.506   3.988  19.433  0.00  0.00    +0.000 A 
ATOM     17  C   UNL     1       0.904   3.526  20.605  0.00  0.00    +0.000 A 
ENDBRANCH   8  15
ENDBRANCH   1   8
BRANCH   1  18
ATOM     18  C   UNL     1       3.196   6.780  17.293  0.00  0.00    +0.000 C 
BRANCH  18  19
ATOM     19  C   UNL     1       2.612   7.657  18.355  0.00  0.00    +0.000 A 
ATOM     20  N   UNL     1       2.423   7.340  19.623  0.00  0.00    +0.000 NA
ATOM     21  C   UNL     1       1.557   8.277  20.121  0.00  0.00    +0.000 A 
ATOM     22  C   UNL     1       0.947   8.351  21.381  0.00  0.00    +0.000 A 
ATOM     23  C   UNL     1      -0.028   9.333  21.594  0.00  0.00    +0.000 A 
ATOM     24  C   UNL     1      -0.354  10.245  20.586  0.00  0.00    +0.000 A 
ATOM     25  C   UNL     1       0.296  10.225  19.345  0.00  0.00    +0.000 A 
ATOM     26  C   UNL     1       1.241   9.216  19.149  0.00  0.00    +0.000 A 
ATOM     27  N   UNL     1       2.009   8.860  18.069  0.00  0.00    +0.000 N 
ATOM     28  H   UNL     1       2.019   9.325  17.171  0.00  0.00    +0.000 HD
ENDBRANCH  18  19
ENDBRANCH   1  18
TORSDOF 5
ENDMDL
MODEL 8
REMARK VINA RESULT:      -7.4      2.656      6.394
REMARK  Name = 
REMARK  6 active torsions:
REMARK  status: ('A' for Active; 'I' for Inactive)
REMARK    1  A    between atoms: C_1  and  C_2
REMARK    2  A    between atoms: C_5  and  S_6
REMARK    3  A    between atoms: S_6  and  N_9
REMARK    4  A    between atoms: N_9  and  C_10
REMARK    5  A    between atoms: N_9  and  C_20
REMARK    6  A    between atoms: C_10  and  C_11
REMARK                            x       y       z     vdW  Elec       q    Type
REMARK                         _______ _______ _______ _____ _____    ______ ____
ROOT
ATOM      1  N   UNL     1       3.918   5.631  18.193  0.00  0.00    +0.000 N 
ENDROOT
BRANCH   1   2
ATOM      2  C   UNL     1       2.916   4.812  18.809  0.00  0.00    +0.000 A 
ATOM      3  C   UNL     1       1.877   4.256  18.065  0.00  0.00    +0.000 A 
ATOM      4  C   UNL     1       0.866   3.530  18.689  0.00  0.00    +0.000 A 
ATOM      5  C   UNL     1       0.893   3.341  20.065  0.00  0.00    +0.000 A 
ATOM      6  C   UNL     1       1.940   3.875  20.817  0.00  0.00    +0.000 A 
ATOM      7  C   UNL     1       2.950   4.611  20.192  0.00  0.00    +0.000 A 
ENDBRANCH   1   2
BRANCH   1   8
ATOM      8  S   UNL     1       5.512   5.068  18.114  0.00  0.00    +0.000 S 
ATOM      9  O   UNL     1       5.527   3.756  18.736  0.00  0.00    +0.000 OA
ATOM     10  O   UNL     1       6.424   6.102  18.558  0.00  0.00    +0.000 OA
BRANCH   8  15
ATOM     11  C   UNL     1       6.749   3.672  12.356  0.00  0.00    +0.000 C 
ATOM     12  C   UNL     1       6.393   4.174  13.724  0.00  0.00    +0.000 A 
ATOM     13  C   UNL     1       5.117   3.943  14.248  0.00  0.00    +0.000 A 
ATOM     14  C   UNL     1       4.819   4.301  15.562  0.00  0.00    +0.000 A 
ATOM     15  C   UNL     1       5.825   4.814  16.384  0.00  0.00    +0.000 A 
ATOM     16  C   UNL     1       7.077   5.126  15.848  0.00  0.00    +0.000 A 
ATOM     17  C   UNL     1       7.361   4.803  14.520  0.00  0.00    +0.000 A 
ENDBRANCH   8  15
ENDBRANCH   1   8
BRANCH   1  18
ATOM     18  C   UNL     1       3.651   7.068  18.013  0.00  0.00    +0.000 C 
BRANCH  18  19
ATOM     19  C   UNL     1       2.507   7.612  18.809  0.00  0.00    +0.000 A 
ATOM     20  N   UNL     1       1.573   8.442  18.382  0.00  0.00    +0.000 NA
ATOM     21  C   UNL     1       0.970   8.942  19.505  0.00  0.00    +0.000 A 
ATOM     22  C   UNL     1      -0.011   9.936  19.627  0.00  0.00    +0.000 A 
ATOM     23  C   UNL     1      -0.355  10.379  20.909  0.00  0.00    +0.000 A 
ATOM     24  C   UNL     1       0.236   9.815  22.044  0.00  0.00    +0.000 A 
ATOM     25  C   UNL     1       1.169   8.775  21.939  0.00  0.00    +0.000 A 
ATOM     26  C   UNL     1       1.516   8.373  20.648  0.00  0.00    +0.000 A 
ATOM     27  N   UNL     1       2.416   7.451  20.172  0.00  0.00    +0.000 N 
ATOM     28  H   UNL     1       3.010   6.859  20.736  0.00  0.00    +0.000 HD
ENDBRANCH  18  19
ENDBRANCH   1  18
TORSDOF 5
ENDMDL
MODEL 9
REMARK VINA RESULT:      -7.4      2.698      6.398
REMARK  Name = 
REMARK  6 active torsions:
REMARK  status: ('A' for Active; 'I' for Inactive)
REMARK    1  A    between atoms: C_1  and  C_2
REMARK    2  A    between atoms: C_5  and  S_6
REMARK    3  A    between atoms: S_6  and  N_9
REMARK    4  A    between atoms: N_9  and  C_10
REMARK    5  A    between atoms: N_9  and  C_20
REMARK    6  A    between atoms: C_10  and  C_11
REMARK                            x       y       z     vdW  Elec       q    Type
REMARK                         _______ _______ _______ _____ _____    ______ ____
ROOT
ATOM      1  N   UNL     1       4.170   5.856  18.114  0.00  0.00    +0.000 N 
ENDROOT
BRANCH   1   2
ATOM      2  C   UNL     1       3.103   5.124  18.730  0.00  0.00    +0.000 A 
ATOM      3  C   UNL     1       2.165   4.432  17.967  0.00  0.00    +0.000 A 
ATOM      4  C   UNL     1       1.087   3.793  18.574  0.00  0.00    +0.000 A 
ATOM      5  C   UNL     1       0.945   3.829  19.956  0.00  0.00    +0.000 A 
ATOM      6  C   UNL     1       1.891   4.501  20.731  0.00  0.00    +0.000 A 
ATOM      7  C   UNL     1       2.968   5.150  20.121  0.00  0.00    +0.000 A 
ENDBRANCH   1   2
BRANCH   1   8
ATOM      8  S   UNL     1       5.738   5.221  18.153  0.00  0.00    +0.000 S 
ATOM      9  O   UNL     1       5.686   4.017  18.963  0.00  0.00    +0.000 OA
ATOM     10  O   UNL     1       6.690   6.270  18.457  0.00  0.00    +0.000 OA
BRANCH   8  15
ATOM     11  C   UNL     1       6.537   3.885  12.304  0.00  0.00    +0.000 C 
ATOM     12  C   UNL     1       6.438   4.076  13.788  0.00  0.00    +0.000 A 
ATOM     13  C   UNL     1       7.342   4.911  14.451  0.00  0.00    +0.000 A 
ATOM     14  C   UNL     1       7.182   5.187  15.808  0.00  0.00    +0.000 A 
ATOM     15  C   UNL     1       6.064   4.697  16.487  0.00  0.00    +0.000 A 
ATOM     16  C   UNL     1       5.201   3.797  15.856  0.00  0.00    +0.000 A 
ATOM     17  C   UNL     1       5.387   3.490  14.507  0.00  0.00    +0.000 A 
ENDBRANCH   8  15
ENDBRANCH   1   8
BRANCH   1  18
ATOM     18  C   UNL     1       3.980   7.288  17.828  0.00  0.00    +0.000 C 
BRANCH  18  19
ATOM     19  C   UNL     1       2.659   7.854  18.245  0.00  0.00    +0.000 A 
ATOM     20  N   UNL     1       1.799   8.496  17.476  0.00  0.00    +0.000 NA
ATOM     21  C   UNL     1       0.934   9.132  18.326  0.00  0.00    +0.000 A 
ATOM     22  C   UNL     1      -0.103  10.031  18.041  0.00  0.00    +0.000 A 
ATOM     23  C   UNL     1      -0.748  10.667  19.109  0.00  0.00    +0.000 A 
ATOM     24  C   UNL     1      -0.393  10.380  20.430  0.00  0.00    +0.000 A 
ATOM     25  C   UNL     1       0.596   9.435  20.732  0.00  0.00    +0.000 A 
ATOM     26  C   UNL     1       1.244   8.839  19.648  0.00  0.00    +0.000 A 
ATOM     27  N   UNL     1       2.277   7.938  19.563  0.00  0.00    +0.000 N 
ATOM     28  H   UNL     1       2.762   7.520  20.345  0.00  0.00    +0.000 HD
ENDBRANCH  18  19
ENDBRANCH   1  18
TORSDOF 5
ENDMDL
