MODEL 1
REMARK VINA RESULT:      -9.0      0.000      0.000
REMARK  Name = 
REMARK  2 active torsions:
REMARK  status: ('A' for Active; 'I' for Inactive)
REMARK    1  A    between atoms: C_2  and  C_3
REMARK    2  A    between atoms: C_3  and  C_4
REMARK                            x       y       z     vdW  Elec       q    Type
REMARK                         _______ _______ _______ _____ _____    ______ ____
ROOT
ATOM      1  C   UNL     1       2.282   6.349  19.627  0.00  0.00    +0.000 A 
ATOM      2  C   UNL     1       1.576   5.599  20.555  0.00  0.00    +0.000 A 
ATOM      3  O   UNL     1       1.802   4.277  20.390  0.00  0.00    +0.000 OA
ATOM      4  C   UNL     1       2.650   4.144  19.337  0.00  0.00    +0.000 A 
ATOM      5  C   UNL     1       3.056   2.920  18.813  0.00  0.00    +0.000 A 
ATOM      6  C   UNL     1       3.869   2.960  17.681  0.00  0.00    +0.000 A 
ATOM      7  C   UNL     1       4.293   4.174  17.124  0.00  0.00    +0.000 A 
ATOM      8  C   UNL     1       5.070   4.182  15.955  0.00  0.00    +0.000 A 
ATOM      9  C   UNL     1       5.488   5.381  15.378  0.00  0.00    +0.000 A 
ATOM     10  C   UNL     1       5.176   6.591  15.987  0.00  0.00    +0.000 A 
ATOM     11  C   UNL     1       4.415   6.610  17.156  0.00  0.00    +0.000 A 
ATOM     12  C   UNL     1       3.919   5.414  17.718  0.00  0.00    +0.000 A 
ATOM     13  C   UNL     1       3.023   5.392  18.839  0.00  0.00    +0.000 A 
ENDROOT
BRANCH   1  14
ATOM     14  C   UNL     1       2.205   7.843  19.492  0.00  0.00    +0.000 C 
BRANCH  14  16
ATOM     15  O   UNL     1       1.511   8.183  21.760  0.00  0.00    +0.000 OA
ATOM     16  C   UNL     1       1.351   8.492  20.574  0.00  0.00    +0.000 C 
ATOM     17  N   UNL     1       0.445   9.455  20.155  0.00  0.00    +0.000 N 
ATOM     18  C   UNL     1       0.128   9.890  18.776  0.00  0.00    +0.000 C 
ATOM     19  C   UNL     1      -0.567  11.260  18.887  0.00  0.00    +0.000 C 
ATOM     20  C   UNL     1      -0.925  11.303  20.338  0.00  0.00    +0.000 A 
ATOM     21  C   UNL     1      -1.650  12.274  21.011  0.00  0.00    +0.000 A 
ATOM     22  C   UNL     1      -1.801  12.159  22.399  0.00  0.00    +0.000 A 
ATOM     23  C   UNL     1      -1.231  11.076  23.082  0.00  0.00    +0.000 A 
ATOM     24  C   UNL     1      -0.491  10.115  22.396  0.00  0.00    +0.000 A 
ATOM     25  C   UNL     1      -0.328  10.247  21.029  0.00  0.00    +0.000 A 
ENDBRANCH  14  16
ENDBRANCH   1  14
TORSDOF 2
ENDMDL
MODEL 2
REMARK VINA RESULT:      -8.8      1.108      1.992
REMARK  Name = 
REMARK  2 active torsions:
REMARK  status: ('A' for Active; 'I' for Inactive)
REMARK    1  A    between atoms: C_2  and  C_3
REMARK    2  A    between atoms: C_3  and  C_4
REMARK                            x       y       z     vdW  Elec       q    Type
REMARK                         _______ _______ _______ _____ _____    ______ ____
ROOT
ATOM      1  C   UNL     1       2.090   5.584  20.049  0.00  0.00    +0.000 A 
ATOM      2  C   UNL     1       1.061   4.776  20.506  0.00  0.00    +0.000 A 
ATOM      3  O   UNL     1       0.986   3.630  19.792  0.00  0.00    +0.000 OA
ATOM      4  C   UNL     1       1.959   3.683  18.847  0.00  0.00    +0.000 A 
ATOM      5  C   UNL     1       2.146   2.712  17.867  0.00  0.00    +0.000 A 
ATOM      6  C   UNL     1       3.144   2.956  16.923  0.00  0.00    +0.000 A 
ATOM      7  C   UNL     1       3.947   4.103  16.984  0.00  0.00    +0.000 A 
ATOM      8  C   UNL     1       4.909   4.344  15.991  0.00  0.00    +0.000 A 
ATOM      9  C   UNL     1       5.708   5.487  16.027  0.00  0.00    +0.000 A 
ATOM     10  C   UNL     1       5.590   6.384  17.083  0.00  0.00    +0.000 A 
ATOM     11  C   UNL     1       4.649   6.161  18.089  0.00  0.00    +0.000 A 
ATOM     12  C   UNL     1       3.781   5.049  18.036  0.00  0.00    +0.000 A 
ATOM     13  C   UNL     1       2.711   4.850  18.971  0.00  0.00    +0.000 A 
ENDROOT
BRANCH   1  14
ATOM     14  C   UNL     1       2.405   6.955  20.578  0.00  0.00    +0.000 C 
BRANCH  14  16
ATOM     15  O   UNL     1       1.691   8.046  18.569  0.00  0.00    +0.000 OA
ATOM     16  C   UNL     1       1.703   8.064  19.804  0.00  0.00    +0.000 C 
ATOM     17  N   UNL     1       1.059   9.034  20.558  0.00  0.00    +0.000 N 
ATOM     18  C   UNL     1       1.027   9.194  22.029  0.00  0.00    +0.000 C 
ATOM     19  C   UNL     1      -0.168  10.108  22.354  0.00  0.00    +0.000 C 
ATOM     20  C   UNL     1      -0.477  10.695  21.014  0.00  0.00    +0.000 A 
ATOM     21  C   UNL     1      -1.416  11.665  20.701  0.00  0.00    +0.000 A 
ATOM     22  C   UNL     1      -1.599  12.014  19.357  0.00  0.00    +0.000 A 
ATOM     23  C   UNL     1      -0.837  11.394  18.358  0.00  0.00    +0.000 A 
ATOM     24  C   UNL     1       0.093  10.409  18.684  0.00  0.00    +0.000 A 
ATOM     25  C   UNL     1       0.252  10.054  20.011  0.00  0.00    +0.000 A 
ENDBRANCH  14  16
ENDBRANCH   1  14
TORSDOF 2
ENDMDL
MODEL 3
REMARK VINA RESULT:      -8.7      1.906      7.761
REMARK  Name = 
REMARK  2 active torsions:
REMARK  status: ('A' for Active; 'I' for Inactive)
REMARK    1  A    between atoms: C_2  and  C_3
REMARK    2  A    between atoms: C_3  and  C_4
REMARK                            x       y       z     vdW  Elec       q    Type
REMARK                         _______ _______ _______ _____ _____    ______ ____
ROOT
ATOM      1  C   UNL     1       0.703  10.079  20.063  0.00  0.00    +0.000 A 
ATOM      2  C   UNL     1       1.098  10.616  21.278  0.00  0.00    +0.000 A 
ATOM      3  O   UNL     1       0.194  11.512  21.734  0.00  0.00    +0.000 OA
ATOM      4  C   UNL     1      -0.799  11.583  20.811  0.00  0.00    +0.000 A 
ATOM      5  C   UNL     1      -1.877  12.460  20.893  0.00  0.00    +0.000 A 
ATOM      6  C   UNL     1      -2.770  12.459  19.821  0.00  0.00    +0.000 A 
ATOM      7  C   UNL     1      -2.613  11.588  18.735  0.00  0.00    +0.000 A 
ATOM      8  C   UNL     1      -3.500  11.646  17.649  0.00  0.00    +0.000 A 
ATOM      9  C   UNL     1      -3.351  10.797  16.553  0.00  0.00    +0.000 A 
ATOM     10  C   UNL     1      -2.340   9.842  16.546  0.00  0.00    +0.000 A 
ATOM     11  C   UNL     1      -1.453   9.756  17.619  0.00  0.00    +0.000 A 
ATOM     12  C   UNL     1      -1.539  10.652  18.706  0.00  0.00    +0.000 A 
ATOM     13  C   UNL     1      -0.571  10.691  19.764  0.00  0.00    +0.000 A 
ENDROOT
BRANCH   1  14
ATOM     14  C   UNL     1       1.509   9.104  19.252  0.00  0.00    +0.000 C 
BRANCH  14  16
ATOM     15  O   UNL     1       1.083   7.522  20.999  0.00  0.00    +0.000 OA
ATOM     16  C   UNL     1       1.679   7.757  19.943  0.00  0.00    +0.000 C 
ATOM     17  N   UNL     1       2.484   6.828  19.301  0.00  0.00    +0.000 N 
ATOM     18  C   UNL     1       3.280   6.991  18.064  0.00  0.00    +0.000 C 
ATOM     19  C   UNL     1       3.596   5.575  17.546  0.00  0.00    +0.000 C 
ATOM     20  C   UNL     1       3.279   4.735  18.741  0.00  0.00    +0.000 A 
ATOM     21  C   UNL     1       3.453   3.369  18.897  0.00  0.00    +0.000 A 
ATOM     22  C   UNL     1       3.009   2.765  20.080  0.00  0.00    +0.000 A 
ATOM     23  C   UNL     1       2.409   3.538  21.083  0.00  0.00    +0.000 A 
ATOM     24  C   UNL     1       2.225   4.908  20.908  0.00  0.00    +0.000 A 
ATOM     25  C   UNL     1       2.647   5.493  19.728  0.00  0.00    +0.000 A 
ENDBRANCH  14  16
ENDBRANCH   1  14
TORSDOF 2
ENDMDL
MODEL 4
REMARK VINA RESULT:      -8.7      1.662      2.940
REMARK  Name = 
REMARK  2 active torsions:
REMARK  status: ('A' for Active; 'I' for Inactive)
REMARK    1  A    between atoms: C_2  and  C_3
REMARK    2  A    between atoms: C_3  and  C_4
REMARK                            x       y       z     vdW  Elec       q    Type
REMARK                         _______ _______ _______ _____ _____    ______ ____
ROOT
ATOM      1  C   UNL     1       3.635   7.158  17.657  0.00  0.00    +0.000 A 
ATOM      2  C   UNL     1       4.900   7.698  17.489  0.00  0.00    +0.000 A 
ATOM      3  O   UNL     1       5.851   6.738  17.534  0.00  0.00    +0.000 OA
ATOM      4  C   UNL     1       5.217   5.556  17.748  0.00  0.00    +0.000 A 
ATOM      5  C   UNL     1       5.874   4.342  17.931  0.00  0.00    +0.000 A 
ATOM      6  C   UNL     1       5.076   3.234  18.218  0.00  0.00    +0.000 A 
ATOM      7  C   UNL     1       3.680   3.330  18.277  0.00  0.00    +0.000 A 
ATOM      8  C   UNL     1       2.909   2.208  18.617  0.00  0.00    +0.000 A 
ATOM      9  C   UNL     1       1.518   2.288  18.694  0.00  0.00    +0.000 A 
ATOM     10  C   UNL     1       0.873   3.480  18.386  0.00  0.00    +0.000 A 
ATOM     11  C   UNL     1       1.616   4.607  18.034  0.00  0.00    +0.000 A 
ATOM     12  C   UNL     1       3.027   4.570  18.020  0.00  0.00    +0.000 A 
ATOM     13  C   UNL     1       3.835   5.734  17.796  0.00  0.00    +0.000 A 
ENDROOT
BRANCH   1  14
ATOM     14  C   UNL     1       2.363   7.955  17.725  0.00  0.00    +0.000 C 
BRANCH  14  16
ATOM     15  O   UNL     1       2.309   7.433  20.062  0.00  0.00    +0.000 OA
ATOM     16  C   UNL     1       1.844   8.121  19.148  0.00  0.00    +0.000 C 
ATOM     17  N   UNL     1       0.880   9.099  19.346  0.00  0.00    +0.000 N 
ATOM     18  C   UNL     1       0.214   9.960  18.342  0.00  0.00    +0.000 C 
ATOM     19  C   UNL     1      -0.396  11.150  19.107  0.00  0.00    +0.000 C 
ATOM     20  C   UNL     1      -0.351  10.659  20.519  0.00  0.00    +0.000 A 
ATOM     21  C   UNL     1      -0.848  11.278  21.655  0.00  0.00    +0.000 A 
ATOM     22  C   UNL     1      -0.624  10.678  22.900  0.00  0.00    +0.000 A 
ATOM     23  C   UNL     1       0.084   9.472  22.984  0.00  0.00    +0.000 A 
ATOM     24  C   UNL     1       0.593   8.868  21.836  0.00  0.00    +0.000 A 
ATOM     25  C   UNL     1       0.386   9.478  20.612  0.00  0.00    +0.000 A 
ENDBRANCH  14  16
ENDBRANCH   1  14
TORSDOF 2
ENDMDL
MODEL 5
REMARK VINA RESULT:      -8.6      1.664      3.375
REMARK  Name = 
REMARK  2 active torsions:
REMARK  status: ('A' for Active; 'I' for Inactive)
REMARK    1  A    between atoms: C_2  and  C_3
REMARK    2  A    between atoms: C_3  and  C_4
REMARK                            x       y       z     vdW  Elec       q    Type
REMARK                         _______ _______ _______ _____ _____    ______ ____
ROOT
ATOM      1  C   UNL     1       2.991   7.029  18.564  0.00  0.00    +0.000 A 
ATOM      2  C   UNL     1       3.876   7.712  17.745  0.00  0.00    +0.000 A 
ATOM      3  O   UNL     1       4.531   6.866  16.919  0.00  0.00    +0.000 OA
ATOM      4  C   UNL     1       4.092   5.613  17.200  0.00  0.00    +0.000 A 
ATOM      5  C   UNL     1       4.594   4.459  16.603  0.00  0.00    +0.000 A 
ATOM      6  C   UNL     1       4.086   3.243  17.061  0.00  0.00    +0.000 A 
ATOM      7  C   UNL     1       3.088   3.187  18.042  0.00  0.00    +0.000 A 
ATOM      8  C   UNL     1       2.633   1.947  18.517  0.00  0.00    +0.000 A 
ATOM      9  C   UNL     1       1.651   1.872  19.503  0.00  0.00    +0.000 A 
ATOM     10  C   UNL     1       1.072   3.035  19.998  0.00  0.00    +0.000 A 
ATOM     11  C   UNL     1       1.498   4.280  19.534  0.00  0.00    +0.000 A 
ATOM     12  C   UNL     1       2.542   4.384  18.589  0.00  0.00    +0.000 A 
ATOM     13  C   UNL     1       3.104   5.640  18.183  0.00  0.00    +0.000 A 
ENDROOT
BRANCH   1  14
ATOM     14  C   UNL     1       2.155   7.659  19.641  0.00  0.00    +0.000 C 
BRANCH  14  16
ATOM     15  O   UNL     1       1.196   9.029  17.926  0.00  0.00    +0.000 OA
ATOM     16  C   UNL     1       1.337   8.843  19.139  0.00  0.00    +0.000 C 
ATOM     17  N   UNL     1       0.743   9.641  20.106  0.00  0.00    +0.000 N 
ATOM     18  C   UNL     1       0.860   9.553  21.579  0.00  0.00    +0.000 C 
ATOM     19  C   UNL     1      -0.326  10.339  22.170  0.00  0.00    +0.000 C 
ATOM     20  C   UNL     1      -0.793  11.122  20.985  0.00  0.00    +0.000 A 
ATOM     21  C   UNL     1      -1.793  12.081  20.934  0.00  0.00    +0.000 A 
ATOM     22  C   UNL     1      -2.127  12.638  19.693  0.00  0.00    +0.000 A 
ATOM     23  C   UNL     1      -1.454  12.231  18.534  0.00  0.00    +0.000 A 
ATOM     24  C   UNL     1      -0.462  11.255  18.596  0.00  0.00    +0.000 A 
ATOM     25  C   UNL     1      -0.151  10.694  19.821  0.00  0.00    +0.000 A 
ENDBRANCH  14  16
ENDBRANCH   1  14
TORSDOF 2
ENDMDL
MODEL 6
REMARK VINA RESULT:      -8.5      2.045      8.227
REMARK  Name = 
REMARK  2 active torsions:
REMARK  status: ('A' for Active; 'I' for Inactive)
REMARK    1  A    between atoms: C_2  and  C_3
REMARK    2  A    between atoms: C_3  and  C_4
REMARK                            x       y       z     vdW  Elec       q    Type
REMARK                         _______ _______ _______ _____ _____    ______ ____
ROOT
ATOM      1  C   UNL     1       1.630   8.744  19.398  0.00  0.00    +0.000 A 
ATOM      2  C   UNL     1       1.946   8.959  18.065  0.00  0.00    +0.000 A 
ATOM      3  O   UNL     1       1.388  10.103  17.608  0.00  0.00    +0.000 OA
ATOM      4  C   UNL     1       0.686  10.644  18.636  0.00  0.00    +0.000 A 
ATOM      5  C   UNL     1      -0.093  11.793  18.528  0.00  0.00    +0.000 A 
ATOM      6  C   UNL     1      -0.813  12.172  19.661  0.00  0.00    +0.000 A 
ATOM      7  C   UNL     1      -0.724  11.456  20.862  0.00  0.00    +0.000 A 
ATOM      8  C   UNL     1      -1.499  11.834  21.969  0.00  0.00    +0.000 A 
ATOM      9  C   UNL     1      -1.435  11.125  23.168  0.00  0.00    +0.000 A 
ATOM     10  C   UNL     1      -0.557  10.054  23.295  0.00  0.00    +0.000 A 
ATOM     11  C   UNL     1       0.233   9.665  22.213  0.00  0.00    +0.000 A 
ATOM     12  C   UNL     1       0.132  10.322  20.967  0.00  0.00    +0.000 A 
ATOM     13  C   UNL     1       0.823   9.876  19.792  0.00  0.00    +0.000 A 
ENDROOT
BRANCH   1  14
ATOM     14  C   UNL     1       2.033   7.535  20.192  0.00  0.00    +0.000 C 
BRANCH  14  16
ATOM     15  O   UNL     1       3.551   6.688  18.543  0.00  0.00    +0.000 OA
ATOM     16  C   UNL     1       2.632   6.432  19.328  0.00  0.00    +0.000 C 
ATOM     17  N   UNL     1       2.124   5.155  19.513  0.00  0.00    +0.000 N 
ATOM     18  C   UNL     1       1.009   4.719  20.384  0.00  0.00    +0.000 C 
ATOM     19  C   UNL     1       1.157   3.198  20.574  0.00  0.00    +0.000 C 
ATOM     20  C   UNL     1       2.119   2.847  19.485  0.00  0.00    +0.000 A 
ATOM     21  C   UNL     1       2.567   1.590  19.111  0.00  0.00    +0.000 A 
ATOM     22  C   UNL     1       3.540   1.492  18.109  0.00  0.00    +0.000 A 
ATOM     23  C   UNL     1       4.039   2.650  17.496  0.00  0.00    +0.000 A 
ATOM     24  C   UNL     1       3.592   3.910  17.892  0.00  0.00    +0.000 A 
ATOM     25  C   UNL     1       2.647   3.998  18.898  0.00  0.00    +0.000 A 
ENDBRANCH  14  16
ENDBRANCH   1  14
TORSDOF 2
ENDMDL
MODEL 7
REMARK VINA RESULT:      -8.5      1.730      2.541
REMARK  Name = 
REMARK  2 active torsions:
REMARK  status: ('A' for Active; 'I' for Inactive)
REMARK    1  A    between atoms: C_2  and  C_3
REMARK    2  A    between atoms: C_3  and  C_4
REMARK                            x       y       z     vdW  Elec       q    Type
REMARK                         _______ _______ _______ _____ _____    ______ ____
ROOT
ATOM      1  C   UNL     1       2.231   7.624  19.397  0.00  0.00    +0.000 A 
ATOM      2  C   UNL     1       1.498   7.264  20.516  0.00  0.00    +0.000 A 
ATOM      3  O   UNL     1       1.661   5.953  20.807  0.00  0.00    +0.000 OA
ATOM      4  C   UNL     1       2.494   5.436  19.868  0.00  0.00    +0.000 A 
ATOM      5  C   UNL     1       2.838   4.089  19.789  0.00  0.00    +0.000 A 
ATOM      6  C   UNL     1       3.645   3.709  18.716  0.00  0.00    +0.000 A 
ATOM      7  C   UNL     1       4.120   4.644  17.788  0.00  0.00    +0.000 A 
ATOM      8  C   UNL     1       4.889   4.222  16.691  0.00  0.00    +0.000 A 
ATOM      9  C   UNL     1       5.358   5.137  15.749  0.00  0.00    +0.000 A 
ATOM     10  C   UNL     1       5.108   6.495  15.913  0.00  0.00    +0.000 A 
ATOM     11  C   UNL     1       4.356   6.940  17.000  0.00  0.00    +0.000 A 
ATOM     12  C   UNL     1       3.809   6.027  17.928  0.00  0.00    +0.000 A 
ATOM     13  C   UNL     1       2.921   6.424  18.982  0.00  0.00    +0.000 A 
ENDROOT
BRANCH   1  14
ATOM     14  C   UNL     1       2.223   8.988  18.767  0.00  0.00    +0.000 C 
BRANCH  14  16
ATOM     15  O   UNL     1       0.466   8.700  17.165  0.00  0.00    +0.000 OA
ATOM     16  C   UNL     1       0.881   9.340  18.136  0.00  0.00    +0.000 C 
ATOM     17  N   UNL     1       0.163  10.363  18.738  0.00  0.00    +0.000 N 
ATOM     18  C   UNL     1       0.557  11.229  19.871  0.00  0.00    +0.000 C 
ATOM     19  C   UNL     1      -0.736  11.852  20.429  0.00  0.00    +0.000 C 
ATOM     20  C   UNL     1      -1.705  11.585  19.322  0.00  0.00    +0.000 A 
ATOM     21  C   UNL     1      -3.026  11.995  19.224  0.00  0.00    +0.000 A 
ATOM     22  C   UNL     1      -3.785  11.561  18.130  0.00  0.00    +0.000 A 
ATOM     23  C   UNL     1      -3.210  10.734  17.157  0.00  0.00    +0.000 A 
ATOM     24  C   UNL     1      -1.886  10.314  17.276  0.00  0.00    +0.000 A 
ATOM     25  C   UNL     1      -1.149  10.730  18.369  0.00  0.00    +0.000 A 
ENDBRANCH  14  16
ENDBRANCH   1  14
TORSDOF 2
ENDMDL
MODEL 8
REMARK VINA RESULT:      -8.4      1.479      7.829
REMARK  Name = 
REMARK  2 active torsions:
REMARK  status: ('A' for Active; 'I' for Inactive)
REMARK    1  A    between atoms: C_2  and  C_3
REMARK    2  A    between atoms: C_3  and  C_4
REMARK                            x       y       z     vdW  Elec       q    Type
REMARK                         _______ _______ _______ _____ _____    ______ ____
ROOT
ATOM      1  C   UNL     1       1.192   8.956  20.893  0.00  0.00    +0.000 A 
ATOM      2  C   UNL     1       1.587   8.908  22.221  0.00  0.00    +0.000 A 
ATOM      3  O   UNL     1       0.836   9.733  22.985  0.00  0.00    +0.000 OA
ATOM      4  C   UNL     1      -0.051  10.345  22.160  0.00  0.00    +0.000 A 
ATOM      5  C   UNL     1      -0.947  11.328  22.571  0.00  0.00    +0.000 A 
ATOM      6  C   UNL     1      -1.739  11.910  21.581  0.00  0.00    +0.000 A 
ATOM      7  C   UNL     1      -1.666  11.495  20.245  0.00  0.00    +0.000 A 
ATOM      8  C   UNL     1      -2.440  12.135  19.263  0.00  0.00    +0.000 A 
ATOM      9  C   UNL     1      -2.370  11.745  17.926  0.00  0.00    +0.000 A 
ATOM     10  C   UNL     1      -1.560  10.677  17.555  0.00  0.00    +0.000 A 
ATOM     11  C   UNL     1      -0.790  10.017  18.513  0.00  0.00    +0.000 A 
ATOM     12  C   UNL     1      -0.789  10.440  19.860  0.00  0.00    +0.000 A 
ATOM     13  C   UNL     1       0.084   9.882  20.852  0.00  0.00    +0.000 A 
ENDROOT
BRANCH   1  14
ATOM     14  C   UNL     1       1.859   8.213  19.771  0.00  0.00    +0.000 C 
BRANCH  14  16
ATOM     15  O   UNL     1       1.200   6.190  20.873  0.00  0.00    +0.000 OA
ATOM     16  C   UNL     1       1.914   6.709  20.008  0.00  0.00    +0.000 C 
ATOM     17  N   UNL     1       2.757   5.981  19.181  0.00  0.00    +0.000 N 
ATOM     18  C   UNL     1       3.688   6.475  18.141  0.00  0.00    +0.000 C 
ATOM     19  C   UNL     1       4.017   5.278  17.229  0.00  0.00    +0.000 C 
ATOM     20  C   UNL     1       3.548   4.126  18.058  0.00  0.00    +0.000 A 
ATOM     21  C   UNL     1       3.664   2.772  17.784  0.00  0.00    +0.000 A 
ATOM     22  C   UNL     1       3.077   1.855  18.665  0.00  0.00    +0.000 A 
ATOM     23  C   UNL     1       2.393   2.308  19.801  0.00  0.00    +0.000 A 
ATOM     24  C   UNL     1       2.269   3.672  20.057  0.00  0.00    +0.000 A 
ATOM     25  C   UNL     1       2.834   4.572  19.172  0.00  0.00    +0.000 A 
ENDBRANCH  14  16
ENDBRANCH   1  14
TORSDOF 2
ENDMDL
MODEL 9
REMARK VINA RESULT:      -8.4      1.616      3.426
REMARK  Name = 
REMARK  2 active torsions:
REMARK  status: ('A' for Active; 'I' for Inactive)
REMARK    1  A    between atoms: C_2  and  C_3
REMARK    2  A    between atoms: C_3  and  C_4
REMARK                            x       y       z     vdW  Elec       q    Type
REMARK                         _______ _______ _______ _____ _____    ______ ____
ROOT
ATOM      1  C   UNL     1       2.306   7.499  19.261  0.00  0.00    +0.000 A 
ATOM      2  C   UNL     1       2.742   8.218  18.160  0.00  0.00    +0.000 A 
ATOM      3  O   UNL     1       3.433   7.432  17.304  0.00  0.00    +0.000 OA
ATOM      4  C   UNL     1       3.470   6.188  17.845  0.00  0.00    +0.000 A 
ATOM      5  C   UNL     1       4.163   5.117  17.288  0.00  0.00    +0.000 A 
ATOM      6  C   UNL     1       4.163   3.924  18.011  0.00  0.00    +0.000 A 
ATOM      7  C   UNL     1       3.464   3.798  19.219  0.00  0.00    +0.000 A 
ATOM      8  C   UNL     1       3.525   2.600  19.948  0.00  0.00    +0.000 A 
ATOM      9  C   UNL     1       2.848   2.461  21.160  0.00  0.00    +0.000 A 
ATOM     10  C   UNL     1       2.059   3.502  21.638  0.00  0.00    +0.000 A 
ATOM     11  C   UNL     1       1.973   4.698  20.927  0.00  0.00    +0.000 A 
ATOM     12  C   UNL     1       2.707   4.889  19.736  0.00  0.00    +0.000 A 
ATOM     13  C   UNL     1       2.756   6.144  19.042  0.00  0.00    +0.000 A 
ENDROOT
BRANCH   1  14
ATOM     14  C   UNL     1       1.567   8.082  20.432  0.00  0.00    +0.000 C 
BRANCH  14  16
ATOM     15  O   UNL     1       0.661   9.673  18.886  0.00  0.00    +0.000 OA
ATOM     16  C   UNL     1       0.776   9.333  20.069  0.00  0.00    +0.000 C 
ATOM     17  N   UNL     1       0.175  10.013  21.118  0.00  0.00    +0.000 N 
ATOM     18  C   UNL     1       0.263   9.740  22.570  0.00  0.00    +0.000 C 
ATOM     19  C   UNL     1      -0.923  10.465  23.234  0.00  0.00    +0.000 C 
ATOM     20  C   UNL     1      -1.356  11.398  22.149  0.00  0.00    +0.000 A 
ATOM     21  C   UNL     1      -2.341  12.372  22.202  0.00  0.00    +0.000 A 
ATOM     22  C   UNL     1      -2.644  13.085  21.036  0.00  0.00    +0.000 A 
ATOM     23  C   UNL     1      -1.954  12.816  19.846  0.00  0.00    +0.000 A 
ATOM     24  C   UNL     1      -0.977  11.823  19.802  0.00  0.00    +0.000 A 
ATOM     25  C   UNL     1      -0.698  11.109  20.952  0.00  0.00    +0.000 A 
ENDBRANCH  14  16
ENDBRANCH   1  14
TORSDOF 2
ENDMDL
