MODEL 1
REMARK VINA RESULT:      -7.0      0.000      0.000
REMARK  Name = 
REMARK  5 active torsions:
REMARK  status: ('A' for Active; 'I' for Inactive)
REMARK    1  A    between atoms: C_2  and  C_3
REMARK    2  A    between atoms: C_3  and  S_4
REMARK    3  A    between atoms: S_4  and  C_5
REMARK    4  A    between atoms: C_9  and  O_10
REMARK    5  A    between atoms: N_12  and  C_13
REMARK                            x       y       z     vdW  Elec       q    Type
REMARK                         _______ _______ _______ _____ _____    ______ ____
ROOT
ATOM      1  C   UNL     1       4.680   4.663  15.937  0.00  0.00    +0.000 C 
ENDROOT
BRANCH   1   3
ATOM      2  O   UNL     1       3.862   6.137  17.645  0.00  0.00    +0.000 OA
ATOM      3  C   UNL     1       4.030   4.976  17.282  0.00  0.00    +0.000 C 
ATOM      4  N   UNL     1       3.743   3.887  18.074  0.00  0.00    +0.000 N 
ATOM      5  H   UNL     1       3.766   2.982  17.614  0.00  0.00    +0.000 HD
BRANCH   4   6
ATOM      6  C   UNL     1       3.080   3.931  19.364  0.00  0.00    +0.000 C 
ATOM      7  C   UNL     1       1.557   3.992  19.314  0.00  0.00    +0.000 C 
ATOM      8  C   UNL     1       1.140   3.644  20.737  0.00  0.00    +0.000 C 
ATOM      9  C   UNL     1       2.224   2.713  21.279  0.00  0.00    +0.000 C 
ATOM     10  C   UNL     1       3.378   2.747  20.280  0.00  0.00    +0.000 C 
ENDBRANCH   4   6
ENDBRANCH   1   3
BRANCH   1  11
ATOM     11  S   UNL     1       6.350   3.963  16.068  0.00  0.00    +0.000 S 
BRANCH  11  12
ATOM     12  C   UNL     1       7.086   5.204  17.098  0.00  0.00    +0.000 A 
ATOM     13  N   UNL     1       7.262   6.432  16.585  0.00  0.00    +0.000 NA
ATOM     14  C   UNL     1       7.761   7.357  17.424  0.00  0.00    +0.000 A 
ATOM     15  C   UNL     1       8.080   7.099  18.734  0.00  0.00    +0.000 A 
ATOM     16  C   UNL     1       7.868   5.805  19.137  0.00  0.00    +0.000 A 
ATOM     17  N   UNL     1       7.384   4.838  18.351  0.00  0.00    +0.000 NA
BRANCH  16  18
ATOM     18  O   UNL     1       8.136   5.412  20.416  0.00  0.00    +0.000 OA
ATOM     19  H   UNL     1       7.328   5.043  20.804  0.00  0.00    +0.000 HD
ENDBRANCH  16  18
ENDBRANCH  11  12
ENDBRANCH   1  11
TORSDOF 5
ENDMDL
MODEL 2
REMARK VINA RESULT:      -6.9      1.113      1.120
REMARK  Name = 
REMARK  5 active torsions:
REMARK  status: ('A' for Active; 'I' for Inactive)
REMARK    1  A    between atoms: C_2  and  C_3
REMARK    2  A    between atoms: C_3  and  S_4
REMARK    3  A    between atoms: S_4  and  C_5
REMARK    4  A    between atoms: C_9  and  O_10
REMARK    5  A    between atoms: N_12  and  C_13
REMARK                            x       y       z     vdW  Elec       q    Type
REMARK                         _______ _______ _______ _____ _____    ______ ____
ROOT
ATOM      1  C   UNL     1       4.661   4.518  16.084  0.00  0.00    +0.000 C 
ENDROOT
BRANCH   1   3
ATOM      2  O   UNL     1       4.352   3.085  17.984  0.00  0.00    +0.000 OA
ATOM      3  C   UNL     1       3.959   4.068  17.363  0.00  0.00    +0.000 C 
ATOM      4  N   UNL     1       2.827   4.774  17.702  0.00  0.00    +0.000 N 
ATOM      5  H   UNL     1       2.692   5.660  17.221  0.00  0.00    +0.000 HD
BRANCH   4   6
ATOM      6  C   UNL     1       2.027   4.568  18.895  0.00  0.00    +0.000 C 
ATOM      7  C   UNL     1       1.386   3.190  19.022  0.00  0.00    +0.000 C 
ATOM      8  C   UNL     1       0.958   3.130  20.482  0.00  0.00    +0.000 C 
ATOM      9  C   UNL     1       1.956   3.996  21.251  0.00  0.00    +0.000 C 
ATOM     10  C   UNL     1       2.775   4.757  20.212  0.00  0.00    +0.000 C 
ENDBRANCH   4   6
ENDBRANCH   1   3
BRANCH   1  11
ATOM     11  S   UNL     1       6.399   4.002  15.975  0.00  0.00    +0.000 S 
BRANCH  11  12
ATOM     12  C   UNL     1       7.113   5.223  17.042  0.00  0.00    +0.000 A 
ATOM     13  N   UNL     1       7.290   6.464  16.559  0.00  0.00    +0.000 NA
ATOM     14  C   UNL     1       7.772   7.372  17.425  0.00  0.00    +0.000 A 
ATOM     15  C   UNL     1       8.073   7.087  18.734  0.00  0.00    +0.000 A 
ATOM     16  C   UNL     1       7.862   5.783  19.106  0.00  0.00    +0.000 A 
ATOM     17  N   UNL     1       7.395   4.831  18.291  0.00  0.00    +0.000 NA
BRANCH  16  18
ATOM     18  O   UNL     1       8.113   5.363  20.379  0.00  0.00    +0.000 OA
ATOM     19  H   UNL     1       7.269   5.244  20.839  0.00  0.00    +0.000 HD
ENDBRANCH  16  18
ENDBRANCH  11  12
ENDBRANCH   1  11
TORSDOF 5
ENDMDL
MODEL 3
REMARK VINA RESULT:      -6.7      2.865      6.158
REMARK  Name = 
REMARK  5 active torsions:
REMARK  status: ('A' for Active; 'I' for Inactive)
REMARK    1  A    between atoms: C_2  and  C_3
REMARK    2  A    between atoms: C_3  and  S_4
REMARK    3  A    between atoms: S_4  and  C_5
REMARK    4  A    between atoms: C_9  and  O_10
REMARK    5  A    between atoms: N_12  and  C_13
REMARK                            x       y       z     vdW  Elec       q    Type
REMARK                         _______ _______ _______ _____ _____    ______ ____
ROOT
ATOM      1  C   UNL     1       6.562   6.123  17.691  0.00  0.00    +0.000 C 
ENDROOT
BRANCH   1   3
ATOM      2  O   UNL     1       7.958   4.344  16.890  0.00  0.00    +0.000 OA
ATOM      3  C   UNL     1       7.063   5.144  16.633  0.00  0.00    +0.000 C 
ATOM      4  N   UNL     1       6.516   5.289  15.377  0.00  0.00    +0.000 N 
ATOM      5  H   UNL     1       5.676   5.858  15.320  0.00  0.00    +0.000 HD
BRANCH   4   6
ATOM      6  C   UNL     1       6.794   4.445  14.231  0.00  0.00    +0.000 C 
ATOM      7  C   UNL     1       5.569   3.855  13.539  0.00  0.00    +0.000 C 
ATOM      8  C   UNL     1       6.115   3.365  12.205  0.00  0.00    +0.000 C 
ATOM      9  C   UNL     1       7.281   4.291  11.859  0.00  0.00    +0.000 C 
ATOM     10  C   UNL     1       7.570   5.125  13.105  0.00  0.00    +0.000 C 
ENDBRANCH   4   6
ENDBRANCH   1   3
BRANCH   1  11
ATOM     11  S   UNL     1       6.038   5.333  19.240  0.00  0.00    +0.000 S 
BRANCH  11  12
ATOM     12  C   UNL     1       4.481   4.682  18.700  0.00  0.00    +0.000 A 
ATOM     13  N   UNL     1       3.517   5.549  18.350  0.00  0.00    +0.000 NA
ATOM     14  C   UNL     1       2.377   5.008  17.884  0.00  0.00    +0.000 A 
ATOM     15  C   UNL     1       2.176   3.655  17.755  0.00  0.00    +0.000 A 
ATOM     16  C   UNL     1       3.229   2.873  18.158  0.00  0.00    +0.000 A 
ATOM     17  N   UNL     1       4.383   3.348  18.639  0.00  0.00    +0.000 NA
BRANCH  16  18
ATOM     18  O   UNL     1       3.167   1.512  18.080  0.00  0.00    +0.000 OA
ATOM     19  H   UNL     1       3.671   1.223  17.305  0.00  0.00    +0.000 HD
ENDBRANCH  16  18
ENDBRANCH  11  12
ENDBRANCH   1  11
TORSDOF 5
ENDMDL
MODEL 4
REMARK VINA RESULT:      -6.6      1.280      1.463
REMARK  Name = 
REMARK  5 active torsions:
REMARK  status: ('A' for Active; 'I' for Inactive)
REMARK    1  A    between atoms: C_2  and  C_3
REMARK    2  A    between atoms: C_3  and  S_4
REMARK    3  A    between atoms: S_4  and  C_5
REMARK    4  A    between atoms: C_9  and  O_10
REMARK    5  A    between atoms: N_12  and  C_13
REMARK                            x       y       z     vdW  Elec       q    Type
REMARK                         _______ _______ _______ _____ _____    ______ ____
ROOT
ATOM      1  C   UNL     1       4.966   4.403  15.723  0.00  0.00    +0.000 C 
ENDROOT
BRANCH   1   3
ATOM      2  O   UNL     1       4.400   2.756  17.373  0.00  0.00    +0.000 OA
ATOM      3  C   UNL     1       4.324   3.930  17.024  0.00  0.00    +0.000 C 
ATOM      4  N   UNL     1       3.593   4.876  17.708  0.00  0.00    +0.000 N 
ATOM      5  H   UNL     1       3.736   5.842  17.424  0.00  0.00    +0.000 HD
BRANCH   4   6
ATOM      6  C   UNL     1       2.940   4.678  18.988  0.00  0.00    +0.000 C 
ATOM      7  C   UNL     1       2.608   5.952  19.758  0.00  0.00    +0.000 C 
ATOM      8  C   UNL     1       1.624   5.480  20.820  0.00  0.00    +0.000 C 
ATOM      9  C   UNL     1       0.879   4.294  20.209  0.00  0.00    +0.000 C 
ATOM     10  C   UNL     1       1.615   3.922  18.924  0.00  0.00    +0.000 C 
ENDBRANCH   4   6
ENDBRANCH   1   3
BRANCH   1  11
ATOM     11  S   UNL     1       6.754   4.100  15.629  0.00  0.00    +0.000 S 
BRANCH  11  12
ATOM     12  C   UNL     1       7.295   5.287  16.829  0.00  0.00    +0.000 A 
ATOM     13  N   UNL     1       7.427   6.566  16.443  0.00  0.00    +0.000 NA
ATOM     14  C   UNL     1       7.775   7.440  17.404  0.00  0.00    +0.000 A 
ATOM     15  C   UNL     1       7.986   7.084  18.713  0.00  0.00    +0.000 A 
ATOM     16  C   UNL     1       7.833   5.747  18.981  0.00  0.00    +0.000 A 
ATOM     17  N   UNL     1       7.500   4.827  18.070  0.00  0.00    +0.000 NA
BRANCH  16  18
ATOM     18  O   UNL     1       8.007   5.257  20.242  0.00  0.00    +0.000 OA
ATOM     19  H   UNL     1       8.947   5.319  20.473  0.00  0.00    +0.000 HD
ENDBRANCH  16  18
ENDBRANCH  11  12
ENDBRANCH   1  11
TORSDOF 5
ENDMDL
MODEL 5
REMARK VINA RESULT:      -6.6      2.804      6.011
REMARK  Name = 
REMARK  5 active torsions:
REMARK  status: ('A' for Active; 'I' for Inactive)
REMARK    1  A    between atoms: C_2  and  C_3
REMARK    2  A    between atoms: C_3  and  S_4
REMARK    3  A    between atoms: S_4  and  C_5
REMARK    4  A    between atoms: C_9  and  O_10
REMARK    5  A    between atoms: N_12  and  C_13
REMARK                            x       y       z     vdW  Elec       q    Type
REMARK                         _______ _______ _______ _____ _____    ______ ____
ROOT
ATOM      1  C   UNL     1       6.292   6.225  17.707  0.00  0.00    +0.000 C 
ENDROOT
BRANCH   1   3
ATOM      2  O   UNL     1       7.773   4.470  17.011  0.00  0.00    +0.000 OA
ATOM      3  C   UNL     1       6.878   5.248  16.692  0.00  0.00    +0.000 C 
ATOM      4  N   UNL     1       6.406   5.369  15.404  0.00  0.00    +0.000 N 
ATOM      5  H   UNL     1       5.559   5.920  15.289  0.00  0.00    +0.000 HD
BRANCH   4   6
ATOM      6  C   UNL     1       6.772   4.522  14.285  0.00  0.00    +0.000 C 
ATOM      7  C   UNL     1       5.607   3.869  13.549  0.00  0.00    +0.000 C 
ATOM      8  C   UNL     1       6.233   3.384  12.249  0.00  0.00    +0.000 C 
ATOM      9  C   UNL     1       7.373   4.355  11.940  0.00  0.00    +0.000 C 
ATOM     10  C   UNL     1       7.568   5.219  13.184  0.00  0.00    +0.000 C 
ENDBRANCH   4   6
ENDBRANCH   1   3
BRANCH   1  11
ATOM     11  S   UNL     1       4.490   6.423  17.587  0.00  0.00    +0.000 S 
BRANCH  11  12
ATOM     12  C   UNL     1       4.009   4.761  17.971  0.00  0.00    +0.000 A 
ATOM     13  N   UNL     1       3.005   4.212  17.267  0.00  0.00    +0.000 NA
ATOM     14  C   UNL     1       2.720   2.928  17.548  0.00  0.00    +0.000 A 
ATOM     15  C   UNL     1       3.395   2.189  18.488  0.00  0.00    +0.000 A 
ATOM     16  C   UNL     1       4.390   2.864  19.149  0.00  0.00    +0.000 A 
ATOM     17  N   UNL     1       4.715   4.141  18.924  0.00  0.00    +0.000 NA
BRANCH  16  18
ATOM     18  O   UNL     1       5.145   2.249  20.105  0.00  0.00    +0.000 OA
ATOM     19  H   UNL     1       5.790   2.885  20.449  0.00  0.00    +0.000 HD
ENDBRANCH  16  18
ENDBRANCH  11  12
ENDBRANCH   1  11
TORSDOF 5
ENDMDL
MODEL 6
REMARK VINA RESULT:      -6.5      2.450      3.568
REMARK  Name = 
REMARK  5 active torsions:
REMARK  status: ('A' for Active; 'I' for Inactive)
REMARK    1  A    between atoms: C_2  and  C_3
REMARK    2  A    between atoms: C_3  and  S_4
REMARK    3  A    between atoms: S_4  and  C_5
REMARK    4  A    between atoms: C_9  and  O_10
REMARK    5  A    between atoms: N_12  and  C_13
REMARK                            x       y       z     vdW  Elec       q    Type
REMARK                         _______ _______ _______ _____ _____    ______ ____
ROOT
ATOM      1  C   UNL     1       5.814   5.973  18.460  0.00  0.00    +0.000 C 
ENDROOT
BRANCH   1   3
ATOM      2  O   UNL     1       5.659   3.854  19.576  0.00  0.00    +0.000 OA
ATOM      3  C   UNL     1       5.064   4.754  18.990  0.00  0.00    +0.000 C 
ATOM      4  N   UNL     1       3.722   4.699  18.684  0.00  0.00    +0.000 N 
ATOM      5  H   UNL     1       3.305   5.563  18.349  0.00  0.00    +0.000 HD
BRANCH   4   6
ATOM      6  C   UNL     1       2.796   3.671  19.121  0.00  0.00    +0.000 C 
ATOM      7  C   UNL     1       1.965   4.020  20.351  0.00  0.00    +0.000 C 
ATOM      8  C   UNL     1       0.859   2.972  20.341  0.00  0.00    +0.000 C 
ATOM      9  C   UNL     1       0.625   2.618  18.873  0.00  0.00    +0.000 C 
ATOM     10  C   UNL     1       1.765   3.249  18.077  0.00  0.00    +0.000 C 
ENDBRANCH   4   6
ENDBRANCH   1   3
BRANCH   1  11
ATOM     11  S   UNL     1       7.470   5.598  17.815  0.00  0.00    +0.000 S 
BRANCH  11  12
ATOM     12  C   UNL     1       7.003   4.932  16.240  0.00  0.00    +0.000 A 
ATOM     13  N   UNL     1       6.038   3.998  16.206  0.00  0.00    +0.000 NA
ATOM     14  C   UNL     1       5.672   3.572  14.985  0.00  0.00    +0.000 A 
ATOM     15  C   UNL     1       6.225   4.042  13.819  0.00  0.00    +0.000 A 
ATOM     16  C   UNL     1       7.210   4.983  13.985  0.00  0.00    +0.000 A 
ATOM     17  N   UNL     1       7.626   5.441  15.170  0.00  0.00    +0.000 NA
BRANCH  16  18
ATOM     18  O   UNL     1       7.841   5.540  12.911  0.00  0.00    +0.000 OA
ATOM     19  H   UNL     1       8.582   6.076  13.230  0.00  0.00    +0.000 HD
ENDBRANCH  16  18
ENDBRANCH  11  12
ENDBRANCH   1  11
TORSDOF 5
ENDMDL
MODEL 7
REMARK VINA RESULT:      -6.4      2.910      3.914
REMARK  Name = 
REMARK  5 active torsions:
REMARK  status: ('A' for Active; 'I' for Inactive)
REMARK    1  A    between atoms: C_2  and  C_3
REMARK    2  A    between atoms: C_3  and  S_4
REMARK    3  A    between atoms: S_4  and  C_5
REMARK    4  A    between atoms: C_9  and  O_10
REMARK    5  A    between atoms: N_12  and  C_13
REMARK                            x       y       z     vdW  Elec       q    Type
REMARK                         _______ _______ _______ _____ _____    ______ ____
ROOT
ATOM      1  C   UNL     1       4.974   3.968  16.342  0.00  0.00    +0.000 C 
ENDROOT
BRANCH   1   3
ATOM      2  O   UNL     1       3.674   5.600  17.528  0.00  0.00    +0.000 OA
ATOM      3  C   UNL     1       4.103   4.450  17.499  0.00  0.00    +0.000 C 
ATOM      4  N   UNL     1       3.921   3.550  18.526  0.00  0.00    +0.000 N 
ATOM      5  H   UNL     1       4.174   2.586  18.324  0.00  0.00    +0.000 HD
BRANCH   4   6
ATOM      6  C   UNL     1       3.094   3.761  19.699  0.00  0.00    +0.000 C 
ATOM      7  C   UNL     1       1.611   3.979  19.424  0.00  0.00    +0.000 C 
ATOM      8  C   UNL     1       0.963   3.786  20.788  0.00  0.00    +0.000 C 
ATOM      9  C   UNL     1       1.846   2.789  21.538  0.00  0.00    +0.000 C 
ATOM     10  C   UNL     1       3.124   2.625  20.718  0.00  0.00    +0.000 C 
ENDBRANCH   4   6
ENDBRANCH   1   3
BRANCH   1  11
ATOM     11  S   UNL     1       6.588   4.794  16.239  0.00  0.00    +0.000 S 
BRANCH  11  12
ATOM     12  C   UNL     1       6.851   4.660  14.491  0.00  0.00    +0.000 A 
ATOM     13  N   UNL     1       7.723   5.502  13.913  0.00  0.00    +0.000 NA
ATOM     14  C   UNL     1       7.939   5.319  12.599  0.00  0.00    +0.000 A 
ATOM     15  C   UNL     1       7.326   4.337  11.859  0.00  0.00    +0.000 A 
ATOM     16  C   UNL     1       6.447   3.549  12.559  0.00  0.00    +0.000 A 
ATOM     17  N   UNL     1       6.181   3.686  13.862  0.00  0.00    +0.000 NA
BRANCH  16  18
ATOM     18  O   UNL     1       5.774   2.531  11.948  0.00  0.00    +0.000 OA
ATOM     19  H   UNL     1       4.893   2.848  11.697  0.00  0.00    +0.000 HD
ENDBRANCH  16  18
ENDBRANCH  11  12
ENDBRANCH   1  11
TORSDOF 5
ENDMDL
MODEL 8
REMARK VINA RESULT:      -6.4      2.471      3.457
REMARK  Name = 
REMARK  5 active torsions:
REMARK  status: ('A' for Active; 'I' for Inactive)
REMARK    1  A    between atoms: C_2  and  C_3
REMARK    2  A    between atoms: C_3  and  S_4
REMARK    3  A    between atoms: S_4  and  C_5
REMARK    4  A    between atoms: C_9  and  O_10
REMARK    5  A    between atoms: N_12  and  C_13
REMARK                            x       y       z     vdW  Elec       q    Type
REMARK                         _______ _______ _______ _____ _____    ______ ____
ROOT
ATOM      1  C   UNL     1       6.271   5.130  18.942  0.00  0.00    +0.000 C 
ENDROOT
BRANCH   1   3
ATOM      2  O   UNL     1       5.045   3.180  19.615  0.00  0.00    +0.000 OA
ATOM      3  C   UNL     1       4.994   4.348  19.238  0.00  0.00    +0.000 C 
ATOM      4  N   UNL     1       3.814   5.004  18.966  0.00  0.00    +0.000 N 
ATOM      5  H   UNL     1       3.885   6.008  18.822  0.00  0.00    +0.000 HD
BRANCH   4   6
ATOM      6  C   UNL     1       2.482   4.487  19.214  0.00  0.00    +0.000 C 
ATOM      7  C   UNL     1       2.100   3.247  18.412  0.00  0.00    +0.000 C 
ATOM      8  C   UNL     1       0.865   2.723  19.132  0.00  0.00    +0.000 C 
ATOM      9  C   UNL     1       1.029   3.123  20.598  0.00  0.00    +0.000 C 
ATOM     10  C   UNL     1       2.204   4.096  20.664  0.00  0.00    +0.000 C 
ENDBRANCH   4   6
ENDBRANCH   1   3
BRANCH   1  11
ATOM     11  S   UNL     1       6.053   6.468  17.734  0.00  0.00    +0.000 S 
BRANCH  11  12
ATOM     12  C   UNL     1       6.203   5.518  16.245  0.00  0.00    +0.000 A 
ATOM     13  N   UNL     1       5.267   4.590  15.987  0.00  0.00    +0.000 NA
ATOM     14  C   UNL     1       5.386   3.941  14.815  0.00  0.00    +0.000 A 
ATOM     15  C   UNL     1       6.388   4.188  13.909  0.00  0.00    +0.000 A 
ATOM     16  C   UNL     1       7.290   5.149  14.293  0.00  0.00    +0.000 A 
ATOM     17  N   UNL     1       7.234   5.822  15.446  0.00  0.00    +0.000 NA
BRANCH  16  18
ATOM     18  O   UNL     1       8.333   5.499  13.485  0.00  0.00    +0.000 OA
ATOM     19  H   UNL     1       8.138   5.206  12.582  0.00  0.00    +0.000 HD
ENDBRANCH  16  18
ENDBRANCH  11  12
ENDBRANCH   1  11
TORSDOF 5
ENDMDL
MODEL 9
REMARK VINA RESULT:      -6.4      1.591      1.973
REMARK  Name = 
REMARK  5 active torsions:
REMARK  status: ('A' for Active; 'I' for Inactive)
REMARK    1  A    between atoms: C_2  and  C_3
REMARK    2  A    between atoms: C_3  and  S_4
REMARK    3  A    between atoms: S_4  and  C_5
REMARK    4  A    between atoms: C_9  and  O_10
REMARK    5  A    between atoms: N_12  and  C_13
REMARK                            x       y       z     vdW  Elec       q    Type
REMARK                         _______ _______ _______ _____ _____    ______ ____
ROOT
ATOM      1  C   UNL     1       4.815   4.439  15.722  0.00  0.00    +0.000 C 
ENDROOT
BRANCH   1   3
ATOM      2  O   UNL     1       4.202   3.051  17.582  0.00  0.00    +0.000 OA
ATOM      3  C   UNL     1       4.070   4.134  17.019  0.00  0.00    +0.000 C 
ATOM      4  N   UNL     1       3.190   5.104  17.445  0.00  0.00    +0.000 N 
ATOM      5  H   UNL     1       3.284   6.016  17.005  0.00  0.00    +0.000 HD
BRANCH   4   6
ATOM      6  C   UNL     1       2.414   5.064  18.670  0.00  0.00    +0.000 C 
ATOM      7  C   UNL     1       1.426   3.907  18.780  0.00  0.00    +0.000 C 
ATOM      8  C   UNL     1       1.058   3.893  20.258  0.00  0.00    +0.000 C 
ATOM      9  C   UNL     1       2.285   4.416  21.004  0.00  0.00    +0.000 C 
ATOM     10  C   UNL     1       3.239   4.976  19.951  0.00  0.00    +0.000 C 
ENDBRANCH   4   6
ENDBRANCH   1   3
BRANCH   1  11
ATOM     11  S   UNL     1       6.573   3.986  15.757  0.00  0.00    +0.000 S 
BRANCH  11  12
ATOM     12  C   UNL     1       7.120   5.113  17.011  0.00  0.00    +0.000 A 
ATOM     13  N   UNL     1       7.470   4.613  18.207  0.00  0.00    +0.000 NA
ATOM     14  C   UNL     1       7.941   5.498  19.103  0.00  0.00    +0.000 A 
ATOM     15  C   UNL     1       8.075   6.840  18.845  0.00  0.00    +0.000 A 
ATOM     16  C   UNL     1       7.673   7.231  17.593  0.00  0.00    +0.000 A 
ATOM     17  N   UNL     1       7.187   6.404  16.662  0.00  0.00    +0.000 NA
BRANCH  16  18
ATOM     18  O   UNL     1       7.757   8.536  17.201  0.00  0.00    +0.000 OA
ATOM     19  H   UNL     1       7.496   9.101  17.944  0.00  0.00    +0.000 HD
ENDBRANCH  16  18
ENDBRANCH  11  12
ENDBRANCH   1  11
TORSDOF 5
ENDMDL
