MODEL 1
REMARK VINA RESULT:      -8.2      0.000      0.000
REMARK  Name = 
REMARK  8 active torsions:
REMARK  status: ('A' for Active; 'I' for Inactive)
REMARK    1  A    between atoms: C_2  and  C_3
REMARK    2  A    between atoms: C_12  and  C_13
REMARK    3  A    between atoms: C_13  and  C_14
REMARK    4  A    between atoms: C_14  and  C_15
REMARK    5  A    between atoms: C_15  and  C_16
REMARK    6  A    between atoms: C_16  and  C_17
REMARK    7  A    between atoms: C_17  and  N_18
REMARK    8  A    between atoms: C_20  and  C_21
REMARK                            x       y       z     vdW  Elec       q    Type
REMARK                         _______ _______ _______ _____ _____    ______ ____
ROOT
ATOM      1  C   UNL     1       6.755   6.760  16.713  0.00  0.00    +0.000 C 
ENDROOT
BRANCH   1   7
ATOM      2  O   UNL     1       3.927   1.726  17.435  0.00  0.00    +0.000 OA
ATOM      3  C   UNL     1       3.922   2.754  18.107  0.00  0.00    +0.000 C 
ATOM      4  N   UNL     1       4.729   3.862  17.808  0.00  0.00    +0.000 N 
ATOM      5  C   UNL     1       4.716   5.162  18.485  0.00  0.00    +0.000 C 
ATOM      6  C   UNL     1       4.369   6.285  17.525  0.00  0.00    +0.000 C 
ATOM      7  C   UNL     1       5.326   6.319  16.333  0.00  0.00    +0.000 C 
ATOM      8  C   UNL     1       5.325   4.932  15.660  0.00  0.00    +0.000 C 
ATOM      9  C   UNL     1       5.615   3.791  16.644  0.00  0.00    +0.000 C 
BRANCH   3  10
ATOM     10  C   UNL     1       2.959   2.819  19.242  0.00  0.00    +0.000 A 
ATOM     11  C   UNL     1       3.316   2.473  20.550  0.00  0.00    +0.000 A 
ATOM     12  C   UNL     1       2.459   2.757  21.612  0.00  0.00    +0.000 A 
ATOM     13  C   UNL     1       1.183   3.252  21.357  0.00  0.00    +0.000 A 
ATOM     14  C   UNL     1       0.765   3.462  20.043  0.00  0.00    +0.000 A 
ATOM     15  C   UNL     1       1.655   3.261  18.986  0.00  0.00    +0.000 A 
ENDBRANCH   3  10
ENDBRANCH   1   7
BRANCH   1  16
ATOM     16  C   UNL     1       6.781   8.023  17.576  0.00  0.00    +0.000 C 
BRANCH  16  17
ATOM     17  C   UNL     1       8.210   8.433  17.920  0.00  0.00    +0.000 C 
BRANCH  17  18
ATOM     18  C   UNL     1       8.291   9.941  18.136  0.00  0.00    +0.000 C 
BRANCH  18  19
ATOM     19  C   UNL     1       9.573  10.320  18.866  0.00  0.00    +0.000 C 
BRANCH  19  20
ATOM     20  N   UNL     1      10.091  11.588  18.400  0.00  0.00    +0.000 N 
ATOM     21  C   UNL     1       9.546  12.817  18.577  0.00  0.00    +0.000 A 
ATOM     22  C   UNL     1      10.420  13.664  17.927  0.00  0.00    +0.000 A 
ATOM     23  N   UNL     1      11.437  12.916  17.386  0.00  0.00    +0.000 NA
ATOM     24  N   UNL     1      11.223  11.641  17.680  0.00  0.00    +0.000 NA
BRANCH  22  25
ATOM     25  C   UNL     1      10.314  15.100  17.814  0.00  0.00    +0.000 A 
ATOM     26  C   UNL     1       9.167  15.802  18.194  0.00  0.00    +0.000 A 
ATOM     27  C   UNL     1       9.123  17.190  18.062  0.00  0.00    +0.000 A 
ATOM     28  C   UNL     1      10.237  17.838  17.555  0.00  0.00    +0.000 A 
ATOM     29  N   UNL     1      11.366  17.202  17.181  0.00  0.00    +0.000 NA
ATOM     30  C   UNL     1      11.378  15.850  17.319  0.00  0.00    +0.000 A 
ENDBRANCH  22  25
ENDBRANCH  19  20
ENDBRANCH  18  19
ENDBRANCH  17  18
ENDBRANCH  16  17
ENDBRANCH   1  16
TORSDOF 8
ENDMDL
MODEL 2
REMARK VINA RESULT:      -8.2      1.118      1.372
REMARK  Name = 
REMARK  8 active torsions:
REMARK  status: ('A' for Active; 'I' for Inactive)
REMARK    1  A    between atoms: C_2  and  C_3
REMARK    2  A    between atoms: C_12  and  C_13
REMARK    3  A    between atoms: C_13  and  C_14
REMARK    4  A    between atoms: C_14  and  C_15
REMARK    5  A    between atoms: C_15  and  C_16
REMARK    6  A    between atoms: C_16  and  C_17
REMARK    7  A    between atoms: C_17  and  N_18
REMARK    8  A    between atoms: C_20  and  C_21
REMARK                            x       y       z     vdW  Elec       q    Type
REMARK                         _______ _______ _______ _____ _____    ______ ____
ROOT
ATOM      1  C   UNL     1       7.413   7.102  17.427  0.00  0.00    +0.000 C 
ENDROOT
BRANCH   1   7
ATOM      2  O   UNL     1       4.036   2.371  17.155  0.00  0.00    +0.000 OA
ATOM      3  C   UNL     1       4.118   3.251  18.008  0.00  0.00    +0.000 C 
ATOM      4  N   UNL     1       5.050   4.297  17.933  0.00  0.00    +0.000 N 
ATOM      5  C   UNL     1       5.154   5.443  18.840  0.00  0.00    +0.000 C 
ATOM      6  C   UNL     1       4.963   6.756  18.104  0.00  0.00    +0.000 C 
ATOM      7  C   UNL     1       5.959   6.902  16.952  0.00  0.00    +0.000 C 
ATOM      8  C   UNL     1       5.830   5.672  16.032  0.00  0.00    +0.000 C 
ATOM      9  C   UNL     1       5.963   4.344  16.788  0.00  0.00    +0.000 C 
BRANCH   3  10
ATOM     10  C   UNL     1       3.130   3.213  19.122  0.00  0.00    +0.000 A 
ATOM     11  C   UNL     1       3.399   2.585  20.343  0.00  0.00    +0.000 A 
ATOM     12  C   UNL     1       2.543   2.763  21.429  0.00  0.00    +0.000 A 
ATOM     13  C   UNL     1       1.342   3.444  21.259  0.00  0.00    +0.000 A 
ATOM     14  C   UNL     1       0.997   3.948  20.004  0.00  0.00    +0.000 A 
ATOM     15  C   UNL     1       1.895   3.847  18.939  0.00  0.00    +0.000 A 
ENDBRANCH   3  10
ENDBRANCH   1   7
BRANCH   1  16
ATOM     16  C   UNL     1       7.781   8.574  17.621  0.00  0.00    +0.000 C 
BRANCH  16  17
ATOM     17  C   UNL     1       8.655   8.770  18.856  0.00  0.00    +0.000 C 
BRANCH  17  18
ATOM     18  C   UNL     1       9.292  10.156  18.840  0.00  0.00    +0.000 C 
BRANCH  18  19
ATOM     19  C   UNL     1       8.613  11.059  17.819  0.00  0.00    +0.000 C 
BRANCH  19  20
ATOM     20  N   UNL     1       9.190  12.385  17.820  0.00  0.00    +0.000 N 
ATOM     21  C   UNL     1       8.606  13.540  18.229  0.00  0.00    +0.000 A 
ATOM     22  C   UNL     1       9.572  14.499  18.003  0.00  0.00    +0.000 A 
ATOM     23  N   UNL     1      10.681  13.888  17.468  0.00  0.00    +0.000 NA
ATOM     24  N   UNL     1      10.433  12.590  17.356  0.00  0.00    +0.000 NA
BRANCH  22  25
ATOM     25  C   UNL     1       9.469  15.913  18.272  0.00  0.00    +0.000 A 
ATOM     26  C   UNL     1      10.573  16.696  18.621  0.00  0.00    +0.000 A 
ATOM     27  C   UNL     1      10.411  18.060  18.869  0.00  0.00    +0.000 A 
ATOM     28  C   UNL     1       9.143  18.603  18.755  0.00  0.00    +0.000 A 
ATOM     29  N   UNL     1       8.051  17.887  18.415  0.00  0.00    +0.000 NA
ATOM     30  C   UNL     1       8.240  16.562  18.182  0.00  0.00    +0.000 A 
ENDBRANCH  22  25
ENDBRANCH  19  20
ENDBRANCH  18  19
ENDBRANCH  17  18
ENDBRANCH  16  17
ENDBRANCH   1  16
TORSDOF 8
ENDMDL
MODEL 3
REMARK VINA RESULT:      -7.9      1.387      1.761
REMARK  Name = 
REMARK  8 active torsions:
REMARK  status: ('A' for Active; 'I' for Inactive)
REMARK    1  A    between atoms: C_2  and  C_3
REMARK    2  A    between atoms: C_12  and  C_13
REMARK    3  A    between atoms: C_13  and  C_14
REMARK    4  A    between atoms: C_14  and  C_15
REMARK    5  A    between atoms: C_15  and  C_16
REMARK    6  A    between atoms: C_16  and  C_17
REMARK    7  A    between atoms: C_17  and  N_18
REMARK    8  A    between atoms: C_20  and  C_21
REMARK                            x       y       z     vdW  Elec       q    Type
REMARK                         _______ _______ _______ _____ _____    ______ ____
ROOT
ATOM      1  C   UNL     1       6.467   7.751  17.423  0.00  0.00    +0.000 C 
ENDROOT
BRANCH   1   7
ATOM      2  O   UNL     1       5.307   2.649  19.969  0.00  0.00    +0.000 OA
ATOM      3  C   UNL     1       4.557   3.536  19.569  0.00  0.00    +0.000 C 
ATOM      4  N   UNL     1       5.027   4.743  19.030  0.00  0.00    +0.000 N 
ATOM      5  C   UNL     1       4.218   5.810  18.435  0.00  0.00    +0.000 C 
ATOM      6  C   UNL     1       4.596   6.052  16.985  0.00  0.00    +0.000 C 
ATOM      7  C   UNL     1       6.084   6.375  16.840  0.00  0.00    +0.000 C 
ATOM      8  C   UNL     1       6.899   5.240  17.493  0.00  0.00    +0.000 C 
ATOM      9  C   UNL     1       6.473   4.955  18.939  0.00  0.00    +0.000 C 
BRANCH   3  10
ATOM     10  C   UNL     1       3.093   3.260  19.611  0.00  0.00    +0.000 A 
ATOM     11  C   UNL     1       2.267   3.746  20.631  0.00  0.00    +0.000 A 
ATOM     12  C   UNL     1       0.881   3.655  20.516  0.00  0.00    +0.000 A 
ATOM     13  C   UNL     1       0.320   2.948  19.458  0.00  0.00    +0.000 A 
ATOM     14  C   UNL     1       1.143   2.333  18.514  0.00  0.00    +0.000 A 
ATOM     15  C   UNL     1       2.528   2.500  18.580  0.00  0.00    +0.000 A 
ENDBRANCH   3  10
ENDBRANCH   1   7
BRANCH   1  16
ATOM     16  C   UNL     1       7.965   8.046  17.323  0.00  0.00    +0.000 C 
BRANCH  16  17
ATOM     17  C   UNL     1       8.493   8.684  18.604  0.00  0.00    +0.000 C 
BRANCH  17  18
ATOM     18  C   UNL     1       8.883  10.137  18.351  0.00  0.00    +0.000 C 
BRANCH  18  19
ATOM     19  C   UNL     1       9.561  10.742  19.573  0.00  0.00    +0.000 C 
BRANCH  19  20
ATOM     20  N   UNL     1       9.436  12.183  19.587  0.00  0.00    +0.000 N 
ATOM     21  C   UNL     1       9.907  13.061  18.666  0.00  0.00    +0.000 A 
ATOM     22  C   UNL     1       9.537  14.294  19.163  0.00  0.00    +0.000 A 
ATOM     23  N   UNL     1       8.873  14.108  20.351  0.00  0.00    +0.000 NA
ATOM     24  N   UNL     1       8.820  12.807  20.604  0.00  0.00    +0.000 NA
BRANCH  22  25
ATOM     25  C   UNL     1       9.788  15.582  18.561  0.00  0.00    +0.000 A 
ATOM     26  C   UNL     1       9.009  16.708  18.839  0.00  0.00    +0.000 A 
ATOM     27  C   UNL     1       9.301  17.928  18.228  0.00  0.00    +0.000 A 
ATOM     28  C   UNL     1      10.374  17.984  17.354  0.00  0.00    +0.000 A 
ATOM     29  N   UNL     1      11.155  16.925  17.060  0.00  0.00    +0.000 NA
ATOM     30  C   UNL     1      10.845  15.751  17.670  0.00  0.00    +0.000 A 
ENDBRANCH  22  25
ENDBRANCH  19  20
ENDBRANCH  18  19
ENDBRANCH  17  18
ENDBRANCH  16  17
ENDBRANCH   1  16
TORSDOF 8
ENDMDL
MODEL 4
REMARK VINA RESULT:      -7.9      1.456      1.732
REMARK  Name = 
REMARK  8 active torsions:
REMARK  status: ('A' for Active; 'I' for Inactive)
REMARK    1  A    between atoms: C_2  and  C_3
REMARK    2  A    between atoms: C_12  and  C_13
REMARK    3  A    between atoms: C_13  and  C_14
REMARK    4  A    between atoms: C_14  and  C_15
REMARK    5  A    between atoms: C_15  and  C_16
REMARK    6  A    between atoms: C_16  and  C_17
REMARK    7  A    between atoms: C_17  and  N_18
REMARK    8  A    between atoms: C_20  and  C_21
REMARK                            x       y       z     vdW  Elec       q    Type
REMARK                         _______ _______ _______ _____ _____    ______ ____
ROOT
ATOM      1  C   UNL     1       7.084   7.106  17.352  0.00  0.00    +0.000 C 
ENDROOT
BRANCH   1   7
ATOM      2  O   UNL     1       4.062   2.135  17.230  0.00  0.00    +0.000 OA
ATOM      3  C   UNL     1       4.054   3.060  18.038  0.00  0.00    +0.000 C 
ATOM      4  N   UNL     1       4.911   4.166  17.936  0.00  0.00    +0.000 N 
ATOM      5  C   UNL     1       4.905   5.360  18.786  0.00  0.00    +0.000 C 
ATOM      6  C   UNL     1       4.644   6.618  17.978  0.00  0.00    +0.000 C 
ATOM      7  C   UNL     1       5.663   6.779  16.848  0.00  0.00    +0.000 C 
ATOM      8  C   UNL     1       5.651   5.498  15.989  0.00  0.00    +0.000 C 
ATOM      9  C   UNL     1       5.854   4.222  16.816  0.00  0.00    +0.000 C 
BRANCH   3  10
ATOM     10  C   UNL     1       3.036   3.005  19.126  0.00  0.00    +0.000 A 
ATOM     11  C   UNL     1       3.352   2.612  20.431  0.00  0.00    +0.000 A 
ATOM     12  C   UNL     1       2.430   2.786  21.461  0.00  0.00    +0.000 A 
ATOM     13  C   UNL     1       1.139   3.215  21.167  0.00  0.00    +0.000 A 
ATOM     14  C   UNL     1       0.771   3.470  19.846  0.00  0.00    +0.000 A 
ATOM     15  C   UNL     1       1.721   3.381  18.826  0.00  0.00    +0.000 A 
ENDBRANCH   3  10
ENDBRANCH   1   7
BRANCH   1  16
ATOM     16  C   UNL     1       7.289   8.596  17.635  0.00  0.00    +0.000 C 
BRANCH  16  17
ATOM     17  C   UNL     1       8.654   8.860  18.262  0.00  0.00    +0.000 C 
BRANCH  17  18
ATOM     18  C   UNL     1       8.747  10.306  18.741  0.00  0.00    +0.000 C 
BRANCH  18  19
ATOM     19  C   UNL     1       9.906  11.031  18.071  0.00  0.00    +0.000 C 
BRANCH  19  20
ATOM     20  N   UNL     1       9.750  12.466  18.153  0.00  0.00    +0.000 N 
ATOM     21  C   UNL     1       8.879  13.159  18.930  0.00  0.00    +0.000 A 
ATOM     22  C   UNL     1       9.131  14.479  18.615  0.00  0.00    +0.000 A 
ATOM     23  N   UNL     1      10.125  14.523  17.668  0.00  0.00    +0.000 NA
ATOM     24  N   UNL     1      10.496  13.281  17.389  0.00  0.00    +0.000 NA
BRANCH  22  25
ATOM     25  C   UNL     1       8.477  15.641  19.168  0.00  0.00    +0.000 A 
ATOM     26  C   UNL     1       8.438  15.902  20.540  0.00  0.00    +0.000 A 
ATOM     27  C   UNL     1       7.792  17.044  21.015  0.00  0.00    +0.000 A 
ATOM     28  C   UNL     1       7.205  17.897  20.097  0.00  0.00    +0.000 A 
ATOM     29  N   UNL     1       7.222  17.688  18.764  0.00  0.00    +0.000 NA
ATOM     30  C   UNL     1       7.857  16.567  18.332  0.00  0.00    +0.000 A 
ENDBRANCH  22  25
ENDBRANCH  19  20
ENDBRANCH  18  19
ENDBRANCH  17  18
ENDBRANCH  16  17
ENDBRANCH   1  16
TORSDOF 8
ENDMDL
MODEL 5
REMARK VINA RESULT:      -7.8      7.029     10.821
REMARK  Name = 
REMARK  8 active torsions:
REMARK  status: ('A' for Active; 'I' for Inactive)
REMARK    1  A    between atoms: C_2  and  C_3
REMARK    2  A    between atoms: C_12  and  C_13
REMARK    3  A    between atoms: C_13  and  C_14
REMARK    4  A    between atoms: C_14  and  C_15
REMARK    5  A    between atoms: C_15  and  C_16
REMARK    6  A    between atoms: C_16  and  C_17
REMARK    7  A    between atoms: C_17  and  N_18
REMARK    8  A    between atoms: C_20  and  C_21
REMARK                            x       y       z     vdW  Elec       q    Type
REMARK                         _______ _______ _______ _____ _____    ______ ____
ROOT
ATOM      1  C   UNL     1       0.842   7.144  20.948  0.00  0.00    +0.000 C 
ENDROOT
BRANCH   1   7
ATOM      2  O   UNL     1      -1.183  12.466  19.750  0.00  0.00    +0.000 OA
ATOM      3  C   UNL     1      -1.125  11.849  20.810  0.00  0.00    +0.000 C 
ATOM      4  N   UNL     1      -0.654  10.530  20.897  0.00  0.00    +0.000 N 
ATOM      5  C   UNL     1      -0.451   9.752  22.122  0.00  0.00    +0.000 C 
ATOM      6  C   UNL     1       0.998   9.330  22.280  0.00  0.00    +0.000 C 
ATOM      7  C   UNL     1       1.487   8.540  21.065  0.00  0.00    +0.000 C 
ATOM      8  C   UNL     1       1.240   9.383  19.798  0.00  0.00    +0.000 C 
ATOM      9  C   UNL     1      -0.212   9.860  19.672  0.00  0.00    +0.000 C 
BRANCH   3  10
ATOM     10  C   UNL     1      -1.517  12.582  22.047  0.00  0.00    +0.000 A 
ATOM     11  C   UNL     1      -0.660  13.481  22.690  0.00  0.00    +0.000 A 
ATOM     12  C   UNL     1      -1.139  14.306  23.706  0.00  0.00    +0.000 A 
ATOM     13  C   UNL     1      -2.435  14.134  24.183  0.00  0.00    +0.000 A 
ATOM     14  C   UNL     1      -3.250  13.137  23.645  0.00  0.00    +0.000 A 
ATOM     15  C   UNL     1      -2.799  12.371  22.567  0.00  0.00    +0.000 A 
ENDBRANCH   3  10
ENDBRANCH   1   7
BRANCH   1  16
ATOM     16  C   UNL     1       1.863   6.033  20.695  0.00  0.00    +0.000 C 
BRANCH  16  17
ATOM     17  C   UNL     1       1.194   4.662  20.656  0.00  0.00    +0.000 C 
BRANCH  17  18
ATOM     18  C   UNL     1       2.164   3.585  21.132  0.00  0.00    +0.000 C 
BRANCH  18  19
ATOM     19  C   UNL     1       2.229   2.429  20.142  0.00  0.00    +0.000 C 
BRANCH  19  20
ATOM     20  N   UNL     1       2.767   2.854  18.869  0.00  0.00    +0.000 N 
ATOM     21  C   UNL     1       4.038   3.243  18.599  0.00  0.00    +0.000 A 
ATOM     22  C   UNL     1       4.011   3.556  17.255  0.00  0.00    +0.000 A 
ATOM     23  N   UNL     1       2.738   3.351  16.781  0.00  0.00    +0.000 NA
ATOM     24  N   UNL     1       1.981   2.923  17.783  0.00  0.00    +0.000 NA
BRANCH  22  25
ATOM     25  C   UNL     1       5.115   4.024  16.451  0.00  0.00    +0.000 A 
ATOM     26  C   UNL     1       5.105   3.974  15.055  0.00  0.00    +0.000 A 
ATOM     27  C   UNL     1       6.203   4.442  14.331  0.00  0.00    +0.000 A 
ATOM     28  C   UNL     1       7.282   4.952  15.032  0.00  0.00    +0.000 A 
ATOM     29  N   UNL     1       7.334   5.024  16.378  0.00  0.00    +0.000 NA
ATOM     30  C   UNL     1       6.251   4.559  17.054  0.00  0.00    +0.000 A 
ENDBRANCH  22  25
ENDBRANCH  19  20
ENDBRANCH  18  19
ENDBRANCH  17  18
ENDBRANCH  16  17
ENDBRANCH   1  16
TORSDOF 8
ENDMDL
MODEL 6
REMARK VINA RESULT:      -7.7      1.356      1.753
REMARK  Name = 
REMARK  8 active torsions:
REMARK  status: ('A' for Active; 'I' for Inactive)
REMARK    1  A    between atoms: C_2  and  C_3
REMARK    2  A    between atoms: C_12  and  C_13
REMARK    3  A    between atoms: C_13  and  C_14
REMARK    4  A    between atoms: C_14  and  C_15
REMARK    5  A    between atoms: C_15  and  C_16
REMARK    6  A    between atoms: C_16  and  C_17
REMARK    7  A    between atoms: C_17  and  N_18
REMARK    8  A    between atoms: C_20  and  C_21
REMARK                            x       y       z     vdW  Elec       q    Type
REMARK                         _______ _______ _______ _____ _____    ______ ____
ROOT
ATOM      1  C   UNL     1       6.702   8.020  17.453  0.00  0.00    +0.000 C 
ENDROOT
BRANCH   1   7
ATOM      2  O   UNL     1       5.270   2.941  19.905  0.00  0.00    +0.000 OA
ATOM      3  C   UNL     1       4.567   3.837  19.444  0.00  0.00    +0.000 C 
ATOM      4  N   UNL     1       5.096   5.036  18.943  0.00  0.00    +0.000 N 
ATOM      5  C   UNL     1       4.352   6.111  18.282  0.00  0.00    +0.000 C 
ATOM      6  C   UNL     1       4.850   6.344  16.867  0.00  0.00    +0.000 C 
ATOM      7  C   UNL     1       6.349   6.647  16.844  0.00  0.00    +0.000 C 
ATOM      8  C   UNL     1       7.093   5.504  17.563  0.00  0.00    +0.000 C 
ATOM      9  C   UNL     1       6.547   5.229  18.970  0.00  0.00    +0.000 C 
BRANCH   3  10
ATOM     10  C   UNL     1       3.101   3.580  19.368  0.00  0.00    +0.000 A 
ATOM     11  C   UNL     1       2.514   2.892  18.300  0.00  0.00    +0.000 A 
ATOM     12  C   UNL     1       1.184   2.482  18.375  0.00  0.00    +0.000 A 
ATOM     13  C   UNL     1       0.395   2.884  19.448  0.00  0.00    +0.000 A 
ATOM     14  C   UNL     1       0.936   3.696  20.446  0.00  0.00    +0.000 A 
ATOM     15  C   UNL     1       2.291   4.032  20.416  0.00  0.00    +0.000 A 
ENDBRANCH   3  10
ENDBRANCH   1   7
BRANCH   1  16
ATOM     16  C   UNL     1       8.205   8.208  17.672  0.00  0.00    +0.000 C 
BRANCH  16  17
ATOM     17  C   UNL     1       8.483   9.251  18.749  0.00  0.00    +0.000 C 
BRANCH  17  18
ATOM     18  C   UNL     1       9.198  10.458  18.148  0.00  0.00    +0.000 C 
BRANCH  18  19
ATOM     19  C   UNL     1      10.406  10.852  18.986  0.00  0.00    +0.000 C 
BRANCH  19  20
ATOM     20  N   UNL     1      10.558  12.289  19.050  0.00  0.00    +0.000 N 
ATOM     21  C   UNL     1       9.693  13.232  18.601  0.00  0.00    +0.000 A 
ATOM     22  C   UNL     1      10.322  14.425  18.890  0.00  0.00    +0.000 A 
ATOM     23  N   UNL     1      11.529  14.153  19.487  0.00  0.00    +0.000 NA
ATOM     24  N   UNL     1      11.665  12.837  19.577  0.00  0.00    +0.000 NA
BRANCH  22  25
ATOM     25  C   UNL     1       9.825  15.754  18.623  0.00  0.00    +0.000 A 
ATOM     26  C   UNL     1       8.499  16.124  18.863  0.00  0.00    +0.000 A 
ATOM     27  C   UNL     1       8.077  17.425  18.586  0.00  0.00    +0.000 A 
ATOM     28  C   UNL     1       9.001  18.322  18.079  0.00  0.00    +0.000 A 
ATOM     29  N   UNL     1      10.290  18.011  17.837  0.00  0.00    +0.000 NA
ATOM     30  C   UNL     1      10.671  16.736  18.114  0.00  0.00    +0.000 A 
ENDBRANCH  22  25
ENDBRANCH  19  20
ENDBRANCH  18  19
ENDBRANCH  17  18
ENDBRANCH  16  17
ENDBRANCH   1  16
TORSDOF 8
ENDMDL
MODEL 7
REMARK VINA RESULT:      -7.7      3.441     12.546
REMARK  Name = 
REMARK  8 active torsions:
REMARK  status: ('A' for Active; 'I' for Inactive)
REMARK    1  A    between atoms: C_2  and  C_3
REMARK    2  A    between atoms: C_12  and  C_13
REMARK    3  A    between atoms: C_13  and  C_14
REMARK    4  A    between atoms: C_14  and  C_15
REMARK    5  A    between atoms: C_15  and  C_16
REMARK    6  A    between atoms: C_16  and  C_17
REMARK    7  A    between atoms: C_17  and  N_18
REMARK    8  A    between atoms: C_20  and  C_21
REMARK                            x       y       z     vdW  Elec       q    Type
REMARK                         _______ _______ _______ _____ _____    ______ ____
ROOT
ATOM      1  C   UNL     1       9.596  10.761  18.096  0.00  0.00    +0.000 C 
ENDROOT
BRANCH   1   7
ATOM      2  O   UNL     1      12.323  15.848  17.358  0.00  0.00    +0.000 OA
ATOM      3  C   UNL     1      11.236  15.586  17.866  0.00  0.00    +0.000 C 
ATOM      4  N   UNL     1      10.706  14.288  17.899  0.00  0.00    +0.000 N 
ATOM      5  C   UNL     1       9.474  13.862  18.569  0.00  0.00    +0.000 C 
ATOM      6  C   UNL     1       9.752  12.812  19.629  0.00  0.00    +0.000 C 
ATOM      7  C   UNL     1      10.479  11.601  19.042  0.00  0.00    +0.000 C 
ATOM      8  C   UNL     1      11.757  12.092  18.332  0.00  0.00    +0.000 C 
ATOM      9  C   UNL     1      11.482  13.197  17.304  0.00  0.00    +0.000 C 
BRANCH   3  10
ATOM     10  C   UNL     1      10.504  16.706  18.523  0.00  0.00    +0.000 A 
ATOM     11  C   UNL     1       9.156  16.976  18.264  0.00  0.00    +0.000 A 
ATOM     12  C   UNL     1       8.455  17.882  19.058  0.00  0.00    +0.000 A 
ATOM     13  C   UNL     1       9.133  18.631  20.015  0.00  0.00    +0.000 A 
ATOM     14  C   UNL     1      10.510  18.473  20.179  0.00  0.00    +0.000 A 
ATOM     15  C   UNL     1      11.194  17.501  19.446  0.00  0.00    +0.000 A 
ENDBRANCH   3  10
ENDBRANCH   1   7
BRANCH   1  16
ATOM     16  C   UNL     1       8.788   9.688  18.829  0.00  0.00    +0.000 C 
BRANCH  16  17
ATOM     17  C   UNL     1       8.000   8.821  17.852  0.00  0.00    +0.000 C 
BRANCH  17  18
ATOM     18  C   UNL     1       8.165   7.345  18.201  0.00  0.00    +0.000 C 
BRANCH  18  19
ATOM     19  C   UNL     1       7.257   6.475  17.342  0.00  0.00    +0.000 C 
BRANCH  19  20
ATOM     20  N   UNL     1       6.317   5.732  18.153  0.00  0.00    +0.000 N 
ATOM     21  C   UNL     1       5.060   5.349  17.817  0.00  0.00    +0.000 A 
ATOM     22  C   UNL     1       4.600   4.695  18.942  0.00  0.00    +0.000 A 
ATOM     23  N   UNL     1       5.587   4.718  19.898  0.00  0.00    +0.000 NA
ATOM     24  N   UNL     1       6.636   5.362  19.403  0.00  0.00    +0.000 NA
BRANCH  22  25
ATOM     25  C   UNL     1       3.307   4.078  19.118  0.00  0.00    +0.000 A 
ATOM     26  C   UNL     1       2.403   3.909  18.065  0.00  0.00    +0.000 A 
ATOM     27  C   UNL     1       1.168   3.304  18.297  0.00  0.00    +0.000 A 
ATOM     28  C   UNL     1       0.873   2.882  19.582  0.00  0.00    +0.000 A 
ATOM     29  N   UNL     1       1.715   3.020  20.626  0.00  0.00    +0.000 NA
ATOM     30  C   UNL     1       2.910   3.614  20.370  0.00  0.00    +0.000 A 
ENDBRANCH  22  25
ENDBRANCH  19  20
ENDBRANCH  18  19
ENDBRANCH  17  18
ENDBRANCH  16  17
ENDBRANCH   1  16
TORSDOF 8
ENDMDL
MODEL 8
REMARK VINA RESULT:      -7.7      3.026      3.758
REMARK  Name = 
REMARK  8 active torsions:
REMARK  status: ('A' for Active; 'I' for Inactive)
REMARK    1  A    between atoms: C_2  and  C_3
REMARK    2  A    between atoms: C_12  and  C_13
REMARK    3  A    between atoms: C_13  and  C_14
REMARK    4  A    between atoms: C_14  and  C_15
REMARK    5  A    between atoms: C_15  and  C_16
REMARK    6  A    between atoms: C_16  and  C_17
REMARK    7  A    between atoms: C_17  and  N_18
REMARK    8  A    between atoms: C_20  and  C_21
REMARK                            x       y       z     vdW  Elec       q    Type
REMARK                         _______ _______ _______ _____ _____    ______ ____
ROOT
ATOM      1  C   UNL     1       7.355   6.418  17.277  0.00  0.00    +0.000 C 
ENDROOT
BRANCH   1   7
ATOM      2  O   UNL     1       3.339   2.218  16.994  0.00  0.00    +0.000 OA
ATOM      3  C   UNL     1       3.655   2.966  17.915  0.00  0.00    +0.000 C 
ATOM      4  N   UNL     1       4.707   3.889  17.818  0.00  0.00    +0.000 N 
ATOM      5  C   UNL     1       5.089   4.890  18.818  0.00  0.00    +0.000 C 
ATOM      6  C   UNL     1       4.990   6.299  18.262  0.00  0.00    +0.000 C 
ATOM      7  C   UNL     1       5.839   6.463  17.000  0.00  0.00    +0.000 C 
ATOM      8  C   UNL     1       5.420   5.383  15.982  0.00  0.00    +0.000 C 
ATOM      9  C   UNL     1       5.461   3.965  16.564  0.00  0.00    +0.000 C 
BRANCH   3  10
ATOM     10  C   UNL     1       2.824   2.912  19.151  0.00  0.00    +0.000 A 
ATOM     11  C   UNL     1       3.346   2.523  20.390  0.00  0.00    +0.000 A 
ATOM     12  C   UNL     1       2.599   2.698  21.554  0.00  0.00    +0.000 A 
ATOM     13  C   UNL     1       1.277   3.123  21.470  0.00  0.00    +0.000 A 
ATOM     14  C   UNL     1       0.702   3.373  20.223  0.00  0.00    +0.000 A 
ATOM     15  C   UNL     1       1.477   3.283  19.065  0.00  0.00    +0.000 A 
ENDBRANCH   3  10
ENDBRANCH   1   7
BRANCH   1  16
ATOM     16  C   UNL     1       7.832   7.558  18.180  0.00  0.00    +0.000 C 
BRANCH  16  17
ATOM     17  C   UNL     1       8.255   8.775  17.363  0.00  0.00    +0.000 C 
BRANCH  17  18
ATOM     18  C   UNL     1       8.209  10.033  18.224  0.00  0.00    +0.000 C 
BRANCH  18  19
ATOM     19  C   UNL     1       9.407  10.099  19.162  0.00  0.00    +0.000 C 
BRANCH  19  20
ATOM     20  N   UNL     1       9.291  11.203  20.089  0.00  0.00    +0.000 N 
ATOM     21  C   UNL     1       8.970  11.145  21.406  0.00  0.00    +0.000 A 
ATOM     22  C   UNL     1       8.982  12.465  21.809  0.00  0.00    +0.000 A 
ATOM     23  N   UNL     1       9.300  13.252  20.729  0.00  0.00    +0.000 NA
ATOM     24  N   UNL     1       9.484  12.466  19.677  0.00  0.00    +0.000 NA
BRANCH  22  25
ATOM     25  C   UNL     1       8.711  12.968  23.135  0.00  0.00    +0.000 A 
ATOM     26  C   UNL     1       8.448  12.129  24.221  0.00  0.00    +0.000 A 
ATOM     27  C   UNL     1       8.195  12.675  25.479  0.00  0.00    +0.000 A 
ATOM     28  C   UNL     1       8.216  14.052  25.615  0.00  0.00    +0.000 A 
ATOM     29  N   UNL     1       8.470  14.900  24.597  0.00  0.00    +0.000 NA
ATOM     30  C   UNL     1       8.711  14.339  23.384  0.00  0.00    +0.000 A 
ENDBRANCH  22  25
ENDBRANCH  19  20
ENDBRANCH  18  19
ENDBRANCH  17  18
ENDBRANCH  16  17
ENDBRANCH   1  16
TORSDOF 8
ENDMDL
MODEL 9
REMARK VINA RESULT:      -7.7      3.137     12.452
REMARK  Name = 
REMARK  8 active torsions:
REMARK  status: ('A' for Active; 'I' for Inactive)
REMARK    1  A    between atoms: C_2  and  C_3
REMARK    2  A    between atoms: C_12  and  C_13
REMARK    3  A    between atoms: C_13  and  C_14
REMARK    4  A    between atoms: C_14  and  C_15
REMARK    5  A    between atoms: C_15  and  C_16
REMARK    6  A    between atoms: C_16  and  C_17
REMARK    7  A    between atoms: C_17  and  N_18
REMARK    8  A    between atoms: C_20  and  C_21
REMARK                            x       y       z     vdW  Elec       q    Type
REMARK                         _______ _______ _______ _____ _____    ______ ____
ROOT
ATOM      1  C   UNL     1       8.584  10.344  18.704  0.00  0.00    +0.000 C 
ENDROOT
BRANCH   1   7
ATOM      2  O   UNL     1      12.321  14.471  17.012  0.00  0.00    +0.000 OA
ATOM      3  C   UNL     1      11.256  14.551  17.618  0.00  0.00    +0.000 C 
ATOM      4  N   UNL     1      10.448  13.436  17.887  0.00  0.00    +0.000 N 
ATOM      5  C   UNL     1       9.221  13.417  18.688  0.00  0.00    +0.000 C 
ATOM      6  C   UNL     1       9.350  12.489  19.883  0.00  0.00    +0.000 C 
ATOM      7  C   UNL     1       9.722  11.070  19.451  0.00  0.00    +0.000 C 
ATOM      8  C   UNL     1      11.005  11.135  18.598  0.00  0.00    +0.000 C 
ATOM      9  C   UNL     1      10.893  12.119  17.427  0.00  0.00    +0.000 C 
BRANCH   3  10
ATOM     10  C   UNL     1      10.866  15.895  18.133  0.00  0.00    +0.000 A 
ATOM     11  C   UNL     1      10.087  16.787  17.388  0.00  0.00    +0.000 A 
ATOM     12  C   UNL     1       9.562  17.931  17.986  0.00  0.00    +0.000 A 
ATOM     13  C   UNL     1       9.933  18.264  19.285  0.00  0.00    +0.000 A 
ATOM     14  C   UNL     1      10.828  17.455  19.985  0.00  0.00    +0.000 A 
ATOM     15  C   UNL     1      11.283  16.262  19.417  0.00  0.00    +0.000 A 
ENDBRANCH   3  10
ENDBRANCH   1   7
BRANCH   1  16
ATOM     16  C   UNL     1       8.828   8.840  18.559  0.00  0.00    +0.000 C 
BRANCH  16  17
ATOM     17  C   UNL     1       7.940   8.235  17.476  0.00  0.00    +0.000 C 
BRANCH  17  18
ATOM     18  C   UNL     1       7.058   7.139  18.066  0.00  0.00    +0.000 C 
BRANCH  18  19
ATOM     19  C   UNL     1       6.736   6.075  17.024  0.00  0.00    +0.000 C 
BRANCH  19  20
ATOM     20  N   UNL     1       5.726   5.157  17.501  0.00  0.00    +0.000 N 
ATOM     21  C   UNL     1       5.024   5.231  18.659  0.00  0.00    +0.000 A 
ATOM     22  C   UNL     1       4.217   4.112  18.630  0.00  0.00    +0.000 A 
ATOM     23  N   UNL     1       4.470   3.417  17.473  0.00  0.00    +0.000 NA
ATOM     24  N   UNL     1       5.401   4.067  16.788  0.00  0.00    +0.000 NA
BRANCH  22  25
ATOM     25  C   UNL     1       3.257   3.709  19.631  0.00  0.00    +0.000 A 
ATOM     26  C   UNL     1       1.927   4.136  19.614  0.00  0.00    +0.000 A 
ATOM     27  C   UNL     1       1.045   3.711  20.608  0.00  0.00    +0.000 A 
ATOM     28  C   UNL     1       1.524   2.865  21.594  0.00  0.00    +0.000 A 
ATOM     29  N   UNL     1       2.797   2.425  21.648  0.00  0.00    +0.000 NA
ATOM     30  C   UNL     1       3.633   2.856  20.667  0.00  0.00    +0.000 A 
ENDBRANCH  22  25
ENDBRANCH  19  20
ENDBRANCH  18  19
ENDBRANCH  17  18
ENDBRANCH  16  17
ENDBRANCH   1  16
TORSDOF 8
ENDMDL
