MODEL 1
REMARK VINA RESULT:      -7.6      0.000      0.000
REMARK  Name = 
REMARK  18 active torsions:
REMARK  status: ('A' for Active; 'I' for Inactive)
REMARK    1  A    between atoms: C_1  and  C_2
REMARK    2  A    between atoms: C_2  and  C_3
REMARK    3  A    between atoms: C_3  and  C_4
REMARK    4  A    between atoms: C_4  and  C_5
REMARK    5  A    between atoms: C_5  and  N_6
REMARK    6  A    between atoms: N_6  and  C_7
REMARK    7  A    between atoms: C_7  and  C_8
REMARK    8  A    between atoms: C_8  and  C_9
REMARK    9  A    between atoms: C_9  and  C_10
REMARK   10  A    between atoms: C_10  and  C_11
REMARK   11  A    between atoms: C_12  and  C_14
REMARK   12  A    between atoms: C_14  and  C_15
REMARK   13  A    between atoms: C_14  and  N_24
REMARK   14  A    between atoms: C_15  and  C_16
REMARK   15  A    between atoms: C_16  and  C_17
REMARK   16  A    between atoms: N_27  and  C_28
REMARK   17  A    between atoms: C_32  and  O_33
REMARK   18  A    between atoms: O_33  and  C_34
REMARK                            x       y       z     vdW  Elec       q    Type
REMARK                         _______ _______ _______ _____ _____    ______ ____
ROOT
ATOM      1  C   UNL     1       4.261   4.417  18.250  0.00  0.00    +0.000 C 
ENDROOT
BRANCH   1   2
ATOM      2  N   UNL     1       3.217   5.439  17.989  0.00  0.00    +0.000 N 
ATOM      3  C   UNL     1       2.817   6.252  19.022  0.00  0.00    +0.000 C 
ATOM      4  O   UNL     1       3.209   6.048  20.169  0.00  0.00    +0.000 OA
ATOM      5  N   UNL     1       1.920   7.238  18.659  0.00  0.00    +0.000 N 
ATOM      6  H   UNL     1       3.160   5.789  17.046  0.00  0.00    +0.000 HD
ATOM      7  H   UNL     1       1.375   7.076  17.829  0.00  0.00    +0.000 HD
BRANCH   5   8
ATOM      8  C   UNL     1       1.500   8.279  19.545  0.00  0.00    +0.000 A 
ATOM      9  C   UNL     1       1.342   8.046  20.917  0.00  0.00    +0.000 A 
ATOM     10  C   UNL     1       0.895   9.045  21.781  0.00  0.00    +0.000 A 
ATOM     11  C   UNL     1       0.602  10.304  21.277  0.00  0.00    +0.000 A 
ATOM     12  C   UNL     1       0.763  10.576  19.918  0.00  0.00    +0.000 A 
ATOM     13  C   UNL     1       1.242   9.563  19.053  0.00  0.00    +0.000 A 
BRANCH  12  14
ATOM     14  O   UNL     1       0.413  11.850  19.572  0.00  0.00    +0.000 OA
ATOM     15  C   UNL     1      -0.786  12.382  20.109  0.00  0.00    +0.000 C 
ENDBRANCH  12  14
ENDBRANCH   5   8
ENDBRANCH   1   2
BRANCH   1  17
ATOM     16  N   UNL     1       6.213   5.591  17.095  0.00  0.00    +0.000 N 
ATOM     17  C   UNL     1       5.687   5.021  18.291  0.00  0.00    +0.000 C 
ATOM     18  O   UNL     1       6.328   5.003  19.344  0.00  0.00    +0.000 OA
BRANCH  16  19
ATOM     19  C   UNL     1       7.575   6.149  17.192  0.00  0.00    +0.000 C 
BRANCH  19  20
ATOM     20  C   UNL     1       7.649   7.674  17.386  0.00  0.00    +0.000 C 
BRANCH  20  21
ATOM     21  C   UNL     1       8.478   8.211  18.556  0.00  0.00    +0.000 C 
BRANCH  21  23
ATOM     22  C   UNL     1       9.354  10.452  19.475  0.00  0.00    +0.000 C 
ATOM     23  C   UNL     1       8.683   9.721  18.326  0.00  0.00    +0.000 C 
ENDBRANCH  21  23
ENDBRANCH  20  21
ENDBRANCH  19  20
ENDBRANCH  16  19
BRANCH  16  24
ATOM     24  C   UNL     1       5.342   6.117  16.011  0.00  0.00    +0.000 C 
BRANCH  24  25
ATOM     25  C   UNL     1       5.723   5.720  14.583  0.00  0.00    +0.000 C 
BRANCH  25  26
ATOM     26  C   UNL     1       5.265   4.287  14.204  0.00  0.00    +0.000 C 
BRANCH  26  27
ATOM     27  C   UNL     1       6.403   3.573  13.470  0.00  0.00    +0.000 C 
ATOM     28  C   UNL     1       6.912   4.300  12.232  0.00  0.00    +0.000 C 
ENDBRANCH  26  27
ENDBRANCH  25  26
ENDBRANCH  24  25
ENDBRANCH  16  24
ENDBRANCH   1  17
BRANCH   1  29
ATOM     29  C   UNL     1       4.125   3.274  17.235  0.00  0.00    +0.000 C 
BRANCH  29  30
ATOM     30  C   UNL     1       3.942   1.930  17.953  0.00  0.00    +0.000 C 
BRANCH  30  31
ATOM     31  C   UNL     1       3.961   2.078  19.462  0.00  0.00    +0.000 C 
ATOM     32  O   UNL     1       4.997   1.952  20.114  0.00  0.00    +0.000 OA
ATOM     33  N   UNL     1       2.758   2.384  20.057  0.00  0.00    +0.000 N 
ATOM     34  C   UNL     1       1.464   2.540  19.419  0.00  0.00    +0.000 C 
ATOM     35  C   UNL     1       0.720   3.461  20.370  0.00  0.00    +0.000 C 
ATOM     36  C   UNL     1       1.231   3.041  21.746  0.00  0.00    +0.000 C 
ATOM     37  C   UNL     1       2.650   2.538  21.495  0.00  0.00    +0.000 C 
ENDBRANCH  30  31
ENDBRANCH  29  30
ENDBRANCH   1  29
TORSDOF 15
ENDMDL
MODEL 2
REMARK VINA RESULT:      -7.4      1.505      1.916
REMARK  Name = 
REMARK  18 active torsions:
REMARK  status: ('A' for Active; 'I' for Inactive)
REMARK    1  A    between atoms: C_1  and  C_2
REMARK    2  A    between atoms: C_2  and  C_3
REMARK    3  A    between atoms: C_3  and  C_4
REMARK    4  A    between atoms: C_4  and  C_5
REMARK    5  A    between atoms: C_5  and  N_6
REMARK    6  A    between atoms: N_6  and  C_7
REMARK    7  A    between atoms: C_7  and  C_8
REMARK    8  A    between atoms: C_8  and  C_9
REMARK    9  A    between atoms: C_9  and  C_10
REMARK   10  A    between atoms: C_10  and  C_11
REMARK   11  A    between atoms: C_12  and  C_14
REMARK   12  A    between atoms: C_14  and  C_15
REMARK   13  A    between atoms: C_14  and  N_24
REMARK   14  A    between atoms: C_15  and  C_16
REMARK   15  A    between atoms: C_16  and  C_17
REMARK   16  A    between atoms: N_27  and  C_28
REMARK   17  A    between atoms: C_32  and  O_33
REMARK   18  A    between atoms: O_33  and  C_34
REMARK                            x       y       z     vdW  Elec       q    Type
REMARK                         _______ _______ _______ _____ _____    ______ ____
ROOT
ATOM      1  C   UNL     1       3.857   5.340  17.858  0.00  0.00    +0.000 C 
ENDROOT
BRANCH   1   2
ATOM      2  N   UNL     1       3.373   6.636  17.319  0.00  0.00    +0.000 N 
ATOM      3  C   UNL     1       2.635   7.456  18.136  0.00  0.00    +0.000 C 
ATOM      4  O   UNL     1       2.260   7.069  19.241  0.00  0.00    +0.000 OA
ATOM      5  N   UNL     1       2.319   8.682  17.583  0.00  0.00    +0.000 N 
ATOM      6  H   UNL     1       3.930   7.052  16.589  0.00  0.00    +0.000 HD
ATOM      7  H   UNL     1       2.318   8.742  16.578  0.00  0.00    +0.000 HD
BRANCH   5   8
ATOM      8  C   UNL     1       1.693   9.737  18.319  0.00  0.00    +0.000 A 
ATOM      9  C   UNL     1       0.579   9.493  19.132  0.00  0.00    +0.000 A 
ATOM     10  C   UNL     1      -0.061  10.521  19.821  0.00  0.00    +0.000 A 
ATOM     11  C   UNL     1       0.413  11.820  19.707  0.00  0.00    +0.000 A 
ATOM     12  C   UNL     1       1.531  12.097  18.918  0.00  0.00    +0.000 A 
ATOM     13  C   UNL     1       2.190  11.042  18.243  0.00  0.00    +0.000 A 
BRANCH  12  14
ATOM     14  O   UNL     1       1.862  13.422  18.888  0.00  0.00    +0.000 OA
ATOM     15  C   UNL     1       0.811  14.372  18.866  0.00  0.00    +0.000 C 
ENDBRANCH  12  14
ENDBRANCH   5   8
ENDBRANCH   1   2
BRANCH   1  17
ATOM     16  N   UNL     1       6.389   5.291  17.528  0.00  0.00    +0.000 N 
ATOM     17  C   UNL     1       5.293   5.434  18.429  0.00  0.00    +0.000 C 
ATOM     18  O   UNL     1       5.460   5.632  19.634  0.00  0.00    +0.000 OA
BRANCH  16  19
ATOM     19  C   UNL     1       7.733   5.386  18.128  0.00  0.00    +0.000 C 
BRANCH  19  20
ATOM     20  C   UNL     1       8.073   6.743  18.769  0.00  0.00    +0.000 C 
BRANCH  20  21
ATOM     21  C   UNL     1       8.029   7.990  17.881  0.00  0.00    +0.000 C 
BRANCH  21  23
ATOM     22  C   UNL     1       8.591  10.500  18.018  0.00  0.00    +0.000 C 
ATOM     23  C   UNL     1       8.758   9.121  18.632  0.00  0.00    +0.000 C 
ENDBRANCH  21  23
ENDBRANCH  20  21
ENDBRANCH  19  20
ENDBRANCH  16  19
BRANCH  16  24
ATOM     24  C   UNL     1       6.273   5.592  16.077  0.00  0.00    +0.000 C 
BRANCH  24  25
ATOM     25  C   UNL     1       7.368   5.017  15.176  0.00  0.00    +0.000 C 
BRANCH  25  26
ATOM     26  C   UNL     1       6.918   4.841  13.702  0.00  0.00    +0.000 C 
BRANCH  26  27
ATOM     27  C   UNL     1       5.966   3.646  13.607  0.00  0.00    +0.000 C 
ATOM     28  C   UNL     1       5.397   3.397  12.217  0.00  0.00    +0.000 C 
ENDBRANCH  26  27
ENDBRANCH  25  26
ENDBRANCH  24  25
ENDBRANCH  16  24
ENDBRANCH   1  17
BRANCH   1  29
ATOM     29  C   UNL     1       3.708   4.252  16.786  0.00  0.00    +0.000 C 
BRANCH  29  30
ATOM     30  C   UNL     1       3.149   2.960  17.399  0.00  0.00    +0.000 C 
BRANCH  30  31
ATOM     31  C   UNL     1       1.891   3.208  18.209  0.00  0.00    +0.000 C 
ATOM     32  O   UNL     1       0.812   3.458  17.673  0.00  0.00    +0.000 OA
ATOM     33  N   UNL     1       2.022   3.115  19.576  0.00  0.00    +0.000 N 
ATOM     34  C   UNL     1       3.228   2.850  20.339  0.00  0.00    +0.000 C 
ATOM     35  C   UNL     1       2.697   2.238  21.622  0.00  0.00    +0.000 C 
ATOM     36  C   UNL     1       1.382   2.980  21.854  0.00  0.00    +0.000 C 
ATOM     37  C   UNL     1       0.891   3.343  20.456  0.00  0.00    +0.000 C 
ENDBRANCH  30  31
ENDBRANCH  29  30
ENDBRANCH   1  29
TORSDOF 15
ENDMDL
MODEL 3
REMARK VINA RESULT:      -7.3      0.992      1.442
REMARK  Name = 
REMARK  18 active torsions:
REMARK  status: ('A' for Active; 'I' for Inactive)
REMARK    1  A    between atoms: C_1  and  C_2
REMARK    2  A    between atoms: C_2  and  C_3
REMARK    3  A    between atoms: C_3  and  C_4
REMARK    4  A    between atoms: C_4  and  C_5
REMARK    5  A    between atoms: C_5  and  N_6
REMARK    6  A    between atoms: N_6  and  C_7
REMARK    7  A    between atoms: C_7  and  C_8
REMARK    8  A    between atoms: C_8  and  C_9
REMARK    9  A    between atoms: C_9  and  C_10
REMARK   10  A    between atoms: C_10  and  C_11
REMARK   11  A    between atoms: C_12  and  C_14
REMARK   12  A    between atoms: C_14  and  C_15
REMARK   13  A    between atoms: C_14  and  N_24
REMARK   14  A    between atoms: C_15  and  C_16
REMARK   15  A    between atoms: C_16  and  C_17
REMARK   16  A    between atoms: N_27  and  C_28
REMARK   17  A    between atoms: C_32  and  O_33
REMARK   18  A    between atoms: O_33  and  C_34
REMARK                            x       y       z     vdW  Elec       q    Type
REMARK                         _______ _______ _______ _____ _____    ______ ____
ROOT
ATOM      1  C   UNL     1       4.573   4.656  18.350  0.00  0.00    +0.000 C 
ENDROOT
BRANCH   1   2
ATOM      2  N   UNL     1       3.470   5.539  17.894  0.00  0.00    +0.000 N 
ATOM      3  C   UNL     1       2.941   6.445  18.780  0.00  0.00    +0.000 C 
ATOM      4  O   UNL     1       3.273   6.433  19.964  0.00  0.00    +0.000 OA
ATOM      5  N   UNL     1       1.994   7.291  18.237  0.00  0.00    +0.000 N 
ATOM      6  H   UNL     1       3.446   5.752  16.910  0.00  0.00    +0.000 HD
ATOM      7  H   UNL     1       1.518   6.971  17.410  0.00  0.00    +0.000 HD
BRANCH   5   8
ATOM      8  C   UNL     1       1.436   8.402  18.945  0.00  0.00    +0.000 A 
ATOM      9  C   UNL     1       1.598   9.714  18.482  0.00  0.00    +0.000 A 
ATOM     10  C   UNL     1       1.093  10.805  19.187  0.00  0.00    +0.000 A 
ATOM     11  C   UNL     1       0.408  10.593  20.375  0.00  0.00    +0.000 A 
ATOM     12  C   UNL     1       0.215   9.298  20.858  0.00  0.00    +0.000 A 
ATOM     13  C   UNL     1       0.709   8.195  20.122  0.00  0.00    +0.000 A 
BRANCH  12  14
ATOM     14  O   UNL     1      -0.456   9.255  22.047  0.00  0.00    +0.000 OA
ATOM     15  C   UNL     1       0.258   9.577  23.228  0.00  0.00    +0.000 C 
ENDBRANCH  12  14
ENDBRANCH   5   8
ENDBRANCH   1   2
BRANCH   1  17
ATOM     16  N   UNL     1       6.410   6.198  17.471  0.00  0.00    +0.000 N 
ATOM     17  C   UNL     1       5.902   5.426  18.556  0.00  0.00    +0.000 C 
ATOM     18  O   UNL     1       6.484   5.360  19.641  0.00  0.00    +0.000 OA
BRANCH  16  19
ATOM     19  C   UNL     1       7.679   6.906  17.723  0.00  0.00    +0.000 C 
BRANCH  19  20
ATOM     20  C   UNL     1       7.578   8.441  17.773  0.00  0.00    +0.000 C 
BRANCH  20  21
ATOM     21  C   UNL     1       8.878   9.248  17.812  0.00  0.00    +0.000 C 
BRANCH  21  23
ATOM     22  C   UNL     1       9.990  11.031  19.300  0.00  0.00    +0.000 C 
ATOM     23  C   UNL     1       8.975   9.907  19.202  0.00  0.00    +0.000 C 
ENDBRANCH  21  23
ENDBRANCH  20  21
ENDBRANCH  19  20
ENDBRANCH  16  19
BRANCH  16  24
ATOM     24  C   UNL     1       5.535   6.739  16.397  0.00  0.00    +0.000 C 
BRANCH  24  25
ATOM     25  C   UNL     1       5.536   5.972  15.073  0.00  0.00    +0.000 C 
BRANCH  25  26
ATOM     26  C   UNL     1       6.767   5.043  14.905  0.00  0.00    +0.000 C 
BRANCH  26  27
ATOM     27  C   UNL     1       6.320   3.730  14.258  0.00  0.00    +0.000 C 
ATOM     28  C   UNL     1       5.729   3.879  12.862  0.00  0.00    +0.000 C 
ENDBRANCH  26  27
ENDBRANCH  25  26
ENDBRANCH  24  25
ENDBRANCH  16  24
ENDBRANCH   1  17
BRANCH   1  29
ATOM     29  C   UNL     1       4.712   3.470  17.387  0.00  0.00    +0.000 C 
BRANCH  29  30
ATOM     30  C   UNL     1       3.944   2.250  17.915  0.00  0.00    +0.000 C 
BRANCH  30  31
ATOM     31  C   UNL     1       3.943   2.185  19.430  0.00  0.00    +0.000 C 
ATOM     32  O   UNL     1       4.952   1.888  20.068  0.00  0.00    +0.000 OA
ATOM     33  N   UNL     1       2.755   2.499  20.050  0.00  0.00    +0.000 N 
ATOM     34  C   UNL     1       1.490   2.844  19.428  0.00  0.00    +0.000 C 
ATOM     35  C   UNL     1       0.799   3.679  20.491  0.00  0.00    +0.000 C 
ATOM     36  C   UNL     1       1.248   3.033  21.800  0.00  0.00    +0.000 C 
ATOM     37  C   UNL     1       2.629   2.460  21.495  0.00  0.00    +0.000 C 
ENDBRANCH  30  31
ENDBRANCH  29  30
ENDBRANCH   1  29
TORSDOF 15
ENDMDL
MODEL 4
REMARK VINA RESULT:      -7.3      4.332      9.062
REMARK  Name = 
REMARK  18 active torsions:
REMARK  status: ('A' for Active; 'I' for Inactive)
REMARK    1  A    between atoms: C_1  and  C_2
REMARK    2  A    between atoms: C_2  and  C_3
REMARK    3  A    between atoms: C_3  and  C_4
REMARK    4  A    between atoms: C_4  and  C_5
REMARK    5  A    between atoms: C_5  and  N_6
REMARK    6  A    between atoms: N_6  and  C_7
REMARK    7  A    between atoms: C_7  and  C_8
REMARK    8  A    between atoms: C_8  and  C_9
REMARK    9  A    between atoms: C_9  and  C_10
REMARK   10  A    between atoms: C_10  and  C_11
REMARK   11  A    between atoms: C_12  and  C_14
REMARK   12  A    between atoms: C_14  and  C_15
REMARK   13  A    between atoms: C_14  and  N_24
REMARK   14  A    between atoms: C_15  and  C_16
REMARK   15  A    between atoms: C_16  and  C_17
REMARK   16  A    between atoms: N_27  and  C_28
REMARK   17  A    between atoms: C_32  and  O_33
REMARK   18  A    between atoms: O_33  and  C_34
REMARK                            x       y       z     vdW  Elec       q    Type
REMARK                         _______ _______ _______ _____ _____    ______ ____
ROOT
ATOM      1  C   UNL     1       0.862  10.074  19.083  0.00  0.00    +0.000 C 
ENDROOT
BRANCH   1   2
ATOM      2  N   UNL     1       1.293  11.143  18.147  0.00  0.00    +0.000 N 
ATOM      3  C   UNL     1       1.859  12.283  18.663  0.00  0.00    +0.000 C 
ATOM      4  O   UNL     1       1.880  12.480  19.877  0.00  0.00    +0.000 OA
ATOM      5  N   UNL     1       2.323  13.172  17.713  0.00  0.00    +0.000 N 
ATOM      6  H   UNL     1       1.559  10.846  17.222  0.00  0.00    +0.000 HD
ATOM      7  H   UNL     1       1.912  13.115  16.796  0.00  0.00    +0.000 HD
BRANCH   5   8
ATOM      8  C   UNL     1       3.079  14.342  18.038  0.00  0.00    +0.000 A 
ATOM      9  C   UNL     1       2.485  15.610  18.058  0.00  0.00    +0.000 A 
ATOM     10  C   UNL     1       3.224  16.759  18.333  0.00  0.00    +0.000 A 
ATOM     11  C   UNL     1       4.581  16.651  18.600  0.00  0.00    +0.000 A 
ATOM     12  C   UNL     1       5.204  15.403  18.604  0.00  0.00    +0.000 A 
ATOM     13  C   UNL     1       4.440  14.239  18.348  0.00  0.00    +0.000 A 
BRANCH  12  14
ATOM     14  O   UNL     1       6.544  15.462  18.860  0.00  0.00    +0.000 OA
ATOM     15  C   UNL     1       7.439  15.193  17.796  0.00  0.00    +0.000 C 
ENDBRANCH  12  14
ENDBRANCH   5   8
ENDBRANCH   1   2
BRANCH   1  17
ATOM     16  N   UNL     1       1.869   7.900  19.967  0.00  0.00    +0.000 N 
ATOM     17  C   UNL     1       1.609   8.739  18.844  0.00  0.00    +0.000 C 
ATOM     18  O   UNL     1       1.955   8.428  17.702  0.00  0.00    +0.000 OA
BRANCH  16  19
ATOM     19  C   UNL     1       2.585   6.642  19.680  0.00  0.00    +0.000 C 
BRANCH  19  20
ATOM     20  C   UNL     1       2.015   5.389  20.367  0.00  0.00    +0.000 C 
BRANCH  20  21
ATOM     21  C   UNL     1       1.585   4.215  19.482  0.00  0.00    +0.000 C 
BRANCH  21  23
ATOM     22  C   UNL     1       1.789   2.756  21.594  0.00  0.00    +0.000 C 
ATOM     23  C   UNL     1       0.944   3.154  20.397  0.00  0.00    +0.000 C 
ENDBRANCH  21  23
ENDBRANCH  20  21
ENDBRANCH  19  20
ENDBRANCH  16  19
BRANCH  16  24
ATOM     24  C   UNL     1       1.043   7.941  21.202  0.00  0.00    +0.000 C 
BRANCH  24  25
ATOM     25  C   UNL     1       1.324   9.096  22.166  0.00  0.00    +0.000 C 
BRANCH  25  26
ATOM     26  C   UNL     1       0.081   9.517  22.994  0.00  0.00    +0.000 C 
BRANCH  26  27
ATOM     27  C   UNL     1      -0.402  10.888  22.512  0.00  0.00    +0.000 C 
ATOM     28  C   UNL     1      -1.690  11.371  23.163  0.00  0.00    +0.000 C 
ENDBRANCH  26  27
ENDBRANCH  25  26
ENDBRANCH  24  25
ENDBRANCH  16  24
ENDBRANCH   1  17
BRANCH   1  29
ATOM     29  C   UNL     1      -0.664   9.926  19.023  0.00  0.00    +0.000 C 
BRANCH  29  30
ATOM     30  C   UNL     1      -1.215  10.516  17.717  0.00  0.00    +0.000 C 
BRANCH  30  31
ATOM     31  C   UNL     1      -2.731  10.551  17.699  0.00  0.00    +0.000 C 
ATOM     32  O   UNL     1      -3.391   9.764  17.021  0.00  0.00    +0.000 OA
ATOM     33  N   UNL     1      -3.326  11.498  18.500  0.00  0.00    +0.000 N 
ATOM     34  C   UNL     1      -2.677  12.497  19.329  0.00  0.00    +0.000 C 
ATOM     35  C   UNL     1      -3.711  12.776  20.405  0.00  0.00    +0.000 C 
ATOM     36  C   UNL     1      -5.040  12.647  19.666  0.00  0.00    +0.000 C 
ATOM     37  C   UNL     1      -4.769  11.636  18.556  0.00  0.00    +0.000 C 
ENDBRANCH  30  31
ENDBRANCH  29  30
ENDBRANCH   1  29
TORSDOF 15
ENDMDL
MODEL 5
REMARK VINA RESULT:      -7.1      2.957      7.833
REMARK  Name = 
REMARK  18 active torsions:
REMARK  status: ('A' for Active; 'I' for Inactive)
REMARK    1  A    between atoms: C_1  and  C_2
REMARK    2  A    between atoms: C_2  and  C_3
REMARK    3  A    between atoms: C_3  and  C_4
REMARK    4  A    between atoms: C_4  and  C_5
REMARK    5  A    between atoms: C_5  and  N_6
REMARK    6  A    between atoms: N_6  and  C_7
REMARK    7  A    between atoms: C_7  and  C_8
REMARK    8  A    between atoms: C_8  and  C_9
REMARK    9  A    between atoms: C_9  and  C_10
REMARK   10  A    between atoms: C_10  and  C_11
REMARK   11  A    between atoms: C_12  and  C_14
REMARK   12  A    between atoms: C_14  and  C_15
REMARK   13  A    between atoms: C_14  and  N_24
REMARK   14  A    between atoms: C_15  and  C_16
REMARK   15  A    between atoms: C_16  and  C_17
REMARK   16  A    between atoms: N_27  and  C_28
REMARK   17  A    between atoms: C_32  and  O_33
REMARK   18  A    between atoms: O_33  and  C_34
REMARK                            x       y       z     vdW  Elec       q    Type
REMARK                         _______ _______ _______ _____ _____    ______ ____
ROOT
ATOM      1  C   UNL     1       6.799   6.734  17.631  0.00  0.00    +0.000 C 
ENDROOT
BRANCH   1   2
ATOM      2  N   UNL     1       7.986   7.298  18.321  0.00  0.00    +0.000 N 
ATOM      3  C   UNL     1       8.179   8.658  18.298  0.00  0.00    +0.000 C 
ATOM      4  O   UNL     1       7.467   9.381  17.604  0.00  0.00    +0.000 OA
ATOM      5  N   UNL     1       9.249   9.097  19.053  0.00  0.00    +0.000 N 
ATOM      6  H   UNL     1       8.339   6.772  19.105  0.00  0.00    +0.000 HD
ATOM      7  H   UNL     1       9.978   8.430  19.242  0.00  0.00    +0.000 HD
BRANCH   5   8
ATOM      8  C   UNL     1       9.527  10.481  19.287  0.00  0.00    +0.000 A 
ATOM      9  C   UNL     1       9.962  11.319  18.252  0.00  0.00    +0.000 A 
ATOM     10  C   UNL     1      10.274  12.658  18.479  0.00  0.00    +0.000 A 
ATOM     11  C   UNL     1      10.149  13.182  19.758  0.00  0.00    +0.000 A 
ATOM     12  C   UNL     1       9.704  12.380  20.810  0.00  0.00    +0.000 A 
ATOM     13  C   UNL     1       9.365  11.028  20.564  0.00  0.00    +0.000 A 
BRANCH  12  14
ATOM     14  O   UNL     1       9.655  13.031  22.009  0.00  0.00    +0.000 OA
ATOM     15  C   UNL     1       9.664  14.448  22.001  0.00  0.00    +0.000 C 
ENDBRANCH  12  14
ENDBRANCH   5   8
ENDBRANCH   1   2
BRANCH   1  17
ATOM     16  N   UNL     1       5.019   5.033  18.309  0.00  0.00    +0.000 N 
ATOM     17  C   UNL     1       6.405   5.338  18.172  0.00  0.00    +0.000 C 
ATOM     18  O   UNL     1       7.285   4.526  18.466  0.00  0.00    +0.000 OA
BRANCH  16  19
ATOM     19  C   UNL     1       4.703   3.690  18.832  0.00  0.00    +0.000 C 
BRANCH  19  20
ATOM     20  C   UNL     1       4.197   2.680  17.788  0.00  0.00    +0.000 C 
BRANCH  20  21
ATOM     21  C   UNL     1       2.983   1.818  18.148  0.00  0.00    +0.000 C 
BRANCH  21  23
ATOM     22  C   UNL     1       0.592   2.310  18.966  0.00  0.00    +0.000 C 
ATOM     23  C   UNL     1       1.732   2.711  18.047  0.00  0.00    +0.000 C 
ENDBRANCH  21  23
ENDBRANCH  20  21
ENDBRANCH  19  20
ENDBRANCH  16  19
BRANCH  16  24
ATOM     24  C   UNL     1       3.970   5.708  17.502  0.00  0.00    +0.000 C 
BRANCH  24  25
ATOM     25  C   UNL     1       2.771   6.262  18.275  0.00  0.00    +0.000 C 
BRANCH  25  26
ATOM     26  C   UNL     1       2.976   6.244  19.813  0.00  0.00    +0.000 C 
BRANCH  26  27
ATOM     27  C   UNL     1       1.815   5.488  20.465  0.00  0.00    +0.000 C 
ATOM     28  C   UNL     1       2.237   4.348  21.383  0.00  0.00    +0.000 C 
ENDBRANCH  26  27
ENDBRANCH  25  26
ENDBRANCH  24  25
ENDBRANCH  16  24
ENDBRANCH   1  17
BRANCH   1  29
ATOM     29  C   UNL     1       7.036   6.743  16.115  0.00  0.00    +0.000 C 
BRANCH  29  30
ATOM     30  C   UNL     1       6.916   5.325  15.539  0.00  0.00    +0.000 C 
BRANCH  30  31
ATOM     31  C   UNL     1       7.474   5.229  14.132  0.00  0.00    +0.000 C 
ATOM     32  O   UNL     1       8.512   5.804  13.804  0.00  0.00    +0.000 OA
ATOM     33  N   UNL     1       6.767   4.444  13.251  0.00  0.00    +0.000 N 
ATOM     34  C   UNL     1       5.526   3.730  13.493  0.00  0.00    +0.000 C 
ATOM     35  C   UNL     1       5.579   2.596  12.485  0.00  0.00    +0.000 C 
ATOM     36  C   UNL     1       6.277   3.222  11.280  0.00  0.00    +0.000 C 
ATOM     37  C   UNL     1       7.197   4.285  11.875  0.00  0.00    +0.000 C 
ENDBRANCH  30  31
ENDBRANCH  29  30
ENDBRANCH   1  29
TORSDOF 15
ENDMDL
MODEL 6
REMARK VINA RESULT:      -7.1      4.275      8.935
REMARK  Name = 
REMARK  18 active torsions:
REMARK  status: ('A' for Active; 'I' for Inactive)
REMARK    1  A    between atoms: C_1  and  C_2
REMARK    2  A    between atoms: C_2  and  C_3
REMARK    3  A    between atoms: C_3  and  C_4
REMARK    4  A    between atoms: C_4  and  C_5
REMARK    5  A    between atoms: C_5  and  N_6
REMARK    6  A    between atoms: N_6  and  C_7
REMARK    7  A    between atoms: C_7  and  C_8
REMARK    8  A    between atoms: C_8  and  C_9
REMARK    9  A    between atoms: C_9  and  C_10
REMARK   10  A    between atoms: C_10  and  C_11
REMARK   11  A    between atoms: C_12  and  C_14
REMARK   12  A    between atoms: C_14  and  C_15
REMARK   13  A    between atoms: C_14  and  N_24
REMARK   14  A    between atoms: C_15  and  C_16
REMARK   15  A    between atoms: C_16  and  C_17
REMARK   16  A    between atoms: N_27  and  C_28
REMARK   17  A    between atoms: C_32  and  O_33
REMARK   18  A    between atoms: O_33  and  C_34
REMARK                            x       y       z     vdW  Elec       q    Type
REMARK                         _______ _______ _______ _____ _____    ______ ____
ROOT
ATOM      1  C   UNL     1       1.278  10.146  18.525  0.00  0.00    +0.000 C 
ENDROOT
BRANCH   1   2
ATOM      2  N   UNL     1       1.942  11.219  17.744  0.00  0.00    +0.000 N 
ATOM      3  C   UNL     1       2.270  12.391  18.379  0.00  0.00    +0.000 C 
ATOM      4  O   UNL     1       1.897  12.607  19.531  0.00  0.00    +0.000 OA
ATOM      5  N   UNL     1       2.976  13.287  17.600  0.00  0.00    +0.000 N 
ATOM      6  H   UNL     1       2.498  10.921  16.959  0.00  0.00    +0.000 HD
ATOM      7  H   UNL     1       2.880  13.197  16.602  0.00  0.00    +0.000 HD
BRANCH   5   8
ATOM      8  C   UNL     1       3.544  14.495  18.113  0.00  0.00    +0.000 A 
ATOM      9  C   UNL     1       4.928  14.633  18.281  0.00  0.00    +0.000 A 
ATOM     10  C   UNL     1       5.487  15.791  18.818  0.00  0.00    +0.000 A 
ATOM     11  C   UNL     1       4.659  16.838  19.195  0.00  0.00    +0.000 A 
ATOM     12  C   UNL     1       3.277  16.742  19.028  0.00  0.00    +0.000 A 
ATOM     13  C   UNL     1       2.721  15.572  18.458  0.00  0.00    +0.000 A 
BRANCH  12  14
ATOM     14  O   UNL     1       2.597  17.842  19.467  0.00  0.00    +0.000 OA
ATOM     15  C   UNL     1       1.217  17.939  19.160  0.00  0.00    +0.000 C 
ENDBRANCH  12  14
ENDBRANCH   5   8
ENDBRANCH   1   2
BRANCH   1  17
ATOM     16  N   UNL     1       2.105   7.981  19.600  0.00  0.00    +0.000 N 
ATOM     17  C   UNL     1       2.025   8.792  18.430  0.00  0.00    +0.000 C 
ATOM     18  O   UNL     1       2.526   8.445  17.359  0.00  0.00    +0.000 OA
BRANCH  16  19
ATOM     19  C   UNL     1       2.831   6.705  19.451  0.00  0.00    +0.000 C 
BRANCH  19  20
ATOM     20  C   UNL     1       2.267   5.529  20.266  0.00  0.00    +0.000 C 
BRANCH  20  21
ATOM     21  C   UNL     1       1.551   4.406  19.510  0.00  0.00    +0.000 C 
BRANCH  21  23
ATOM     22  C   UNL     1       1.946   3.111  21.700  0.00  0.00    +0.000 C 
ATOM     23  C   UNL     1       0.996   3.421  20.557  0.00  0.00    +0.000 C 
ENDBRANCH  21  23
ENDBRANCH  20  21
ENDBRANCH  19  20
ENDBRANCH  16  19
BRANCH  16  24
ATOM     24  C   UNL     1       1.111   8.069  20.701  0.00  0.00    +0.000 C 
BRANCH  24  25
ATOM     25  C   UNL     1       1.087   9.381  21.490  0.00  0.00    +0.000 C 
BRANCH  25  26
ATOM     26  C   UNL     1       0.495   9.227  22.915  0.00  0.00    +0.000 C 
BRANCH  26  27
ATOM     27  C   UNL     1      -0.799  10.038  23.011  0.00  0.00    +0.000 C 
ATOM     28  C   UNL     1      -0.660  11.504  22.623  0.00  0.00    +0.000 C 
ENDBRANCH  26  27
ENDBRANCH  25  26
ENDBRANCH  24  25
ENDBRANCH  16  24
ENDBRANCH   1  17
BRANCH   1  29
ATOM     29  C   UNL     1      -0.196  10.046  18.109  0.00  0.00    +0.000 C 
BRANCH  29  30
ATOM     30  C   UNL     1      -0.991  11.249  18.634  0.00  0.00    +0.000 C 
BRANCH  30  31
ATOM     31  C   UNL     1      -2.466  11.153  18.297  0.00  0.00    +0.000 C 
ATOM     32  O   UNL     1      -2.880  10.429  17.392  0.00  0.00    +0.000 OA
ATOM     33  N   UNL     1      -3.316  11.906  19.075  0.00  0.00    +0.000 N 
ATOM     34  C   UNL     1      -2.969  12.813  20.152  0.00  0.00    +0.000 C 
ATOM     35  C   UNL     1      -4.221  12.825  21.011  0.00  0.00    +0.000 C 
ATOM     36  C   UNL     1      -5.352  12.700  19.993  0.00  0.00    +0.000 C 
ATOM     37  C   UNL     1      -4.748  11.905  18.839  0.00  0.00    +0.000 C 
ENDBRANCH  30  31
ENDBRANCH  29  30
ENDBRANCH   1  29
TORSDOF 15
ENDMDL
MODEL 7
REMARK VINA RESULT:      -7.0      2.425      7.553
REMARK  Name = 
REMARK  18 active torsions:
REMARK  status: ('A' for Active; 'I' for Inactive)
REMARK    1  A    between atoms: C_1  and  C_2
REMARK    2  A    between atoms: C_2  and  C_3
REMARK    3  A    between atoms: C_3  and  C_4
REMARK    4  A    between atoms: C_4  and  C_5
REMARK    5  A    between atoms: C_5  and  N_6
REMARK    6  A    between atoms: N_6  and  C_7
REMARK    7  A    between atoms: C_7  and  C_8
REMARK    8  A    between atoms: C_8  and  C_9
REMARK    9  A    between atoms: C_9  and  C_10
REMARK   10  A    between atoms: C_10  and  C_11
REMARK   11  A    between atoms: C_12  and  C_14
REMARK   12  A    between atoms: C_14  and  C_15
REMARK   13  A    between atoms: C_14  and  N_24
REMARK   14  A    between atoms: C_15  and  C_16
REMARK   15  A    between atoms: C_16  and  C_17
REMARK   16  A    between atoms: N_27  and  C_28
REMARK   17  A    between atoms: C_32  and  O_33
REMARK   18  A    between atoms: O_33  and  C_34
REMARK                            x       y       z     vdW  Elec       q    Type
REMARK                         _______ _______ _______ _____ _____    ______ ____
ROOT
ATOM      1  C   UNL     1       5.215   5.556  17.017  0.00  0.00    +0.000 C 
ENDROOT
BRANCH   1   2
ATOM      2  N   UNL     1       6.590   6.107  17.112  0.00  0.00    +0.000 N 
ATOM      3  C   UNL     1       6.750   7.429  17.449  0.00  0.00    +0.000 C 
ATOM      4  O   UNL     1       5.778   8.177  17.532  0.00  0.00    +0.000 OA
ATOM      5  N   UNL     1       8.063   7.823  17.615  0.00  0.00    +0.000 N 
ATOM      6  H   UNL     1       7.317   5.453  17.356  0.00  0.00    +0.000 HD
ATOM      7  H   UNL     1       8.766   7.273  17.150  0.00  0.00    +0.000 HD
BRANCH   5   8
ATOM      8  C   UNL     1       8.438   9.109  18.114  0.00  0.00    +0.000 A 
ATOM      9  C   UNL     1       9.079   9.250  19.351  0.00  0.00    +0.000 A 
ATOM     10  C   UNL     1       9.412  10.503  19.863  0.00  0.00    +0.000 A 
ATOM     11  C   UNL     1       9.107  11.643  19.133  0.00  0.00    +0.000 A 
ATOM     12  C   UNL     1       8.483  11.540  17.889  0.00  0.00    +0.000 A 
ATOM     13  C   UNL     1       8.172  10.262  17.366  0.00  0.00    +0.000 A 
BRANCH  12  14
ATOM     14  O   UNL     1       8.229  12.747  17.305  0.00  0.00    +0.000 OA
ATOM     15  C   UNL     1       8.713  13.915  17.946  0.00  0.00    +0.000 C 
ENDBRANCH  12  14
ENDBRANCH   5   8
ENDBRANCH   1   2
BRANCH   1  17
ATOM     16  N   UNL     1       3.571   5.646  18.970  0.00  0.00    +0.000 N 
ATOM     17  C   UNL     1       4.698   5.011  18.371  0.00  0.00    +0.000 C 
ATOM     18  O   UNL     1       5.261   4.048  18.897  0.00  0.00    +0.000 OA
BRANCH  16  19
ATOM     19  C   UNL     1       3.125   5.086  20.260  0.00  0.00    +0.000 C 
BRANCH  19  20
ATOM     20  C   UNL     1       1.621   4.783  20.360  0.00  0.00    +0.000 C 
BRANCH  20  21
ATOM     21  C   UNL     1       1.189   3.323  20.527  0.00  0.00    +0.000 C 
BRANCH  21  23
ATOM     22  C   UNL     1       2.055   2.253  18.350  0.00  0.00    +0.000 C 
ATOM     23  C   UNL     1       0.858   2.773  19.126  0.00  0.00    +0.000 C 
ENDBRANCH  21  23
ENDBRANCH  20  21
ENDBRANCH  19  20
ENDBRANCH  16  19
BRANCH  16  24
ATOM     24  C   UNL     1       2.566   6.401  18.177  0.00  0.00    +0.000 C 
BRANCH  24  25
ATOM     25  C   UNL     1       2.671   7.927  18.226  0.00  0.00    +0.000 C 
BRANCH  25  26
ATOM     26  C   UNL     1       1.508   8.594  19.006  0.00  0.00    +0.000 C 
BRANCH  26  27
ATOM     27  C   UNL     1       0.699   9.472  18.048  0.00  0.00    +0.000 C 
ATOM     28  C   UNL     1       0.073  10.703  18.690  0.00  0.00    +0.000 C 
ENDBRANCH  26  27
ENDBRANCH  25  26
ENDBRANCH  24  25
ENDBRANCH  16  24
ENDBRANCH   1  17
BRANCH   1  29
ATOM     29  C   UNL     1       5.157   4.515  15.891  0.00  0.00    +0.000 C 
BRANCH  29  30
ATOM     30  C   UNL     1       5.301   5.190  14.520  0.00  0.00    +0.000 C 
BRANCH  30  31
ATOM     31  C   UNL     1       6.577   4.779  13.810  0.00  0.00    +0.000 C 
ATOM     32  O   UNL     1       7.678   5.210  14.152  0.00  0.00    +0.000 OA
ATOM     33  N   UNL     1       6.435   3.881  12.778  0.00  0.00    +0.000 N 
ATOM     34  C   UNL     1       5.206   3.310  12.258  0.00  0.00    +0.000 C 
ATOM     35  C   UNL     1       5.666   1.997  11.650  0.00  0.00    +0.000 C 
ATOM     36  C   UNL     1       7.052   2.324  11.101  0.00  0.00    +0.000 C 
ATOM     37  C   UNL     1       7.582   3.424  12.017  0.00  0.00    +0.000 C 
ENDBRANCH  30  31
ENDBRANCH  29  30
ENDBRANCH   1  29
TORSDOF 15
ENDMDL
MODEL 8
REMARK VINA RESULT:      -7.0      4.186      9.489
REMARK  Name = 
REMARK  18 active torsions:
REMARK  status: ('A' for Active; 'I' for Inactive)
REMARK    1  A    between atoms: C_1  and  C_2
REMARK    2  A    between atoms: C_2  and  C_3
REMARK    3  A    between atoms: C_3  and  C_4
REMARK    4  A    between atoms: C_4  and  C_5
REMARK    5  A    between atoms: C_5  and  N_6
REMARK    6  A    between atoms: N_6  and  C_7
REMARK    7  A    between atoms: C_7  and  C_8
REMARK    8  A    between atoms: C_8  and  C_9
REMARK    9  A    between atoms: C_9  and  C_10
REMARK   10  A    between atoms: C_10  and  C_11
REMARK   11  A    between atoms: C_12  and  C_14
REMARK   12  A    between atoms: C_14  and  C_15
REMARK   13  A    between atoms: C_14  and  N_24
REMARK   14  A    between atoms: C_15  and  C_16
REMARK   15  A    between atoms: C_16  and  C_17
REMARK   16  A    between atoms: N_27  and  C_28
REMARK   17  A    between atoms: C_32  and  O_33
REMARK   18  A    between atoms: O_33  and  C_34
REMARK                            x       y       z     vdW  Elec       q    Type
REMARK                         _______ _______ _______ _____ _____    ______ ____
ROOT
ATOM      1  C   UNL     1       0.759  10.596  19.107  0.00  0.00    +0.000 C 
ENDROOT
BRANCH   1   2
ATOM      2  N   UNL     1       1.285  11.666  18.223  0.00  0.00    +0.000 N 
ATOM      3  C   UNL     1       2.032  12.675  18.780  0.00  0.00    +0.000 C 
ATOM      4  O   UNL     1       2.146  12.771  20.001  0.00  0.00    +0.000 OA
ATOM      5  N   UNL     1       2.565  13.565  17.867  0.00  0.00    +0.000 N 
ATOM      6  H   UNL     1       1.456  11.409  17.263  0.00  0.00    +0.000 HD
ATOM      7  H   UNL     1       2.102  13.636  16.976  0.00  0.00    +0.000 HD
BRANCH   5   8
ATOM      8  C   UNL     1       3.494  14.591  18.224  0.00  0.00    +0.000 A 
ATOM      9  C   UNL     1       3.064  15.796  18.794  0.00  0.00    +0.000 A 
ATOM     10  C   UNL     1       3.958  16.817  19.108  0.00  0.00    +0.000 A 
ATOM     11  C   UNL     1       5.311  16.642  18.856  0.00  0.00    +0.000 A 
ATOM     12  C   UNL     1       5.779  15.448  18.303  0.00  0.00    +0.000 A 
ATOM     13  C   UNL     1       4.865  14.407  18.012  0.00  0.00    +0.000 A 
BRANCH  12  14
ATOM     14  O   UNL     1       7.128  15.436  18.094  0.00  0.00    +0.000 OA
ATOM     15  C   UNL     1       7.779  14.180  18.011  0.00  0.00    +0.000 C 
ENDBRANCH  12  14
ENDBRANCH   5   8
ENDBRANCH   1   2
BRANCH   1  17
ATOM     16  N   UNL     1       1.604   8.365  20.018  0.00  0.00    +0.000 N 
ATOM     17  C   UNL     1       1.489   9.245  18.903  0.00  0.00    +0.000 C 
ATOM     18  O   UNL     1       1.946   8.959  17.794  0.00  0.00    +0.000 OA
BRANCH  16  19
ATOM     19  C   UNL     1       2.311   7.095  19.766  0.00  0.00    +0.000 C 
BRANCH  19  20
ATOM     20  C   UNL     1       1.746   5.870  20.507  0.00  0.00    +0.000 C 
BRANCH  20  21
ATOM     21  C   UNL     1       2.319   4.492  20.162  0.00  0.00    +0.000 C 
BRANCH  21  23
ATOM     22  C   UNL     1       1.546   4.119  17.735  0.00  0.00    +0.000 C 
ATOM     23  C   UNL     1       1.329   3.803  19.203  0.00  0.00    +0.000 C 
ENDBRANCH  21  23
ENDBRANCH  20  21
ENDBRANCH  19  20
ENDBRANCH  16  19
BRANCH  16  24
ATOM     24  C   UNL     1       0.652   8.395  21.160  0.00  0.00    +0.000 C 
BRANCH  24  25
ATOM     25  C   UNL     1       1.041   9.285  22.343  0.00  0.00    +0.000 C 
BRANCH  25  26
ATOM     26  C   UNL     1      -0.176   9.743  23.189  0.00  0.00    +0.000 C 
BRANCH  26  27
ATOM     27  C   UNL     1      -0.685  11.083  22.652  0.00  0.00    +0.000 C 
ATOM     28  C   UNL     1      -2.001  11.551  23.260  0.00  0.00    +0.000 C 
ENDBRANCH  26  27
ENDBRANCH  25  26
ENDBRANCH  24  25
ENDBRANCH  16  24
ENDBRANCH   1  17
BRANCH   1  29
ATOM     29  C   UNL     1      -0.761  10.488  18.931  0.00  0.00    +0.000 C 
BRANCH  29  30
ATOM     30  C   UNL     1      -1.342  11.809  18.407  0.00  0.00    +0.000 C 
BRANCH  30  31
ATOM     31  C   UNL     1      -2.503  12.299  19.251  0.00  0.00    +0.000 C 
ATOM     32  O   UNL     1      -3.600  11.743  19.232  0.00  0.00    +0.000 OA
ATOM     33  N   UNL     1      -2.251  13.387  20.055  0.00  0.00    +0.000 N 
ATOM     34  C   UNL     1      -1.021  14.150  20.162  0.00  0.00    +0.000 C 
ATOM     35  C   UNL     1      -1.098  14.735  21.561  0.00  0.00    +0.000 C 
ATOM     36  C   UNL     1      -2.587  15.008  21.752  0.00  0.00    +0.000 C 
ATOM     37  C   UNL     1      -3.287  13.954  20.898  0.00  0.00    +0.000 C 
ENDBRANCH  30  31
ENDBRANCH  29  30
ENDBRANCH   1  29
TORSDOF 15
ENDMDL
MODEL 9
REMARK VINA RESULT:      -6.9      1.542      2.118
REMARK  Name = 
REMARK  18 active torsions:
REMARK  status: ('A' for Active; 'I' for Inactive)
REMARK    1  A    between atoms: C_1  and  C_2
REMARK    2  A    between atoms: C_2  and  C_3
REMARK    3  A    between atoms: C_3  and  C_4
REMARK    4  A    between atoms: C_4  and  C_5
REMARK    5  A    between atoms: C_5  and  N_6
REMARK    6  A    between atoms: N_6  and  C_7
REMARK    7  A    between atoms: C_7  and  C_8
REMARK    8  A    between atoms: C_8  and  C_9
REMARK    9  A    between atoms: C_9  and  C_10
REMARK   10  A    between atoms: C_10  and  C_11
REMARK   11  A    between atoms: C_12  and  C_14
REMARK   12  A    between atoms: C_14  and  C_15
REMARK   13  A    between atoms: C_14  and  N_24
REMARK   14  A    between atoms: C_15  and  C_16
REMARK   15  A    between atoms: C_16  and  C_17
REMARK   16  A    between atoms: N_27  and  C_28
REMARK   17  A    between atoms: C_32  and  O_33
REMARK   18  A    between atoms: O_33  and  C_34
REMARK                            x       y       z     vdW  Elec       q    Type
REMARK                         _______ _______ _______ _____ _____    ______ ____
ROOT
ATOM      1  C   UNL     1       3.412   5.815  18.379  0.00  0.00    +0.000 C 
ENDROOT
BRANCH   1   2
ATOM      2  N   UNL     1       2.827   7.099  17.920  0.00  0.00    +0.000 N 
ATOM      3  C   UNL     1       2.145   7.875  18.826  0.00  0.00    +0.000 C 
ATOM      4  O   UNL     1       1.900   7.453  19.955  0.00  0.00    +0.000 OA
ATOM      5  N   UNL     1       1.728   9.096  18.334  0.00  0.00    +0.000 N 
ATOM      6  H   UNL     1       3.290   7.550  17.147  0.00  0.00    +0.000 HD
ATOM      7  H   UNL     1       1.622   9.174  17.336  0.00  0.00    +0.000 HD
BRANCH   5   8
ATOM      8  C   UNL     1       1.141  10.111  19.152  0.00  0.00    +0.000 A 
ATOM      9  C   UNL     1       0.763  11.349  18.616  0.00  0.00    +0.000 A 
ATOM     10  C   UNL     1       0.227  12.358  19.414  0.00  0.00    +0.000 A 
ATOM     11  C   UNL     1       0.056  12.137  20.773  0.00  0.00    +0.000 A 
ATOM     12  C   UNL     1       0.406  10.910  21.339  0.00  0.00    +0.000 A 
ATOM     13  C   UNL     1       0.926   9.883  20.516  0.00  0.00    +0.000 A 
BRANCH  12  14
ATOM     14  O   UNL     1       0.201  10.853  22.688  0.00  0.00    +0.000 OA
ATOM     15  C   UNL     1      -0.767   9.942  23.178  0.00  0.00    +0.000 C 
ENDBRANCH  12  14
ENDBRANCH   5   8
ENDBRANCH   1   2
BRANCH   1  17
ATOM     16  N   UNL     1       5.726   6.067  17.328  0.00  0.00    +0.000 N 
ATOM     17  C   UNL     1       4.954   5.878  18.511  0.00  0.00    +0.000 C 
ATOM     18  O   UNL     1       5.477   5.771  19.623  0.00  0.00    +0.000 OA
BRANCH  16  19
ATOM     19  C   UNL     1       7.189   6.116  17.513  0.00  0.00    +0.000 C 
BRANCH  19  20
ATOM     20  C   UNL     1       7.825   7.508  17.354  0.00  0.00    +0.000 C 
BRANCH  20  21
ATOM     21  C   UNL     1       8.479   8.146  18.583  0.00  0.00    +0.000 C 
BRANCH  21  23
ATOM     22  C   UNL     1       9.322  10.438  19.399  0.00  0.00    +0.000 C 
ATOM     23  C   UNL     1       8.622   9.655  18.303  0.00  0.00    +0.000 C 
ENDBRANCH  21  23
ENDBRANCH  20  21
ENDBRANCH  19  20
ENDBRANCH  16  19
BRANCH  16  24
ATOM     24  C   UNL     1       5.176   6.721  16.112  0.00  0.00    +0.000 C 
BRANCH  24  25
ATOM     25  C   UNL     1       5.495   6.047  14.776  0.00  0.00    +0.000 C 
BRANCH  25  26
ATOM     26  C   UNL     1       5.312   4.507  14.810  0.00  0.00    +0.000 C 
BRANCH  26  27
ATOM     27  C   UNL     1       6.359   3.857  13.901  0.00  0.00    +0.000 C 
ATOM     28  C   UNL     1       5.814   3.337  12.577  0.00  0.00    +0.000 C 
ENDBRANCH  26  27
ENDBRANCH  25  26
ENDBRANCH  24  25
ENDBRANCH  16  24
ENDBRANCH   1  17
BRANCH   1  29
ATOM     29  C   UNL     1       2.936   4.679  17.464  0.00  0.00    +0.000 C 
BRANCH  29  30
ATOM     30  C   UNL     1       1.451   4.375  17.704  0.00  0.00    +0.000 C 
BRANCH  30  31
ATOM     31  C   UNL     1       1.248   3.110  18.515  0.00  0.00    +0.000 C 
ATOM     32  O   UNL     1       0.966   2.036  17.985  0.00  0.00    +0.000 OA
ATOM     33  N   UNL     1       1.420   3.227  19.876  0.00  0.00    +0.000 N 
ATOM     34  C   UNL     1       1.730   4.425  20.634  0.00  0.00    +0.000 C 
ATOM     35  C   UNL     1       2.414   3.880  21.875  0.00  0.00    +0.000 C 
ATOM     36  C   UNL     1       1.685   2.565  22.136  0.00  0.00    +0.000 C 
ATOM     37  C   UNL     1       1.240   2.088  20.756  0.00  0.00    +0.000 C 
ENDBRANCH  30  31
ENDBRANCH  29  30
ENDBRANCH   1  29
TORSDOF 15
ENDMDL
