MODEL 1
REMARK VINA RESULT:      -7.8      0.000      0.000
REMARK  Name = 
REMARK  6 active torsions:
REMARK  status: ('A' for Active; 'I' for Inactive)
REMARK    1  A    between atoms: C_1  and  C_2
REMARK    2  A    between atoms: C_2  and  C_3
REMARK    3  A    between atoms: C_2  and  N_4
REMARK    4  A    between atoms: N_4  and  C_5
REMARK    5  A    between atoms: C_6  and  C_7
REMARK    6  A    between atoms: C_14  and  C_15
REMARK                            x       y       z     vdW  Elec       q    Type
REMARK                         _______ _______ _______ _____ _____    ______ ____
ROOT
ATOM      1  C   UNL     1       5.421   5.995  16.789  0.00  0.00    +0.000 A 
ATOM      2  C   UNL     1       5.464   4.699  16.384  0.00  0.00    +0.000 A 
ATOM      3  C   UNL     1       4.258   3.867  16.624  0.00  0.00    +0.000 A 
ATOM      4  N   UNL     1       3.207   4.185  17.299  0.00  0.00    +0.000 NA
ATOM      5  N   UNL     1       3.259   5.454  17.752  0.00  0.00    +0.000 N 
ATOM      6  C   UNL     1       2.273   6.002  18.517  0.00  0.00    +0.000 A 
ATOM      7  C   UNL     1       2.577   7.321  18.770  0.00  0.00    +0.000 A 
ATOM      8  C   UNL     1       3.799   7.579  18.084  0.00  0.00    +0.000 A 
ATOM      9  C   UNL     1       4.244   6.395  17.515  0.00  0.00    +0.000 A 
ENDROOT
BRANCH   7  10
ATOM     10  C   UNL     1       1.707   8.188  19.552  0.00  0.00    +0.000 A 
ATOM     11  C   UNL     1       1.183   9.367  18.996  0.00  0.00    +0.000 A 
ATOM     12  C   UNL     1       0.401  10.233  19.760  0.00  0.00    +0.000 A 
ATOM     13  C   UNL     1       0.126   9.926  21.089  0.00  0.00    +0.000 A 
ATOM     14  C   UNL     1       0.619   8.748  21.647  0.00  0.00    +0.000 A 
ATOM     15  C   UNL     1       1.404   7.880  20.882  0.00  0.00    +0.000 A 
ENDBRANCH   7  10
BRANCH   2  16
ATOM     16  C   UNL     1       6.651   4.102  15.720  0.00  0.00    +0.000 C 
ATOM     17  N   UNL     1       6.432   3.580  14.477  0.00  0.00    +0.000 N 
ATOM     18  O   UNL     1       7.757   4.041  16.245  0.00  0.00    +0.000 OA
ATOM     19  H   UNL     1       5.523   3.459  14.056  0.00  0.00    +0.000 HD
ATOM     20  H   UNL     1       7.209   3.108  14.024  0.00  0.00    +0.000 HD
ENDBRANCH   2  16
BRANCH   1  21
ATOM     21  N   UNL     1       6.413   6.955  16.496  0.00  0.00    +0.000 N 
ATOM     22  H   UNL     1       6.777   6.726  15.558  0.00  0.00    +0.000 HD
BRANCH  21  24
ATOM     23  C   UNL     1       7.715   8.663  17.662  0.00  0.00    +0.000 C 
ATOM     24  C   UNL     1       7.616   7.168  17.329  0.00  0.00    +0.000 C 
ATOM     25  C   UNL     1       7.603   6.372  18.627  0.00  0.00    +0.000 C 
ENDBRANCH  21  24
ENDBRANCH   1  21
TORSDOF 4
ENDMDL
MODEL 2
REMARK VINA RESULT:      -7.8      2.515      4.317
REMARK  Name = 
REMARK  6 active torsions:
REMARK  status: ('A' for Active; 'I' for Inactive)
REMARK    1  A    between atoms: C_1  and  C_2
REMARK    2  A    between atoms: C_2  and  C_3
REMARK    3  A    between atoms: C_2  and  N_4
REMARK    4  A    between atoms: N_4  and  C_5
REMARK    5  A    between atoms: C_6  and  C_7
REMARK    6  A    between atoms: C_14  and  C_15
REMARK                            x       y       z     vdW  Elec       q    Type
REMARK                         _______ _______ _______ _____ _____    ______ ____
ROOT
ATOM      1  C   UNL     1       2.912   5.376  19.599  0.00  0.00    +0.000 A 
ATOM      2  C   UNL     1       3.640   5.271  18.457  0.00  0.00    +0.000 A 
ATOM      3  C   UNL     1       3.818   6.501  17.644  0.00  0.00    +0.000 A 
ATOM      4  N   UNL     1       3.249   7.645  17.817  0.00  0.00    +0.000 NA
ATOM      5  N   UNL     1       2.469   7.663  18.917  0.00  0.00    +0.000 N 
ATOM      6  C   UNL     1       1.743   8.757  19.285  0.00  0.00    +0.000 A 
ATOM      7  C   UNL     1       1.102   8.495  20.474  0.00  0.00    +0.000 A 
ATOM      8  C   UNL     1       1.501   7.180  20.852  0.00  0.00    +0.000 A 
ATOM      9  C   UNL     1       2.293   6.652  19.843  0.00  0.00    +0.000 A 
ENDROOT
BRANCH   7  10
ATOM     10  C   UNL     1       0.257   9.477  21.140  0.00  0.00    +0.000 A 
ATOM     11  C   UNL     1      -0.213  10.605  20.449  0.00  0.00    +0.000 A 
ATOM     12  C   UNL     1      -0.969  11.580  21.099  0.00  0.00    +0.000 A 
ATOM     13  C   UNL     1      -1.272  11.433  22.450  0.00  0.00    +0.000 A 
ATOM     14  C   UNL     1      -0.833  10.307  23.143  0.00  0.00    +0.000 A 
ATOM     15  C   UNL     1      -0.074   9.330  22.492  0.00  0.00    +0.000 A 
ENDBRANCH   7  10
BRANCH   2  16
ATOM     16  C   UNL     1       4.252   3.995  18.006  0.00  0.00    +0.000 C 
ATOM     17  N   UNL     1       5.511   3.748  18.474  0.00  0.00    +0.000 N 
ATOM     18  O   UNL     1       3.698   3.216  17.241  0.00  0.00    +0.000 OA
ATOM     19  H   UNL     1       6.079   4.413  18.977  0.00  0.00    +0.000 HD
ATOM     20  H   UNL     1       5.982   2.913  18.134  0.00  0.00    +0.000 HD
ENDBRANCH   2  16
BRANCH   1  21
ATOM     21  N   UNL     1       2.783   4.349  20.558  0.00  0.00    +0.000 N 
ATOM     22  H   UNL     1       3.418   3.591  20.266  0.00  0.00    +0.000 HD
BRANCH  21  24
ATOM     23  C   UNL     1       0.915   3.129  19.561  0.00  0.00    +0.000 C 
ATOM     24  C   UNL     1       1.503   3.676  20.868  0.00  0.00    +0.000 C 
ATOM     25  C   UNL     1       1.645   2.532  21.862  0.00  0.00    +0.000 C 
ENDBRANCH  21  24
ENDBRANCH   1  21
TORSDOF 4
ENDMDL
MODEL 3
REMARK VINA RESULT:      -7.8      0.073      1.031
REMARK  Name = 
REMARK  6 active torsions:
REMARK  status: ('A' for Active; 'I' for Inactive)
REMARK    1  A    between atoms: C_1  and  C_2
REMARK    2  A    between atoms: C_2  and  C_3
REMARK    3  A    between atoms: C_2  and  N_4
REMARK    4  A    between atoms: N_4  and  C_5
REMARK    5  A    between atoms: C_6  and  C_7
REMARK    6  A    between atoms: C_14  and  C_15
REMARK                            x       y       z     vdW  Elec       q    Type
REMARK                         _______ _______ _______ _____ _____    ______ ____
ROOT
ATOM      1  C   UNL     1       5.420   6.003  16.789  0.00  0.00    +0.000 A 
ATOM      2  C   UNL     1       5.462   4.705  16.392  0.00  0.00    +0.000 A 
ATOM      3  C   UNL     1       4.254   3.877  16.635  0.00  0.00    +0.000 A 
ATOM      4  N   UNL     1       3.202   4.201  17.306  0.00  0.00    +0.000 NA
ATOM      5  N   UNL     1       3.256   5.473  17.750  0.00  0.00    +0.000 N 
ATOM      6  C   UNL     1       2.268   6.027  18.509  0.00  0.00    +0.000 A 
ATOM      7  C   UNL     1       2.574   7.347  18.755  0.00  0.00    +0.000 A 
ATOM      8  C   UNL     1       3.799   7.599  18.069  0.00  0.00    +0.000 A 
ATOM      9  C   UNL     1       4.243   6.410  17.509  0.00  0.00    +0.000 A 
ENDROOT
BRANCH   7  10
ATOM     10  C   UNL     1       1.704   8.221  19.529  0.00  0.00    +0.000 A 
ATOM     11  C   UNL     1       1.382   7.915  20.861  0.00  0.00    +0.000 A 
ATOM     12  C   UNL     1       0.498   8.715  21.586  0.00  0.00    +0.000 A 
ATOM     13  C   UNL     1      -0.068   9.838  20.989  0.00  0.00    +0.000 A 
ATOM     14  C   UNL     1       0.261  10.166  19.675  0.00  0.00    +0.000 A 
ATOM     15  C   UNL     1       1.146   9.365  18.947  0.00  0.00    +0.000 A 
ENDBRANCH   7  10
BRANCH   2  16
ATOM     16  C   UNL     1       6.650   4.102  15.735  0.00  0.00    +0.000 C 
ATOM     17  N   UNL     1       6.431   3.570  14.495  0.00  0.00    +0.000 N 
ATOM     18  O   UNL     1       7.754   4.042  16.262  0.00  0.00    +0.000 OA
ATOM     19  H   UNL     1       5.523   3.448  14.074  0.00  0.00    +0.000 HD
ATOM     20  H   UNL     1       7.209   3.094  14.047  0.00  0.00    +0.000 HD
ENDBRANCH   2  16
BRANCH   1  21
ATOM     21  N   UNL     1       6.415   6.959  16.491  0.00  0.00    +0.000 N 
ATOM     22  H   UNL     1       6.779   6.726  15.555  0.00  0.00    +0.000 HD
BRANCH  21  24
ATOM     23  C   UNL     1       7.715   8.668  17.660  0.00  0.00    +0.000 C 
ATOM     24  C   UNL     1       7.618   7.173  17.324  0.00  0.00    +0.000 C 
ATOM     25  C   UNL     1       7.608   6.375  18.620  0.00  0.00    +0.000 C 
ENDBRANCH  21  24
ENDBRANCH   1  21
TORSDOF 4
ENDMDL
MODEL 4
REMARK VINA RESULT:      -7.7      2.400      4.307
REMARK  Name = 
REMARK  6 active torsions:
REMARK  status: ('A' for Active; 'I' for Inactive)
REMARK    1  A    between atoms: C_1  and  C_2
REMARK    2  A    between atoms: C_2  and  C_3
REMARK    3  A    between atoms: C_2  and  N_4
REMARK    4  A    between atoms: N_4  and  C_5
REMARK    5  A    between atoms: C_6  and  C_7
REMARK    6  A    between atoms: C_14  and  C_15
REMARK                            x       y       z     vdW  Elec       q    Type
REMARK                         _______ _______ _______ _____ _____    ______ ____
ROOT
ATOM      1  C   UNL     1       2.990   5.169  19.383  0.00  0.00    +0.000 A 
ATOM      2  C   UNL     1       3.679   5.072  18.216  0.00  0.00    +0.000 A 
ATOM      3  C   UNL     1       3.873   6.318  17.432  0.00  0.00    +0.000 A 
ATOM      4  N   UNL     1       3.347   7.474  17.653  0.00  0.00    +0.000 NA
ATOM      5  N   UNL     1       2.602   7.487  18.776  0.00  0.00    +0.000 N 
ATOM      6  C   UNL     1       1.924   8.593  19.195  0.00  0.00    +0.000 A 
ATOM      7  C   UNL     1       1.310   8.319  20.397  0.00  0.00    +0.000 A 
ATOM      8  C   UNL     1       1.676   6.981  20.726  0.00  0.00    +0.000 A 
ATOM      9  C   UNL     1       2.420   6.456  19.680  0.00  0.00    +0.000 A 
ENDROOT
BRANCH   7  10
ATOM     10  C   UNL     1       0.518   9.308  21.114  0.00  0.00    +0.000 A 
ATOM     11  C   UNL     1       0.245   9.151  22.483  0.00  0.00    +0.000 A 
ATOM     12  C   UNL     1      -0.566  10.062  23.160  0.00  0.00    +0.000 A 
ATOM     13  C   UNL     1      -1.107  11.148  22.477  0.00  0.00    +0.000 A 
ATOM     14  C   UNL     1      -0.825  11.328  21.125  0.00  0.00    +0.000 A 
ATOM     15  C   UNL     1      -0.014  10.415  20.445  0.00  0.00    +0.000 A 
ENDBRANCH   7  10
BRANCH   2  16
ATOM     16  C   UNL     1       4.235   3.790  17.713  0.00  0.00    +0.000 C 
ATOM     17  N   UNL     1       5.452   3.876  17.100  0.00  0.00    +0.000 N 
ATOM     18  O   UNL     1       3.646   2.720  17.801  0.00  0.00    +0.000 OA
ATOM     19  H   UNL     1       5.915   4.739  16.858  0.00  0.00    +0.000 HD
ATOM     20  H   UNL     1       5.830   3.027  16.688  0.00  0.00    +0.000 HD
ENDBRANCH   2  16
BRANCH   1  21
ATOM     21  N   UNL     1       2.856   4.120  20.318  0.00  0.00    +0.000 N 
ATOM     22  H   UNL     1       3.361   3.310  19.927  0.00  0.00    +0.000 HD
BRANCH  21  24
ATOM     23  C   UNL     1       0.833   2.994  19.535  0.00  0.00    +0.000 C 
ATOM     24  C   UNL     1       1.552   3.579  20.758  0.00  0.00    +0.000 C 
ATOM     25  C   UNL     1       1.673   2.498  21.823  0.00  0.00    +0.000 C 
ENDBRANCH  21  24
ENDBRANCH   1  21
TORSDOF 4
ENDMDL
MODEL 5
REMARK VINA RESULT:      -7.7      2.346      4.149
REMARK  Name = 
REMARK  6 active torsions:
REMARK  status: ('A' for Active; 'I' for Inactive)
REMARK    1  A    between atoms: C_1  and  C_2
REMARK    2  A    between atoms: C_2  and  C_3
REMARK    3  A    between atoms: C_2  and  N_4
REMARK    4  A    between atoms: N_4  and  C_5
REMARK    5  A    between atoms: C_6  and  C_7
REMARK    6  A    between atoms: C_14  and  C_15
REMARK                            x       y       z     vdW  Elec       q    Type
REMARK                         _______ _______ _______ _____ _____    ______ ____
ROOT
ATOM      1  C   UNL     1       3.221   5.644  19.524  0.00  0.00    +0.000 A 
ATOM      2  C   UNL     1       4.074   5.191  18.568  0.00  0.00    +0.000 A 
ATOM      3  C   UNL     1       4.383   6.106  17.440  0.00  0.00    +0.000 A 
ATOM      4  N   UNL     1       3.833   7.242  17.177  0.00  0.00    +0.000 NA
ATOM      5  N   UNL     1       2.931   7.598  18.114  0.00  0.00    +0.000 N 
ATOM      6  C   UNL     1       2.202   8.747  18.031  0.00  0.00    +0.000 A 
ATOM      7  C   UNL     1       1.418   8.866  19.157  0.00  0.00    +0.000 A 
ATOM      8  C   UNL     1       1.729   7.738  19.971  0.00  0.00    +0.000 A 
ATOM      9  C   UNL     1       2.617   6.927  19.281  0.00  0.00    +0.000 A 
ENDROOT
BRANCH   7  10
ATOM     10  C   UNL     1       0.532  10.001  19.377  0.00  0.00    +0.000 A 
ATOM     11  C   UNL     1       0.587  10.731  20.575  0.00  0.00    +0.000 A 
ATOM     12  C   UNL     1      -0.303  11.778  20.816  0.00  0.00    +0.000 A 
ATOM     13  C   UNL     1      -1.253  12.114  19.857  0.00  0.00    +0.000 A 
ATOM     14  C   UNL     1      -1.304  11.413  18.653  0.00  0.00    +0.000 A 
ATOM     15  C   UNL     1      -0.413  10.362  18.411  0.00  0.00    +0.000 A 
ENDBRANCH   7  10
BRANCH   2  16
ATOM     16  C   UNL     1       4.694   3.843  18.615  0.00  0.00    +0.000 C 
ATOM     17  N   UNL     1       4.574   3.098  17.476  0.00  0.00    +0.000 N 
ATOM     18  O   UNL     1       5.253   3.393  19.608  0.00  0.00    +0.000 OA
ATOM     19  H   UNL     1       3.997   3.344  16.686  0.00  0.00    +0.000 HD
ATOM     20  H   UNL     1       4.932   2.147  17.499  0.00  0.00    +0.000 HD
ENDBRANCH   2  16
BRANCH   1  21
ATOM     21  N   UNL     1       2.950   4.968  20.733  0.00  0.00    +0.000 N 
ATOM     22  H   UNL     1       3.754   4.348  20.912  0.00  0.00    +0.000 HD
BRANCH  21  24
ATOM     23  C   UNL     1       1.140   3.802  19.575  0.00  0.00    +0.000 C 
ATOM     24  C   UNL     1       1.759   4.116  20.943  0.00  0.00    +0.000 C 
ATOM     25  C   UNL     1       2.068   2.808  21.657  0.00  0.00    +0.000 C 
ENDBRANCH  21  24
ENDBRANCH   1  21
TORSDOF 4
ENDMDL
MODEL 6
REMARK VINA RESULT:      -7.7      2.426      4.208
REMARK  Name = 
REMARK  6 active torsions:
REMARK  status: ('A' for Active; 'I' for Inactive)
REMARK    1  A    between atoms: C_1  and  C_2
REMARK    2  A    between atoms: C_2  and  C_3
REMARK    3  A    between atoms: C_2  and  N_4
REMARK    4  A    between atoms: N_4  and  C_5
REMARK    5  A    between atoms: C_6  and  C_7
REMARK    6  A    between atoms: C_14  and  C_15
REMARK                            x       y       z     vdW  Elec       q    Type
REMARK                         _______ _______ _______ _____ _____    ______ ____
ROOT
ATOM      1  C   UNL     1       3.221   5.617  19.443  0.00  0.00    +0.000 A 
ATOM      2  C   UNL     1       4.114   5.018  18.612  0.00  0.00    +0.000 A 
ATOM      3  C   UNL     1       4.587   5.800  17.442  0.00  0.00    +0.000 A 
ATOM      4  N   UNL     1       4.152   6.942  17.032  0.00  0.00    +0.000 NA
ATOM      5  N   UNL     1       3.204   7.446  17.848  0.00  0.00    +0.000 N 
ATOM      6  C   UNL     1       2.575   8.630  17.599  0.00  0.00    +0.000 A 
ATOM      7  C   UNL     1       1.710   8.908  18.634  0.00  0.00    +0.000 A 
ATOM      8  C   UNL     1       1.863   7.842  19.568  0.00  0.00    +0.000 A 
ATOM      9  C   UNL     1       2.741   6.910  19.035  0.00  0.00    +0.000 A 
ENDROOT
BRANCH   7  10
ATOM     10  C   UNL     1       0.899  10.117  18.672  0.00  0.00    +0.000 A 
ATOM     11  C   UNL     1      -0.498  10.046  18.546  0.00  0.00    +0.000 A 
ATOM     12  C   UNL     1      -1.273  11.206  18.518  0.00  0.00    +0.000 A 
ATOM     13  C   UNL     1      -0.661  12.451  18.625  0.00  0.00    +0.000 A 
ATOM     14  C   UNL     1       0.722  12.534  18.775  0.00  0.00    +0.000 A 
ATOM     15  C   UNL     1       1.500  11.373  18.802  0.00  0.00    +0.000 A 
ENDBRANCH   7  10
BRANCH   2  16
ATOM     16  C   UNL     1       4.622   3.641  18.833  0.00  0.00    +0.000 C 
ATOM     17  N   UNL     1       4.370   2.751  17.828  0.00  0.00    +0.000 N 
ATOM     18  O   UNL     1       5.202   3.292  19.854  0.00  0.00    +0.000 OA
ATOM     19  H   UNL     1       3.768   2.930  17.038  0.00  0.00    +0.000 HD
ATOM     20  H   UNL     1       4.649   1.785  17.977  0.00  0.00    +0.000 HD
ENDBRANCH   2  16
BRANCH   1  21
ATOM     21  N   UNL     1       2.796   5.077  20.676  0.00  0.00    +0.000 N 
ATOM     22  H   UNL     1       3.574   4.501  21.030  0.00  0.00    +0.000 HD
BRANCH  21  24
ATOM     23  C   UNL     1       1.102   3.834  19.427  0.00  0.00    +0.000 C 
ATOM     24  C   UNL     1       1.595   4.228  20.826  0.00  0.00    +0.000 C 
ATOM     25  C   UNL     1       1.844   2.963  21.636  0.00  0.00    +0.000 C 
ENDBRANCH  21  24
ENDBRANCH   1  21
TORSDOF 4
ENDMDL
MODEL 7
REMARK VINA RESULT:      -7.6      2.483      4.125
REMARK  Name = 
REMARK  6 active torsions:
REMARK  status: ('A' for Active; 'I' for Inactive)
REMARK    1  A    between atoms: C_1  and  C_2
REMARK    2  A    between atoms: C_2  and  C_3
REMARK    3  A    between atoms: C_2  and  N_4
REMARK    4  A    between atoms: N_4  and  C_5
REMARK    5  A    between atoms: C_6  and  C_7
REMARK    6  A    between atoms: C_14  and  C_15
REMARK                            x       y       z     vdW  Elec       q    Type
REMARK                         _______ _______ _______ _____ _____    ______ ____
ROOT
ATOM      1  C   UNL     1       3.248   5.641  19.606  0.00  0.00    +0.000 A 
ATOM      2  C   UNL     1       4.116   5.200  18.659  0.00  0.00    +0.000 A 
ATOM      3  C   UNL     1       4.409   6.111  17.524  0.00  0.00    +0.000 A 
ATOM      4  N   UNL     1       3.834   7.231  17.248  0.00  0.00    +0.000 NA
ATOM      5  N   UNL     1       2.918   7.574  18.176  0.00  0.00    +0.000 N 
ATOM      6  C   UNL     1       2.162   8.704  18.079  0.00  0.00    +0.000 A 
ATOM      7  C   UNL     1       1.369   8.815  19.199  0.00  0.00    +0.000 A 
ATOM      8  C   UNL     1       1.703   7.703  20.026  0.00  0.00    +0.000 A 
ATOM      9  C   UNL     1       2.614   6.906  19.348  0.00  0.00    +0.000 A 
ENDROOT
BRANCH   7  10
ATOM     10  C   UNL     1       0.454   9.929  19.403  0.00  0.00    +0.000 A 
ATOM     11  C   UNL     1      -0.452  10.306  18.398  0.00  0.00    +0.000 A 
ATOM     12  C   UNL     1      -1.285  11.413  18.564  0.00  0.00    +0.000 A 
ATOM     13  C   UNL     1      -1.229  12.151  19.743  0.00  0.00    +0.000 A 
ATOM     14  C   UNL     1      -0.351  11.774  20.757  0.00  0.00    +0.000 A 
ATOM     15  C   UNL     1       0.485  10.667  20.592  0.00  0.00    +0.000 A 
ENDBRANCH   7  10
BRANCH   2  16
ATOM     16  C   UNL     1       4.769   3.868  18.723  0.00  0.00    +0.000 C 
ATOM     17  N   UNL     1       6.135   3.878  18.696  0.00  0.00    +0.000 N 
ATOM     18  O   UNL     1       4.146   2.813  18.763  0.00  0.00    +0.000 OA
ATOM     19  H   UNL     1       6.700   4.693  18.508  0.00  0.00    +0.000 HD
ATOM     20  H   UNL     1       6.610   2.980  18.674  0.00  0.00    +0.000 HD
ENDBRANCH   2  16
BRANCH   1  21
ATOM     21  N   UNL     1       2.986   4.970  20.820  0.00  0.00    +0.000 N 
ATOM     22  H   UNL     1       3.786   4.341  20.988  0.00  0.00    +0.000 HD
BRANCH  21  24
ATOM     23  C   UNL     1       1.067   3.942  19.708  0.00  0.00    +0.000 C 
ATOM     24  C   UNL     1       1.789   4.132  21.049  0.00  0.00    +0.000 C 
ATOM     25  C   UNL     1       2.109   2.765  21.636  0.00  0.00    +0.000 C 
ENDBRANCH  21  24
ENDBRANCH   1  21
TORSDOF 4
ENDMDL
MODEL 8
REMARK VINA RESULT:      -7.5      2.238      3.421
REMARK  Name = 
REMARK  6 active torsions:
REMARK  status: ('A' for Active; 'I' for Inactive)
REMARK    1  A    between atoms: C_1  and  C_2
REMARK    2  A    between atoms: C_2  and  C_3
REMARK    3  A    between atoms: C_2  and  N_4
REMARK    4  A    between atoms: N_4  and  C_5
REMARK    5  A    between atoms: C_6  and  C_7
REMARK    6  A    between atoms: C_14  and  C_15
REMARK                            x       y       z     vdW  Elec       q    Type
REMARK                         _______ _______ _______ _____ _____    ______ ____
ROOT
ATOM      1  C   UNL     1       3.236   4.469  18.570  0.00  0.00    +0.000 A 
ATOM      2  C   UNL     1       3.267   3.392  19.398  0.00  0.00    +0.000 A 
ATOM      3  C   UNL     1       2.563   3.511  20.700  0.00  0.00    +0.000 A 
ATOM      4  N   UNL     1       2.030   4.568  21.211  0.00  0.00    +0.000 NA
ATOM      5  N   UNL     1       2.109   5.627  20.381  0.00  0.00    +0.000 N 
ATOM      6  C   UNL     1       1.639   6.862  20.720  0.00  0.00    +0.000 A 
ATOM      7  C   UNL     1       1.802   7.716  19.652  0.00  0.00    +0.000 A 
ATOM      8  C   UNL     1       2.369   6.931  18.606  0.00  0.00    +0.000 A 
ATOM      9  C   UNL     1       2.616   5.656  19.095  0.00  0.00    +0.000 A 
ENDROOT
BRANCH   7  10
ATOM     10  C   UNL     1       1.382   9.109  19.694  0.00  0.00    +0.000 A 
ATOM     11  C   UNL     1       1.528   9.936  18.569  0.00  0.00    +0.000 A 
ATOM     12  C   UNL     1       1.186  11.288  18.624  0.00  0.00    +0.000 A 
ATOM     13  C   UNL     1       0.685  11.827  19.805  0.00  0.00    +0.000 A 
ATOM     14  C   UNL     1       0.513  11.013  20.923  0.00  0.00    +0.000 A 
ATOM     15  C   UNL     1       0.856   9.659  20.869  0.00  0.00    +0.000 A 
ENDBRANCH   7  10
BRANCH   2  16
ATOM     16  C   UNL     1       3.964   2.128  19.049  0.00  0.00    +0.000 C 
ATOM     17  N   UNL     1       5.009   1.787  19.861  0.00  0.00    +0.000 N 
ATOM     18  O   UNL     1       3.663   1.437  18.083  0.00  0.00    +0.000 OA
ATOM     19  H   UNL     1       5.404   2.385  20.572  0.00  0.00    +0.000 HD
ATOM     20  H   UNL     1       5.546   0.961  19.611  0.00  0.00    +0.000 HD
ENDBRANCH   2  16
BRANCH   1  21
ATOM     21  N   UNL     1       3.715   4.466  17.243  0.00  0.00    +0.000 N 
ATOM     22  H   UNL     1       3.655   3.493  16.909  0.00  0.00    +0.000 HD
BRANCH  21  24
ATOM     23  C   UNL     1       5.679   3.874  15.914  0.00  0.00    +0.000 C 
ATOM     24  C   UNL     1       5.071   4.917  16.862  0.00  0.00    +0.000 C 
ATOM     25  C   UNL     1       5.089   6.276  16.178  0.00  0.00    +0.000 C 
ENDBRANCH  21  24
ENDBRANCH   1  21
TORSDOF 4
ENDMDL
MODEL 9
REMARK VINA RESULT:      -7.5      2.223      3.532
REMARK  Name = 
REMARK  6 active torsions:
REMARK  status: ('A' for Active; 'I' for Inactive)
REMARK    1  A    between atoms: C_1  and  C_2
REMARK    2  A    between atoms: C_2  and  C_3
REMARK    3  A    between atoms: C_2  and  N_4
REMARK    4  A    between atoms: N_4  and  C_5
REMARK    5  A    between atoms: C_6  and  C_7
REMARK    6  A    between atoms: C_14  and  C_15
REMARK                            x       y       z     vdW  Elec       q    Type
REMARK                         _______ _______ _______ _____ _____    ______ ____
ROOT
ATOM      1  C   UNL     1       3.229   4.495  18.577  0.00  0.00    +0.000 A 
ATOM      2  C   UNL     1       3.262   3.410  19.395  0.00  0.00    +0.000 A 
ATOM      3  C   UNL     1       2.560   3.517  20.699  0.00  0.00    +0.000 A 
ATOM      4  N   UNL     1       2.028   4.569  21.221  0.00  0.00    +0.000 NA
ATOM      5  N   UNL     1       2.105   5.636  20.401  0.00  0.00    +0.000 N 
ATOM      6  C   UNL     1       1.636   6.867  20.752  0.00  0.00    +0.000 A 
ATOM      7  C   UNL     1       1.797   7.732  19.692  0.00  0.00    +0.000 A 
ATOM      8  C   UNL     1       2.362   6.956  18.638  0.00  0.00    +0.000 A 
ATOM      9  C   UNL     1       2.610   5.677  19.114  0.00  0.00    +0.000 A 
ENDROOT
BRANCH   7  10
ATOM     10  C   UNL     1       1.376   9.124  19.748  0.00  0.00    +0.000 A 
ATOM     11  C   UNL     1       0.885   9.677  20.942  0.00  0.00    +0.000 A 
ATOM     12  C   UNL     1       0.421  10.993  20.984  0.00  0.00    +0.000 A 
ATOM     13  C   UNL     1       0.453  11.775  19.833  0.00  0.00    +0.000 A 
ATOM     14  C   UNL     1       0.960  11.246  18.648  0.00  0.00    +0.000 A 
ATOM     15  C   UNL     1       1.424   9.928  18.604  0.00  0.00    +0.000 A 
ENDBRANCH   7  10
BRANCH   2  16
ATOM     16  C   UNL     1       3.958   2.150  19.033  0.00  0.00    +0.000 C 
ATOM     17  N   UNL     1       4.996   1.795  19.847  0.00  0.00    +0.000 N 
ATOM     18  O   UNL     1       3.662   1.473  18.056  0.00  0.00    +0.000 OA
ATOM     19  H   UNL     1       5.388   2.382  20.569  0.00  0.00    +0.000 HD
ATOM     20  H   UNL     1       5.534   0.971  19.589  0.00  0.00    +0.000 HD
ENDBRANCH   2  16
BRANCH   1  21
ATOM     21  N   UNL     1       3.706   4.505  17.249  0.00  0.00    +0.000 N 
ATOM     22  H   UNL     1       3.637   3.536  16.903  0.00  0.00    +0.000 HD
BRANCH  21  24
ATOM     23  C   UNL     1       5.673   3.899  15.931  0.00  0.00    +0.000 C 
ATOM     24  C   UNL     1       5.065   4.948  16.871  0.00  0.00    +0.000 C 
ATOM     25  C   UNL     1       5.090   6.305  16.181  0.00  0.00    +0.000 C 
ENDBRANCH  21  24
ENDBRANCH   1  21
TORSDOF 4
ENDMDL
