MODEL 1
REMARK VINA RESULT:      -8.6      0.000      0.000
REMARK  Name = 
REMARK  4 active torsions:
REMARK  status: ('A' for Active; 'I' for Inactive)
REMARK    1  A    between atoms: C_1  and  C_2
REMARK    2  A    between atoms: N_7  and  C_8
REMARK    3  A    between atoms: N_14  and  S_15
REMARK    4  A    between atoms: S_15  and  C_18
REMARK                            x       y       z     vdW  Elec       q    Type
REMARK                         _______ _______ _______ _____ _____    ______ ____
ROOT
ATOM      1  C   UNL     1       3.152   6.486  18.733  0.00  0.00    +0.000 A 
ATOM      2  C   UNL     1       2.712   5.633  19.750  0.00  0.00    +0.000 A 
ATOM      3  N   UNL     1       1.865   5.931  20.767  0.00  0.00    +0.000 NA
ATOM      4  C   UNL     1       1.379   7.191  20.741  0.00  0.00    +0.000 A 
ATOM      5  C   UNL     1       0.440   7.778  21.623  0.00  0.00    +0.000 A 
ATOM      6  C   UNL     1       0.195   9.057  21.169  0.00  0.00    +0.000 A 
ATOM      7  N   UNL     1       0.979   9.251  20.054  0.00  0.00    +0.000 N 
ATOM      8  C   UNL     1       1.736   8.134  19.779  0.00  0.00    +0.000 A 
ATOM      9  C   UNL     1       2.661   7.796  18.777  0.00  0.00    +0.000 A 
ENDROOT
BRANCH   1  16
ATOM     10  C   UNL     1       6.311   3.542  14.039  0.00  0.00    +0.000 C 
ATOM     11  C   UNL     1       6.697   4.753  14.845  0.00  0.00    +0.000 C 
ATOM     12  O   UNL     1       7.596   5.496  14.450  0.00  0.00    +0.000 OA
ATOM     13  N   UNL     1       5.971   5.007  15.992  0.00  0.00    +0.000 N 
ATOM     14  C   UNL     1       6.223   6.240  16.748  0.00  0.00    +0.000 C 
ATOM     15  C   UNL     1       4.909   6.997  17.034  0.00  0.00    +0.000 C 
ATOM     16  N   UNL     1       3.960   6.079  17.690  0.00  0.00    +0.000 N 
ATOM     17  C   UNL     1       3.665   4.851  16.931  0.00  0.00    +0.000 C 
ATOM     18  C   UNL     1       4.977   4.110  16.606  0.00  0.00    +0.000 C 
ENDBRANCH   1  16
BRANCH   7  19
ATOM     19  S   UNL     1       0.812  10.630  19.066  0.00  0.00    +0.000 S 
ATOM     20  O   UNL     1       0.990  11.750  19.976  0.00  0.00    +0.000 OA
ATOM     21  O   UNL     1       1.672  10.454  17.914  0.00  0.00    +0.000 OA
BRANCH  19  22
ATOM     22  C   UNL     1      -0.847  10.680  18.508  0.00  0.00    +0.000 A 
ATOM     23  C   UNL     1      -1.238   9.909  17.387  0.00  0.00    +0.000 A 
ATOM     24  C   UNL     1      -2.558   9.919  16.865  0.00  0.00    +0.000 A 
ATOM     25  C   UNL     1      -3.594  10.690  17.421  0.00  0.00    +0.000 A 
ATOM     26  C   UNL     1      -3.226  11.442  18.551  0.00  0.00    +0.000 A 
ATOM     27  N   UNL     1      -3.980  12.254  19.300  0.00  0.00    +0.000 NA
ATOM     28  O   UNL     1      -3.146  12.741  20.287  0.00  0.00    +0.000 OA
ATOM     29  N   UNL     1      -1.864  12.245  20.161  0.00  0.00    +0.000 NA
ATOM     30  C   UNL     1      -1.870  11.438  19.094  0.00  0.00    +0.000 A 
ENDBRANCH  19  22
ENDBRANCH   7  19
TORSDOF 3
ENDMDL
MODEL 2
REMARK VINA RESULT:      -8.5      1.779      2.853
REMARK  Name = 
REMARK  4 active torsions:
REMARK  status: ('A' for Active; 'I' for Inactive)
REMARK    1  A    between atoms: C_1  and  C_2
REMARK    2  A    between atoms: N_7  and  C_8
REMARK    3  A    between atoms: N_14  and  S_15
REMARK    4  A    between atoms: S_15  and  C_18
REMARK                            x       y       z     vdW  Elec       q    Type
REMARK                         _______ _______ _______ _____ _____    ______ ____
ROOT
ATOM      1  C   UNL     1       1.466   8.517  20.379  0.00  0.00    +0.000 A 
ATOM      2  C   UNL     1       1.175   8.201  21.711  0.00  0.00    +0.000 A 
ATOM      3  N   UNL     1       0.482   8.951  22.603  0.00  0.00    +0.000 NA
ATOM      4  C   UNL     1      -0.003  10.109  22.107  0.00  0.00    +0.000 A 
ATOM      5  C   UNL     1      -0.807  11.069  22.767  0.00  0.00    +0.000 A 
ATOM      6  C   UNL     1      -1.115  12.049  21.847  0.00  0.00    +0.000 A 
ATOM      7  N   UNL     1      -0.498  11.707  20.665  0.00  0.00    +0.000 N 
ATOM      8  C   UNL     1       0.213  10.535  20.797  0.00  0.00    +0.000 A 
ATOM      9  C   UNL     1       0.985   9.750  19.924  0.00  0.00    +0.000 A 
ENDROOT
BRANCH   1  16
ATOM     10  C   UNL     1       4.493   3.800  17.336  0.00  0.00    +0.000 C 
ATOM     11  C   UNL     1       4.450   5.273  17.025  0.00  0.00    +0.000 C 
ATOM     12  O   UNL     1       4.796   5.680  15.915  0.00  0.00    +0.000 OA
ATOM     13  N   UNL     1       3.962   6.112  18.007  0.00  0.00    +0.000 N 
ATOM     14  C   UNL     1       3.782   7.540  17.714  0.00  0.00    +0.000 C 
ATOM     15  C   UNL     1       2.368   8.015  18.106  0.00  0.00    +0.000 C 
ATOM     16  N   UNL     1       2.117   7.659  19.515  0.00  0.00    +0.000 N 
ATOM     17  C   UNL     1       2.257   6.226  19.824  0.00  0.00    +0.000 C 
ATOM     18  C   UNL     1       3.654   5.734  19.397  0.00  0.00    +0.000 C 
ENDBRANCH   1  16
BRANCH   7  19
ATOM     19  S   UNL     1      -0.805  12.547  19.214  0.00  0.00    +0.000 S 
ATOM     20  O   UNL     1      -1.476  13.766  19.638  0.00  0.00    +0.000 OA
ATOM     21  O   UNL     1       0.431  12.594  18.461  0.00  0.00    +0.000 OA
BRANCH  19  22
ATOM     22  C   UNL     1      -1.969  11.612  18.300  0.00  0.00    +0.000 A 
ATOM     23  C   UNL     1      -1.527  10.757  17.261  0.00  0.00    +0.000 A 
ATOM     24  C   UNL     1      -2.415   9.988  16.463  0.00  0.00    +0.000 A 
ATOM     25  C   UNL     1      -3.809  10.003  16.640  0.00  0.00    +0.000 A 
ATOM     26  C   UNL     1      -4.261  10.829  17.685  0.00  0.00    +0.000 A 
ATOM     27  N   UNL     1      -5.512  11.044  18.103  0.00  0.00    +0.000 NA
ATOM     28  O   UNL     1      -5.412  11.930  19.158  0.00  0.00    +0.000 OA
ATOM     29  N   UNL     1      -4.101  12.282  19.404  0.00  0.00    +0.000 NA
ATOM     30  C   UNL     1      -3.354  11.625  18.510  0.00  0.00    +0.000 A 
ENDBRANCH  19  22
ENDBRANCH   7  19
TORSDOF 3
ENDMDL
MODEL 3
REMARK VINA RESULT:      -8.5      2.697      8.922
REMARK  Name = 
REMARK  4 active torsions:
REMARK  status: ('A' for Active; 'I' for Inactive)
REMARK    1  A    between atoms: C_1  and  C_2
REMARK    2  A    between atoms: N_7  and  C_8
REMARK    3  A    between atoms: N_14  and  S_15
REMARK    4  A    between atoms: S_15  and  C_18
REMARK                            x       y       z     vdW  Elec       q    Type
REMARK                         _______ _______ _______ _____ _____    ______ ____
ROOT
ATOM      1  C   UNL     1       2.298   6.579  19.686  0.00  0.00    +0.000 A 
ATOM      2  C   UNL     1       1.749   5.552  20.460  0.00  0.00    +0.000 A 
ATOM      3  N   UNL     1       2.182   4.270  20.556  0.00  0.00    +0.000 NA
ATOM      4  C   UNL     1       3.295   3.999  19.842  0.00  0.00    +0.000 A 
ATOM      5  C   UNL     1       4.015   2.781  19.782  0.00  0.00    +0.000 A 
ATOM      6  C   UNL     1       5.116   2.995  18.980  0.00  0.00    +0.000 A 
ATOM      7  N   UNL     1       5.058   4.300  18.545  0.00  0.00    +0.000 N 
ATOM      8  C   UNL     1       3.939   4.937  19.035  0.00  0.00    +0.000 A 
ATOM      9  C   UNL     1       3.421   6.238  18.924  0.00  0.00    +0.000 A 
ENDROOT
BRANCH   1  16
ATOM     10  C   UNL     1      -0.230  12.311  20.884  0.00  0.00    +0.000 C 
ATOM     11  C   UNL     1       0.084  11.655  19.565  0.00  0.00    +0.000 C 
ATOM     12  O   UNL     1       0.139  12.332  18.538  0.00  0.00    +0.000 OA
ATOM     13  N   UNL     1       0.353  10.301  19.581  0.00  0.00    +0.000 N 
ATOM     14  C   UNL     1       0.786   9.636  18.345  0.00  0.00    +0.000 C 
ATOM     15  C   UNL     1       2.065   8.805  18.579  0.00  0.00    +0.000 C 
ATOM     16  N   UNL     1       1.836   7.880  19.705  0.00  0.00    +0.000 N 
ATOM     17  C   UNL     1       1.436   8.530  20.965  0.00  0.00    +0.000 C 
ATOM     18  C   UNL     1       0.182   9.396  20.731  0.00  0.00    +0.000 C 
ENDBRANCH   1  16
BRANCH   7  19
ATOM     19  S   UNL     1       6.349   5.027  17.703  0.00  0.00    +0.000 S 
ATOM     20  O   UNL     1       6.112   6.455  17.842  0.00  0.00    +0.000 OA
ATOM     21  O   UNL     1       7.578   4.420  18.172  0.00  0.00    +0.000 OA
BRANCH  19  22
ATOM     22  C   UNL     1       6.158   4.637  16.007  0.00  0.00    +0.000 A 
ATOM     23  C   UNL     1       5.053   3.860  15.582  0.00  0.00    +0.000 A 
ATOM     24  C   UNL     1       4.846   3.485  14.228  0.00  0.00    +0.000 A 
ATOM     25  C   UNL     1       5.718   3.860  13.191  0.00  0.00    +0.000 A 
ATOM     26  C   UNL     1       6.807   4.653  13.594  0.00  0.00    +0.000 A 
ATOM     27  N   UNL     1       7.790   5.170  12.850  0.00  0.00    +0.000 NA
ATOM     28  O   UNL     1       8.599   5.869  13.723  0.00  0.00    +0.000 OA
ATOM     29  N   UNL     1       8.135   5.791  15.020  0.00  0.00    +0.000 NA
ATOM     30  C   UNL     1       7.027   5.042  14.986  0.00  0.00    +0.000 A 
ENDBRANCH  19  22
ENDBRANCH   7  19
TORSDOF 3
ENDMDL
MODEL 4
REMARK VINA RESULT:      -8.4      2.007      2.547
REMARK  Name = 
REMARK  4 active torsions:
REMARK  status: ('A' for Active; 'I' for Inactive)
REMARK    1  A    between atoms: C_1  and  C_2
REMARK    2  A    between atoms: N_7  and  C_8
REMARK    3  A    between atoms: N_14  and  S_15
REMARK    4  A    between atoms: S_15  and  C_18
REMARK                            x       y       z     vdW  Elec       q    Type
REMARK                         _______ _______ _______ _____ _____    ______ ____
ROOT
ATOM      1  C   UNL     1       3.225   6.524  18.681  0.00  0.00    +0.000 A 
ATOM      2  C   UNL     1       2.880   5.705  19.761  0.00  0.00    +0.000 A 
ATOM      3  N   UNL     1       2.056   6.008  20.795  0.00  0.00    +0.000 NA
ATOM      4  C   UNL     1       1.490   7.232  20.722  0.00  0.00    +0.000 A 
ATOM      5  C   UNL     1       0.550   7.810  21.609  0.00  0.00    +0.000 A 
ATOM      6  C   UNL     1       0.207   9.042  21.097  0.00  0.00    +0.000 A 
ATOM      7  N   UNL     1       0.932   9.221  19.941  0.00  0.00    +0.000 N 
ATOM      8  C   UNL     1       1.748   8.139  19.695  0.00  0.00    +0.000 A 
ATOM      9  C   UNL     1       2.653   7.802  18.674  0.00  0.00    +0.000 A 
ENDROOT
BRANCH   1  16
ATOM     10  C   UNL     1       6.273   3.558  13.928  0.00  0.00    +0.000 C 
ATOM     11  C   UNL     1       6.700   4.744  14.752  0.00  0.00    +0.000 C 
ATOM     12  O   UNL     1       7.620   5.465  14.365  0.00  0.00    +0.000 OA
ATOM     13  N   UNL     1       5.986   5.002  15.905  0.00  0.00    +0.000 N 
ATOM     14  C   UNL     1       6.279   6.215  16.680  0.00  0.00    +0.000 C 
ATOM     15  C   UNL     1       4.991   7.007  16.983  0.00  0.00    +0.000 C 
ATOM     16  N   UNL     1       4.016   6.109  17.628  0.00  0.00    +0.000 N 
ATOM     17  C   UNL     1       3.680   4.903  16.851  0.00  0.00    +0.000 C 
ATOM     18  C   UNL     1       4.967   4.127  16.509  0.00  0.00    +0.000 C 
ENDBRANCH   1  16
BRANCH   7  19
ATOM     19  S   UNL     1       0.639  10.528  18.887  0.00  0.00    +0.000 S 
ATOM     20  O   UNL     1       1.964  10.968  18.480  0.00  0.00    +0.000 OA
ATOM     21  O   UNL     1      -0.341  10.097  17.911  0.00  0.00    +0.000 OA
BRANCH  19  22
ATOM     22  C   UNL     1      -0.064  11.821  19.834  0.00  0.00    +0.000 A 
ATOM     23  C   UNL     1      -1.459  12.058  19.780  0.00  0.00    +0.000 A 
ATOM     24  C   UNL     1      -2.094  13.103  20.502  0.00  0.00    +0.000 A 
ATOM     25  C   UNL     1      -1.393  13.989  21.339  0.00  0.00    +0.000 A 
ATOM     26  C   UNL     1      -0.010  13.750  21.422  0.00  0.00    +0.000 A 
ATOM     27  N   UNL     1       0.913  14.404  22.135  0.00  0.00    +0.000 NA
ATOM     28  O   UNL     1       2.113  13.771  21.872  0.00  0.00    +0.000 OA
ATOM     29  N   UNL     1       1.953  12.723  20.990  0.00  0.00    +0.000 NA
ATOM     30  C   UNL     1       0.652  12.677  20.682  0.00  0.00    +0.000 A 
ENDBRANCH  19  22
ENDBRANCH   7  19
TORSDOF 3
ENDMDL
MODEL 5
REMARK VINA RESULT:      -8.3      1.348      1.655
REMARK  Name = 
REMARK  4 active torsions:
REMARK  status: ('A' for Active; 'I' for Inactive)
REMARK    1  A    between atoms: C_1  and  C_2
REMARK    2  A    between atoms: N_7  and  C_8
REMARK    3  A    between atoms: N_14  and  S_15
REMARK    4  A    between atoms: S_15  and  C_18
REMARK                            x       y       z     vdW  Elec       q    Type
REMARK                         _______ _______ _______ _____ _____    ______ ____
ROOT
ATOM      1  C   UNL     1       3.145   6.495  18.713  0.00  0.00    +0.000 A 
ATOM      2  C   UNL     1       2.667   5.635  19.707  0.00  0.00    +0.000 A 
ATOM      3  N   UNL     1       1.810   5.936  20.714  0.00  0.00    +0.000 NA
ATOM      4  C   UNL     1       1.354   7.207  20.703  0.00  0.00    +0.000 A 
ATOM      5  C   UNL     1       0.413   7.801  21.579  0.00  0.00    +0.000 A 
ATOM      6  C   UNL     1       0.207   9.093  21.144  0.00  0.00    +0.000 A 
ATOM      7  N   UNL     1       1.015   9.288  20.046  0.00  0.00    +0.000 N 
ATOM      8  C   UNL     1       1.750   8.158  19.764  0.00  0.00    +0.000 A 
ATOM      9  C   UNL     1       2.685   7.816  18.772  0.00  0.00    +0.000 A 
ENDROOT
BRANCH   1  16
ATOM     10  C   UNL     1       6.327   3.554  14.033  0.00  0.00    +0.000 C 
ATOM     11  C   UNL     1       6.719   4.752  14.857  0.00  0.00    +0.000 C 
ATOM     12  O   UNL     1       7.633   5.486  14.481  0.00  0.00    +0.000 OA
ATOM     13  N   UNL     1       5.981   5.005  15.996  0.00  0.00    +0.000 N 
ATOM     14  C   UNL     1       6.239   6.227  16.768  0.00  0.00    +0.000 C 
ATOM     15  C   UNL     1       4.932   6.999  17.043  0.00  0.00    +0.000 C 
ATOM     16  N   UNL     1       3.962   6.087  17.677  0.00  0.00    +0.000 N 
ATOM     17  C   UNL     1       3.661   4.871  16.902  0.00  0.00    +0.000 C 
ATOM     18  C   UNL     1       4.967   4.115  16.588  0.00  0.00    +0.000 C 
ENDBRANCH   1  16
BRANCH   7  19
ATOM     19  S   UNL     1       0.898  10.688  19.080  0.00  0.00    +0.000 S 
ATOM     20  O   UNL     1       1.599  11.710  19.841  0.00  0.00    +0.000 OA
ATOM     21  O   UNL     1       1.312  10.333  17.739  0.00  0.00    +0.000 OA
BRANCH  19  22
ATOM     22  C   UNL     1      -0.789  11.152  19.028  0.00  0.00    +0.000 A 
ATOM     23  C   UNL     1      -1.284  12.115  19.941  0.00  0.00    +0.000 A 
ATOM     24  C   UNL     1      -2.644  12.522  19.973  0.00  0.00    +0.000 A 
ATOM     25  C   UNL     1      -3.616  12.009  19.096  0.00  0.00    +0.000 A 
ATOM     26  C   UNL     1      -3.133  11.070  18.167  0.00  0.00    +0.000 A 
ATOM     27  N   UNL     1      -3.800  10.420  17.207  0.00  0.00    +0.000 NA
ATOM     28  O   UNL     1      -2.869   9.621  16.573  0.00  0.00    +0.000 OA
ATOM     29  N   UNL     1      -1.615   9.759  17.133  0.00  0.00    +0.000 NA
ATOM     30  C   UNL     1      -1.735  10.645  18.128  0.00  0.00    +0.000 A 
ENDBRANCH  19  22
ENDBRANCH   7  19
TORSDOF 3
ENDMDL
MODEL 6
REMARK VINA RESULT:      -8.2      2.285      3.076
REMARK  Name = 
REMARK  4 active torsions:
REMARK  status: ('A' for Active; 'I' for Inactive)
REMARK    1  A    between atoms: C_1  and  C_2
REMARK    2  A    between atoms: N_7  and  C_8
REMARK    3  A    between atoms: N_14  and  S_15
REMARK    4  A    between atoms: S_15  and  C_18
REMARK                            x       y       z     vdW  Elec       q    Type
REMARK                         _______ _______ _______ _____ _____    ______ ____
ROOT
ATOM      1  C   UNL     1       3.009   6.735  18.911  0.00  0.00    +0.000 A 
ATOM      2  C   UNL     1       2.690   5.964  20.033  0.00  0.00    +0.000 A 
ATOM      3  N   UNL     1       1.843   6.287  21.041  0.00  0.00    +0.000 NA
ATOM      4  C   UNL     1       1.222   7.478  20.894  0.00  0.00    +0.000 A 
ATOM      5  C   UNL     1       0.248   8.062  21.739  0.00  0.00    +0.000 A 
ATOM      6  C   UNL     1      -0.144   9.247  21.154  0.00  0.00    +0.000 A 
ATOM      7  N   UNL     1       0.585   9.392  19.995  0.00  0.00    +0.000 N 
ATOM      8  C   UNL     1       1.451   8.336  19.819  0.00  0.00    +0.000 A 
ATOM      9  C   UNL     1       2.381   7.983  18.826  0.00  0.00    +0.000 A 
ENDROOT
BRANCH   1  16
ATOM     10  C   UNL     1       6.238   3.645  14.361  0.00  0.00    +0.000 C 
ATOM     11  C   UNL     1       6.602   4.894  15.119  0.00  0.00    +0.000 C 
ATOM     12  O   UNL     1       7.493   5.633  14.698  0.00  0.00    +0.000 OA
ATOM     13  N   UNL     1       5.865   5.185  16.249  0.00  0.00    +0.000 N 
ATOM     14  C   UNL     1       6.096   6.452  16.956  0.00  0.00    +0.000 C 
ATOM     15  C   UNL     1       4.770   7.201  17.202  0.00  0.00    +0.000 C 
ATOM     16  N   UNL     1       3.829   6.297  17.890  0.00  0.00    +0.000 N 
ATOM     17  C   UNL     1       3.556   5.035  17.181  0.00  0.00    +0.000 C 
ATOM     18  C   UNL     1       4.881   4.299  16.894  0.00  0.00    +0.000 C 
ENDBRANCH   1  16
BRANCH   7  19
ATOM     19  S   UNL     1       0.244  10.623  18.866  0.00  0.00    +0.000 S 
ATOM     20  O   UNL     1       0.690  10.077  17.593  0.00  0.00    +0.000 OA
ATOM     21  O   UNL     1      -1.129  11.037  19.065  0.00  0.00    +0.000 OA
BRANCH  19  22
ATOM     22  C   UNL     1       1.285  11.980  19.236  0.00  0.00    +0.000 A 
ATOM     23  C   UNL     1       2.267  12.392  18.302  0.00  0.00    +0.000 A 
ATOM     24  C   UNL     1       3.161  13.468  18.544  0.00  0.00    +0.000 A 
ATOM     25  C   UNL     1       3.145  14.222  19.730  0.00  0.00    +0.000 A 
ATOM     26  C   UNL     1       2.158  13.841  20.657  0.00  0.00    +0.000 A 
ATOM     27  N   UNL     1       1.886  14.366  21.856  0.00  0.00    +0.000 NA
ATOM     28  O   UNL     1       0.826  13.636  22.357  0.00  0.00    +0.000 OA
ATOM     29  N   UNL     1       0.432  12.645  21.482  0.00  0.00    +0.000 NA
ATOM     30  C   UNL     1       1.234  12.735  20.416  0.00  0.00    +0.000 A 
ENDBRANCH  19  22
ENDBRANCH   7  19
TORSDOF 3
ENDMDL
MODEL 7
REMARK VINA RESULT:      -8.2      2.999      8.594
REMARK  Name = 
REMARK  4 active torsions:
REMARK  status: ('A' for Active; 'I' for Inactive)
REMARK    1  A    between atoms: C_1  and  C_2
REMARK    2  A    between atoms: N_7  and  C_8
REMARK    3  A    between atoms: N_14  and  S_15
REMARK    4  A    between atoms: S_15  and  C_18
REMARK                            x       y       z     vdW  Elec       q    Type
REMARK                         _______ _______ _______ _____ _____    ______ ____
ROOT
ATOM      1  C   UNL     1       2.177   6.415  18.847  0.00  0.00    +0.000 A 
ATOM      2  C   UNL     1       1.613   5.371  19.588  0.00  0.00    +0.000 A 
ATOM      3  N   UNL     1       1.845   4.042  19.447  0.00  0.00    +0.000 NA
ATOM      4  C   UNL     1       2.759   3.728  18.504  0.00  0.00    +0.000 A 
ATOM      5  C   UNL     1       3.253   2.445  18.165  0.00  0.00    +0.000 A 
ATOM      6  C   UNL     1       4.217   2.620  17.195  0.00  0.00    +0.000 A 
ATOM      7  N   UNL     1       4.294   3.970  16.935  0.00  0.00    +0.000 N 
ATOM      8  C   UNL     1       3.395   4.675  17.703  0.00  0.00    +0.000 A 
ATOM      9  C   UNL     1       3.081   6.038  17.847  0.00  0.00    +0.000 A 
ENDROOT
BRANCH   1  16
ATOM     10  C   UNL     1       0.681  12.185  21.116  0.00  0.00    +0.000 C 
ATOM     11  C   UNL     1       0.842  11.724  19.692  0.00  0.00    +0.000 C 
ATOM     12  O   UNL     1       0.980  12.549  18.789  0.00  0.00    +0.000 OA
ATOM     13  N   UNL     1       0.882  10.362  19.469  0.00  0.00    +0.000 N 
ATOM     14  C   UNL     1       1.160   9.859  18.117  0.00  0.00    +0.000 C 
ATOM     15  C   UNL     1       2.288   8.806  18.137  0.00  0.00    +0.000 C 
ATOM     16  N   UNL     1       1.941   7.750  19.106  0.00  0.00    +0.000 N 
ATOM     17  C   UNL     1       1.692   8.229  20.477  0.00  0.00    +0.000 C 
ATOM     18  C   UNL     1       0.595   9.312  20.461  0.00  0.00    +0.000 C 
ENDBRANCH   1  16
BRANCH   7  19
ATOM     19  S   UNL     1       5.520   4.628  15.949  0.00  0.00    +0.000 S 
ATOM     20  O   UNL     1       6.340   3.484  15.582  0.00  0.00    +0.000 OA
ATOM     21  O   UNL     1       4.882   5.449  14.941  0.00  0.00    +0.000 OA
BRANCH  19  22
ATOM     22  C   UNL     1       6.506   5.665  16.957  0.00  0.00    +0.000 A 
ATOM     23  C   UNL     1       6.987   6.895  16.445  0.00  0.00    +0.000 A 
ATOM     24  C   UNL     1       7.811   7.775  17.196  0.00  0.00    +0.000 A 
ATOM     25  C   UNL     1       8.214   7.504  18.516  0.00  0.00    +0.000 A 
ATOM     26  C   UNL     1       7.722   6.298  19.046  0.00  0.00    +0.000 A 
ATOM     27  N   UNL     1       7.916   5.775  20.261  0.00  0.00    +0.000 NA
ATOM     28  O   UNL     1       7.214   4.586  20.278  0.00  0.00    +0.000 OA
ATOM     29  N   UNL     1       6.583   4.351  19.074  0.00  0.00    +0.000 NA
ATOM     30  C   UNL     1       6.875   5.387  18.280  0.00  0.00    +0.000 A 
ENDBRANCH  19  22
ENDBRANCH   7  19
TORSDOF 3
ENDMDL
MODEL 8
REMARK VINA RESULT:      -8.1      1.030      1.119
REMARK  Name = 
REMARK  4 active torsions:
REMARK  status: ('A' for Active; 'I' for Inactive)
REMARK    1  A    between atoms: C_1  and  C_2
REMARK    2  A    between atoms: N_7  and  C_8
REMARK    3  A    between atoms: N_14  and  S_15
REMARK    4  A    between atoms: S_15  and  C_18
REMARK                            x       y       z     vdW  Elec       q    Type
REMARK                         _______ _______ _______ _____ _____    ______ ____
ROOT
ATOM      1  C   UNL     1       2.419   7.194  19.326  0.00  0.00    +0.000 A 
ATOM      2  C   UNL     1       2.003   6.467  20.446  0.00  0.00    +0.000 A 
ATOM      3  N   UNL     1       1.194   6.890  21.449  0.00  0.00    +0.000 NA
ATOM      4  C   UNL     1       0.721   8.146  21.298  0.00  0.00    +0.000 A 
ATOM      5  C   UNL     1      -0.181   8.843  22.138  0.00  0.00    +0.000 A 
ATOM      6  C   UNL     1      -0.426  10.066  21.551  0.00  0.00    +0.000 A 
ATOM      7  N   UNL     1       0.322  10.122  20.397  0.00  0.00    +0.000 N 
ATOM      8  C   UNL     1       1.057   8.971  20.225  0.00  0.00    +0.000 A 
ATOM      9  C   UNL     1       1.944   8.509  19.238  0.00  0.00    +0.000 A 
ENDROOT
BRANCH   1  16
ATOM     10  C   UNL     1       5.656   3.661  15.118  0.00  0.00    +0.000 C 
ATOM     11  C   UNL     1       5.847   5.102  15.511  0.00  0.00    +0.000 C 
ATOM     12  O   UNL     1       6.516   5.852  14.800  0.00  0.00    +0.000 OA
ATOM     13  N   UNL     1       5.202   5.535  16.652  0.00  0.00    +0.000 N 
ATOM     14  C   UNL     1       5.252   6.958  17.014  0.00  0.00    +0.000 C 
ATOM     15  C   UNL     1       3.840   7.510  17.297  0.00  0.00    +0.000 C 
ATOM     16  N   UNL     1       3.187   6.661  18.310  0.00  0.00    +0.000 N 
ATOM     17  C   UNL     1       3.094   5.235  17.952  0.00  0.00    +0.000 C 
ATOM     18  C   UNL     1       4.497   4.685  17.627  0.00  0.00    +0.000 C 
ENDBRANCH   1  16
BRANCH   7  19
ATOM     19  S   UNL     1       0.138  11.384  19.266  0.00  0.00    +0.000 S 
ATOM     20  O   UNL     1      -0.038  12.576  20.081  0.00  0.00    +0.000 OA
ATOM     21  O   UNL     1       1.221  11.282  18.310  0.00  0.00    +0.000 OA
BRANCH  19  22
ATOM     22  C   UNL     1      -1.369  11.115  18.417  0.00  0.00    +0.000 A 
ATOM     23  C   UNL     1      -1.394  10.282  17.272  0.00  0.00    +0.000 A 
ATOM     24  C   UNL     1      -2.574  10.038  16.520  0.00  0.00    +0.000 A 
ATOM     25  C   UNL     1      -3.821  10.597  16.852  0.00  0.00    +0.000 A 
ATOM     26  C   UNL     1      -3.816  11.406  18.002  0.00  0.00    +0.000 A 
ATOM     27  N   UNL     1      -4.833  12.059  18.573  0.00  0.00    +0.000 NA
ATOM     28  O   UNL     1      -4.302  12.698  19.676  0.00  0.00    +0.000 OA
ATOM     29  N   UNL     1      -2.949  12.457  19.801  0.00  0.00    +0.000 NA
ATOM     30  C   UNL     1      -2.606  11.663  18.781  0.00  0.00    +0.000 A 
ENDBRANCH  19  22
ENDBRANCH   7  19
TORSDOF 3
ENDMDL
MODEL 9
REMARK VINA RESULT:      -8.0      3.563      5.570
REMARK  Name = 
REMARK  4 active torsions:
REMARK  status: ('A' for Active; 'I' for Inactive)
REMARK    1  A    between atoms: C_1  and  C_2
REMARK    2  A    between atoms: N_7  and  C_8
REMARK    3  A    between atoms: N_14  and  S_15
REMARK    4  A    between atoms: S_15  and  C_18
REMARK                            x       y       z     vdW  Elec       q    Type
REMARK                         _______ _______ _______ _____ _____    ______ ____
ROOT
ATOM      1  C   UNL     1       1.254  11.047  19.335  0.00  0.00    +0.000 A 
ATOM      2  C   UNL     1       1.990  11.999  18.623  0.00  0.00    +0.000 A 
ATOM      3  N   UNL     1       1.953  13.347  18.769  0.00  0.00    +0.000 NA
ATOM      4  C   UNL     1       1.131  13.783  19.748  0.00  0.00    +0.000 A 
ATOM      5  C   UNL     1       0.921  15.116  20.178  0.00  0.00    +0.000 A 
ATOM      6  C   UNL     1       0.050  15.070  21.245  0.00  0.00    +0.000 A 
ATOM      7  N   UNL     1      -0.278  13.748  21.448  0.00  0.00    +0.000 N 
ATOM      8  C   UNL     1       0.348  12.935  20.530  0.00  0.00    +0.000 A 
ATOM      9  C   UNL     1       0.379  11.549  20.305  0.00  0.00    +0.000 A 
ENDROOT
BRANCH   1  16
ATOM     10  C   UNL     1       1.758   4.704  19.781  0.00  0.00    +0.000 C 
ATOM     11  C   UNL     1       2.304   5.641  18.736  0.00  0.00    +0.000 C 
ATOM     12  O   UNL     1       2.686   5.199  17.652  0.00  0.00    +0.000 OA
ATOM     13  N   UNL     1       2.300   6.989  19.032  0.00  0.00    +0.000 N 
ATOM     14  C   UNL     1       2.705   7.956  18.003  0.00  0.00    +0.000 C 
ATOM     15  C   UNL     1       1.658   9.079  17.851  0.00  0.00    +0.000 C 
ATOM     16  N   UNL     1       1.409   9.684  19.173  0.00  0.00    +0.000 N 
ATOM     17  C   UNL     1       0.967   8.738  20.211  0.00  0.00    +0.000 C 
ATOM     18  C   UNL     1       1.987   7.590  20.341  0.00  0.00    +0.000 C 
ENDBRANCH   1  16
BRANCH   7  19
ATOM     19  S   UNL     1      -1.166  13.240  22.812  0.00  0.00    +0.000 S 
ATOM     20  O   UNL     1      -0.724  11.874  23.041  0.00  0.00    +0.000 OA
ATOM     21  O   UNL     1      -1.023  14.256  23.834  0.00  0.00    +0.000 OA
BRANCH  19  22
ATOM     22  C   UNL     1      -2.851  13.165  22.345  0.00  0.00    +0.000 A 
ATOM     23  C   UNL     1      -3.240  13.556  21.041  0.00  0.00    +0.000 A 
ATOM     24  C   UNL     1      -4.590  13.544  20.601  0.00  0.00    +0.000 A 
ATOM     25  C   UNL     1      -5.657  13.135  21.421  0.00  0.00    +0.000 A 
ATOM     26  C   UNL     1      -5.282  12.719  22.711  0.00  0.00    +0.000 A 
ATOM     27  N   UNL     1      -6.055  12.269  23.704  0.00  0.00    +0.000 NA
ATOM     28  O   UNL     1      -5.201  11.992  24.753  0.00  0.00    +0.000 OA
ATOM     29  N   UNL     1      -3.889  12.273  24.429  0.00  0.00    +0.000 NA
ATOM     30  C   UNL     1      -3.896  12.730  23.172  0.00  0.00    +0.000 A 
ENDBRANCH  19  22
ENDBRANCH   7  19
TORSDOF 3
ENDMDL
