MODEL 1
REMARK VINA RESULT:      -8.9      0.000      0.000
REMARK  Name = 
REMARK  9 active torsions:
REMARK  status: ('A' for Active; 'I' for Inactive)
REMARK    1  A    between atoms: C_1  and  O_2
REMARK    2  A    between atoms: O_2  and  C_3
REMARK    3  A    between atoms: C_6  and  C_7
REMARK    4  A    between atoms: C_7  and  C_8
REMARK    5  A    between atoms: N_10  and  C_11
REMARK    6  A    between atoms: N_10  and  C_12
REMARK    7  A    between atoms: C_12  and  C_13
REMARK    8  A    between atoms: C_13  and  C_14
REMARK    9  A    between atoms: C_14  and  N_15
REMARK                            x       y       z     vdW  Elec       q    Type
REMARK                         _______ _______ _______ _____ _____    ______ ____
ROOT
ATOM      1  C   UNL     1       4.081   6.122  19.042  0.00  0.00    +0.000 C 
ENDROOT
BRANCH   1   2
ATOM      2  N   UNL     1       4.571   4.704  19.226  0.00  0.00    +0.000 N 
ATOM      3  C   UNL     1       3.437   3.940  19.705  0.00  0.00    +0.000 A 
ATOM      4  C   UNL     1       2.859   4.318  20.937  0.00  0.00    +0.000 A 
ATOM      5  C   UNL     1       1.712   3.698  21.425  0.00  0.00    +0.000 A 
ATOM      6  C   UNL     1       1.107   2.674  20.721  0.00  0.00    +0.000 A 
ATOM      7  C   UNL     1       1.683   2.248  19.537  0.00  0.00    +0.000 A 
ATOM      8  C   UNL     1       2.839   2.873  19.011  0.00  0.00    +0.000 A 
ATOM      9  C   UNL     1       3.342   2.347  17.699  0.00  0.00    +0.000 C 
ATOM     10  C   UNL     1       3.462   3.427  16.625  0.00  0.00    +0.000 C 
ATOM     11  C   UNL     1       4.709   4.246  16.787  0.00  0.00    +0.000 A 
ATOM     12  C   UNL     1       5.363   4.680  15.632  0.00  0.00    +0.000 A 
ATOM     13  C   UNL     1       6.730   4.901  15.669  0.00  0.00    +0.000 A 
ATOM     14  C   UNL     1       7.425   4.701  16.861  0.00  0.00    +0.000 A 
ATOM     15  C   UNL     1       6.720   4.529  18.057  0.00  0.00    +0.000 A 
ATOM     16  C   UNL     1       5.327   4.412  18.037  0.00  0.00    +0.000 A 
ENDBRANCH   1   2
BRANCH   1  17
ATOM     17  C   UNL     1       2.594   6.289  18.717  0.00  0.00    +0.000 C 
BRANCH  17  18
ATOM     18  C   UNL     1       1.982   7.400  19.600  0.00  0.00    +0.000 C 
BRANCH  18  21
ATOM     19  C   UNL     1       0.967   9.637  19.556  0.00  0.00    +0.000 C 
ATOM     20  O   UNL     1       0.575   9.463  20.724  0.00  0.00    +0.000 OA
ATOM     21  N   UNL     1       1.762   8.694  18.923  0.00  0.00    +0.000 N 
ATOM     22  C   UNL     1       2.371   8.882  17.603  0.00  0.00    +0.000 C 
BRANCH  19  23
ATOM     23  C   UNL     1       0.509  10.885  18.808  0.00  0.00    +0.000 C 
BRANCH  23  27
ATOM     24  C   UNL     1      -3.685  10.743  17.773  0.00  0.00    +0.000 A 
ATOM     25  C   UNL     1      -3.200  11.703  18.657  0.00  0.00    +0.000 A 
ATOM     26  C   UNL     1      -1.842  11.760  18.980  0.00  0.00    +0.000 A 
ATOM     27  C   UNL     1      -0.948  10.823  18.437  0.00  0.00    +0.000 A 
ATOM     28  C   UNL     1      -1.443   9.843  17.559  0.00  0.00    +0.000 A 
ATOM     29  C   UNL     1      -2.799   9.810  17.223  0.00  0.00    +0.000 A 
BRANCH  24  31
ATOM     30  C   UNL     1      -5.814  11.335  18.656  0.00  0.00    +0.000 C 
ATOM     31  O   UNL     1      -5.043  10.759  17.610  0.00  0.00    +0.000 OA
ENDBRANCH  24  31
ENDBRANCH  23  27
ENDBRANCH  19  23
ENDBRANCH  18  21
ENDBRANCH  17  18
ENDBRANCH   1  17
TORSDOF 7
ENDMDL
MODEL 2
REMARK VINA RESULT:      -8.9      1.000      1.084
REMARK  Name = 
REMARK  9 active torsions:
REMARK  status: ('A' for Active; 'I' for Inactive)
REMARK    1  A    between atoms: C_1  and  O_2
REMARK    2  A    between atoms: O_2  and  C_3
REMARK    3  A    between atoms: C_6  and  C_7
REMARK    4  A    between atoms: C_7  and  C_8
REMARK    5  A    between atoms: N_10  and  C_11
REMARK    6  A    between atoms: N_10  and  C_12
REMARK    7  A    between atoms: C_12  and  C_13
REMARK    8  A    between atoms: C_13  and  C_14
REMARK    9  A    between atoms: C_14  and  N_15
REMARK                            x       y       z     vdW  Elec       q    Type
REMARK                         _______ _______ _______ _____ _____    ______ ____
ROOT
ATOM      1  C   UNL     1       2.809   6.374  17.789  0.00  0.00    +0.000 C 
ENDROOT
BRANCH   1   2
ATOM      2  N   UNL     1       3.744   5.566  18.659  0.00  0.00    +0.000 N 
ATOM      3  C   UNL     1       2.927   4.571  19.321  0.00  0.00    +0.000 A 
ATOM      4  C   UNL     1       1.894   5.025  20.172  0.00  0.00    +0.000 A 
ATOM      5  C   UNL     1       1.004   4.139  20.775  0.00  0.00    +0.000 A 
ATOM      6  C   UNL     1       1.114   2.777  20.571  0.00  0.00    +0.000 A 
ATOM      7  C   UNL     1       2.150   2.301  19.785  0.00  0.00    +0.000 A 
ATOM      8  C   UNL     1       3.056   3.182  19.147  0.00  0.00    +0.000 A 
ATOM      9  C   UNL     1       4.109   2.545  18.288  0.00  0.00    +0.000 C 
ATOM     10  C   UNL     1       4.111   3.070  16.853  0.00  0.00    +0.000 C 
ATOM     11  C   UNL     1       4.805   4.396  16.740  0.00  0.00    +0.000 A 
ATOM     12  C   UNL     1       5.552   4.648  15.587  0.00  0.00    +0.000 A 
ATOM     13  C   UNL     1       6.629   5.517  15.653  0.00  0.00    +0.000 A 
ATOM     14  C   UNL     1       6.938   6.135  16.864  0.00  0.00    +0.000 A 
ATOM     15  C   UNL     1       6.029   6.078  17.926  0.00  0.00    +0.000 A 
ATOM     16  C   UNL     1       4.882   5.285  17.824  0.00  0.00    +0.000 A 
ENDBRANCH   1   2
BRANCH   1  17
ATOM     17  C   UNL     1       2.864   7.895  17.964  0.00  0.00    +0.000 C 
BRANCH  17  18
ATOM     18  C   UNL     1       1.893   8.332  19.084  0.00  0.00    +0.000 C 
BRANCH  18  21
ATOM     19  C   UNL     1       0.355  10.107  19.810  0.00  0.00    +0.000 C 
ATOM     20  O   UNL     1      -0.065   9.352  20.704  0.00  0.00    +0.000 OA
ATOM     21  N   UNL     1       1.406   9.723  18.990  0.00  0.00    +0.000 N 
ATOM     22  C   UNL     1       2.045  10.600  18.004  0.00  0.00    +0.000 C 
BRANCH  19  23
ATOM     23  C   UNL     1      -0.343  11.444  19.590  0.00  0.00    +0.000 C 
BRANCH  23  27
ATOM     24  C   UNL     1      -4.330  10.997  17.979  0.00  0.00    +0.000 A 
ATOM     25  C   UNL     1      -4.041  11.999  18.901  0.00  0.00    +0.000 A 
ATOM     26  C   UNL     1      -2.749  12.155  19.410  0.00  0.00    +0.000 A 
ATOM     27  C   UNL     1      -1.726  11.276  19.019  0.00  0.00    +0.000 A 
ATOM     28  C   UNL     1      -2.024  10.253  18.102  0.00  0.00    +0.000 A 
ATOM     29  C   UNL     1      -3.314  10.121  17.580  0.00  0.00    +0.000 A 
BRANCH  24  31
ATOM     30  C   UNL     1      -6.407  12.117  17.678  0.00  0.00    +0.000 C 
ATOM     31  O   UNL     1      -5.649  10.917  17.627  0.00  0.00    +0.000 OA
ENDBRANCH  24  31
ENDBRANCH  23  27
ENDBRANCH  19  23
ENDBRANCH  18  21
ENDBRANCH  17  18
ENDBRANCH   1  17
TORSDOF 7
ENDMDL
MODEL 3
REMARK VINA RESULT:      -8.8      1.311      1.689
REMARK  Name = 
REMARK  9 active torsions:
REMARK  status: ('A' for Active; 'I' for Inactive)
REMARK    1  A    between atoms: C_1  and  O_2
REMARK    2  A    between atoms: O_2  and  C_3
REMARK    3  A    between atoms: C_6  and  C_7
REMARK    4  A    between atoms: C_7  and  C_8
REMARK    5  A    between atoms: N_10  and  C_11
REMARK    6  A    between atoms: N_10  and  C_12
REMARK    7  A    between atoms: C_12  and  C_13
REMARK    8  A    between atoms: C_13  and  C_14
REMARK    9  A    between atoms: C_14  and  N_15
REMARK                            x       y       z     vdW  Elec       q    Type
REMARK                         _______ _______ _______ _____ _____    ______ ____
ROOT
ATOM      1  C   UNL     1       3.839   5.965  19.964  0.00  0.00    +0.000 C 
ENDROOT
BRANCH   1   2
ATOM      2  N   UNL     1       4.634   4.749  19.549  0.00  0.00    +0.000 N 
ATOM      3  C   UNL     1       3.667   3.748  19.148  0.00  0.00    +0.000 A 
ATOM      4  C   UNL     1       2.740   3.299  20.115  0.00  0.00    +0.000 A 
ATOM      5  C   UNL     1       1.720   2.409  19.789  0.00  0.00    +0.000 A 
ATOM      6  C   UNL     1       1.591   1.920  18.503  0.00  0.00    +0.000 A 
ATOM      7  C   UNL     1       2.518   2.301  17.548  0.00  0.00    +0.000 A 
ATOM      8  C   UNL     1       3.553   3.218  17.850  0.00  0.00    +0.000 A 
ATOM      9  C   UNL     1       4.468   3.584  16.718  0.00  0.00    +0.000 C 
ATOM     10  C   UNL     1       4.539   5.089  16.466  0.00  0.00    +0.000 C 
ATOM     11  C   UNL     1       5.449   5.780  17.440  0.00  0.00    +0.000 A 
ATOM     12  C   UNL     1       6.212   6.854  16.975  0.00  0.00    +0.000 A 
ATOM     13  C   UNL     1       7.423   7.139  17.585  0.00  0.00    +0.000 A 
ATOM     14  C   UNL     1       7.851   6.360  18.658  0.00  0.00    +0.000 A 
ATOM     15  C   UNL     1       6.962   5.471  19.272  0.00  0.00    +0.000 A 
ATOM     16  C   UNL     1       5.694   5.259  18.721  0.00  0.00    +0.000 A 
ENDBRANCH   1   2
BRANCH   1  17
ATOM     17  C   UNL     1       2.584   6.268  19.140  0.00  0.00    +0.000 C 
BRANCH  17  18
ATOM     18  C   UNL     1       2.655   7.707  18.580  0.00  0.00    +0.000 C 
BRANCH  18  21
ATOM     19  C   UNL     1       1.410   9.824  18.472  0.00  0.00    +0.000 C 
ATOM     20  O   UNL     1       1.823   9.986  17.310  0.00  0.00    +0.000 OA
ATOM     21  N   UNL     1       1.699   8.664  19.175  0.00  0.00    +0.000 N 
ATOM     22  C   UNL     1       1.145   8.338  20.492  0.00  0.00    +0.000 C 
BRANCH  19  23
ATOM     23  C   UNL     1       0.627  10.950  19.137  0.00  0.00    +0.000 C 
BRANCH  23  27
ATOM     24  C   UNL     1      -3.550  10.972  18.023  0.00  0.00    +0.000 A 
ATOM     25  C   UNL     1      -3.056  11.878  18.958  0.00  0.00    +0.000 A 
ATOM     26  C   UNL     1      -1.703  11.882  19.307  0.00  0.00    +0.000 A 
ATOM     27  C   UNL     1      -0.825  10.947  18.738  0.00  0.00    +0.000 A 
ATOM     28  C   UNL     1      -1.329  10.021  17.807  0.00  0.00    +0.000 A 
ATOM     29  C   UNL     1      -2.679  10.041  17.446  0.00  0.00    +0.000 A 
BRANCH  24  31
ATOM     30  C   UNL     1      -5.403  12.123  17.074  0.00  0.00    +0.000 C 
ATOM     31  O   UNL     1      -4.903  11.034  17.837  0.00  0.00    +0.000 OA
ENDBRANCH  24  31
ENDBRANCH  23  27
ENDBRANCH  19  23
ENDBRANCH  18  21
ENDBRANCH  17  18
ENDBRANCH   1  17
TORSDOF 7
ENDMDL
MODEL 4
REMARK VINA RESULT:      -8.8      1.052      1.584
REMARK  Name = 
REMARK  9 active torsions:
REMARK  status: ('A' for Active; 'I' for Inactive)
REMARK    1  A    between atoms: C_1  and  O_2
REMARK    2  A    between atoms: O_2  and  C_3
REMARK    3  A    between atoms: C_6  and  C_7
REMARK    4  A    between atoms: C_7  and  C_8
REMARK    5  A    between atoms: N_10  and  C_11
REMARK    6  A    between atoms: N_10  and  C_12
REMARK    7  A    between atoms: C_12  and  C_13
REMARK    8  A    between atoms: C_13  and  C_14
REMARK    9  A    between atoms: C_14  and  N_15
REMARK                            x       y       z     vdW  Elec       q    Type
REMARK                         _______ _______ _______ _____ _____    ______ ____
ROOT
ATOM      1  C   UNL     1       3.750   6.420  19.789  0.00  0.00    +0.000 C 
ENDROOT
BRANCH   1   2
ATOM      2  N   UNL     1       4.422   5.082  19.580  0.00  0.00    +0.000 N 
ATOM      3  C   UNL     1       3.371   4.148  19.232  0.00  0.00    +0.000 A 
ATOM      4  C   UNL     1       2.344   3.928  20.178  0.00  0.00    +0.000 A 
ATOM      5  C   UNL     1       1.249   3.117  19.889  0.00  0.00    +0.000 A 
ATOM      6  C   UNL     1       1.139   2.486  18.664  0.00  0.00    +0.000 A 
ATOM      7  C   UNL     1       2.157   2.643  17.739  0.00  0.00    +0.000 A 
ATOM      8  C   UNL     1       3.272   3.474  18.002  0.00  0.00    +0.000 A 
ATOM      9  C   UNL     1       4.286   3.594  16.903  0.00  0.00    +0.000 C 
ATOM     10  C   UNL     1       4.545   5.039  16.480  0.00  0.00    +0.000 C 
ATOM     11  C   UNL     1       5.471   5.746  17.427  0.00  0.00    +0.000 A 
ATOM     12  C   UNL     1       6.378   6.664  16.893  0.00  0.00    +0.000 A 
ATOM     13  C   UNL     1       7.577   6.893  17.549  0.00  0.00    +0.000 A 
ATOM     14  C   UNL     1       7.849   6.214  18.735  0.00  0.00    +0.000 A 
ATOM     15  C   UNL     1       6.830   5.510  19.385  0.00  0.00    +0.000 A 
ATOM     16  C   UNL     1       5.580   5.367  18.775  0.00  0.00    +0.000 A 
ENDBRANCH   1   2
BRANCH   1  17
ATOM     17  C   UNL     1       2.405   6.620  19.084  0.00  0.00    +0.000 C 
BRANCH  17  18
ATOM     18  C   UNL     1       1.561   7.667  19.846  0.00  0.00    +0.000 C 
BRANCH  18  21
ATOM     19  C   UNL     1       0.578   9.918  19.754  0.00  0.00    +0.000 C 
ATOM     20  O   UNL     1       0.206   9.784  20.933  0.00  0.00    +0.000 OA
ATOM     21  N   UNL     1       1.347   8.944  19.135  0.00  0.00    +0.000 N 
ATOM     22  C   UNL     1       1.935   9.083  17.799  0.00  0.00    +0.000 C 
BRANCH  19  23
ATOM     23  C   UNL     1       0.126  11.149  18.977  0.00  0.00    +0.000 C 
BRANCH  23  27
ATOM     24  C   UNL     1      -4.100  11.033  18.073  0.00  0.00    +0.000 A 
ATOM     25  C   UNL     1      -3.219  10.125  17.490  0.00  0.00    +0.000 A 
ATOM     26  C   UNL     1      -1.856  10.151  17.793  0.00  0.00    +0.000 A 
ATOM     27  C   UNL     1      -1.348  11.120  18.673  0.00  0.00    +0.000 A 
ATOM     28  C   UNL     1      -2.236  12.048  19.247  0.00  0.00    +0.000 A 
ATOM     29  C   UNL     1      -3.602  11.997  18.956  0.00  0.00    +0.000 A 
BRANCH  24  31
ATOM     30  C   UNL     1      -6.406  10.792  18.607  0.00  0.00    +0.000 C 
ATOM     31  O   UNL     1      -5.388  10.937  17.626  0.00  0.00    +0.000 OA
ENDBRANCH  24  31
ENDBRANCH  23  27
ENDBRANCH  19  23
ENDBRANCH  18  21
ENDBRANCH  17  18
ENDBRANCH   1  17
TORSDOF 7
ENDMDL
MODEL 5
REMARK VINA RESULT:      -8.6      2.140      2.561
REMARK  Name = 
REMARK  9 active torsions:
REMARK  status: ('A' for Active; 'I' for Inactive)
REMARK    1  A    between atoms: C_1  and  O_2
REMARK    2  A    between atoms: O_2  and  C_3
REMARK    3  A    between atoms: C_6  and  C_7
REMARK    4  A    between atoms: C_7  and  C_8
REMARK    5  A    between atoms: N_10  and  C_11
REMARK    6  A    between atoms: N_10  and  C_12
REMARK    7  A    between atoms: C_12  and  C_13
REMARK    8  A    between atoms: C_13  and  C_14
REMARK    9  A    between atoms: C_14  and  N_15
REMARK                            x       y       z     vdW  Elec       q    Type
REMARK                         _______ _______ _______ _____ _____    ______ ____
ROOT
ATOM      1  C   UNL     1       2.807   6.564  17.840  0.00  0.00    +0.000 C 
ENDROOT
BRANCH   1   2
ATOM      2  N   UNL     1       3.720   5.679  18.658  0.00  0.00    +0.000 N 
ATOM      3  C   UNL     1       2.875   4.676  19.270  0.00  0.00    +0.000 A 
ATOM      4  C   UNL     1       1.862   5.114  20.152  0.00  0.00    +0.000 A 
ATOM      5  C   UNL     1       0.947   4.226  20.712  0.00  0.00    +0.000 A 
ATOM      6  C   UNL     1       1.012   2.874  20.433  0.00  0.00    +0.000 A 
ATOM      7  C   UNL     1       2.027   2.410  19.614  0.00  0.00    +0.000 A 
ATOM      8  C   UNL     1       2.958   3.295  19.019  0.00  0.00    +0.000 A 
ATOM      9  C   UNL     1       3.985   2.673  18.118  0.00  0.00    +0.000 C 
ATOM     10  C   UNL     1       3.996   3.277  16.714  0.00  0.00    +0.000 C 
ATOM     11  C   UNL     1       4.732   4.584  16.669  0.00  0.00    +0.000 A 
ATOM     12  C   UNL     1       5.480   4.875  15.526  0.00  0.00    +0.000 A 
ATOM     13  C   UNL     1       6.585   5.705  15.633  0.00  0.00    +0.000 A 
ATOM     14  C   UNL     1       6.920   6.245  16.873  0.00  0.00    +0.000 A 
ATOM     15  C   UNL     1       6.016   6.158  17.937  0.00  0.00    +0.000 A 
ATOM     16  C   UNL     1       4.844   5.409  17.800  0.00  0.00    +0.000 A 
ENDBRANCH   1   2
BRANCH   1  17
ATOM     17  C   UNL     1       2.925   8.071  18.085  0.00  0.00    +0.000 C 
BRANCH  17  18
ATOM     18  C   UNL     1       1.518   8.693  18.239  0.00  0.00    +0.000 C 
BRANCH  18  21
ATOM     19  C   UNL     1       1.061  10.741  19.517  0.00  0.00    +0.000 C 
ATOM     20  O   UNL     1       0.943  11.362  18.445  0.00  0.00    +0.000 OA
ATOM     21  N   UNL     1       1.265   9.370  19.527  0.00  0.00    +0.000 N 
ATOM     22  C   UNL     1       1.284   8.548  20.741  0.00  0.00    +0.000 C 
BRANCH  19  23
ATOM     23  C   UNL     1       1.036  11.525  20.825  0.00  0.00    +0.000 C 
BRANCH  23  27
ATOM     24  C   UNL     1      -2.982  12.272  22.232  0.00  0.00    +0.000 A 
ATOM     25  C   UNL     1      -2.035  11.675  23.060  0.00  0.00    +0.000 A 
ATOM     26  C   UNL     1      -0.732  11.448  22.612  0.00  0.00    +0.000 A 
ATOM     27  C   UNL     1      -0.367  11.792  21.301  0.00  0.00    +0.000 A 
ATOM     28  C   UNL     1      -1.330  12.378  20.460  0.00  0.00    +0.000 A 
ATOM     29  C   UNL     1      -2.624  12.624  20.926  0.00  0.00    +0.000 A 
BRANCH  24  31
ATOM     30  C   UNL     1      -5.186  13.157  22.086  0.00  0.00    +0.000 C 
ATOM     31  O   UNL     1      -4.233  12.362  22.778  0.00  0.00    +0.000 OA
ENDBRANCH  24  31
ENDBRANCH  23  27
ENDBRANCH  19  23
ENDBRANCH  18  21
ENDBRANCH  17  18
ENDBRANCH   1  17
TORSDOF 7
ENDMDL
MODEL 6
REMARK VINA RESULT:      -8.5      1.113      1.531
REMARK  Name = 
REMARK  9 active torsions:
REMARK  status: ('A' for Active; 'I' for Inactive)
REMARK    1  A    between atoms: C_1  and  O_2
REMARK    2  A    between atoms: O_2  and  C_3
REMARK    3  A    between atoms: C_6  and  C_7
REMARK    4  A    between atoms: C_7  and  C_8
REMARK    5  A    between atoms: N_10  and  C_11
REMARK    6  A    between atoms: N_10  and  C_12
REMARK    7  A    between atoms: C_12  and  C_13
REMARK    8  A    between atoms: C_13  and  C_14
REMARK    9  A    between atoms: C_14  and  N_15
REMARK                            x       y       z     vdW  Elec       q    Type
REMARK                         _______ _______ _______ _____ _____    ______ ____
ROOT
ATOM      1  C   UNL     1       3.005   6.507  17.799  0.00  0.00    +0.000 C 
ENDROOT
BRANCH   1   2
ATOM      2  N   UNL     1       3.875   5.667  18.707  0.00  0.00    +0.000 N 
ATOM      3  C   UNL     1       2.994   4.706  19.338  0.00  0.00    +0.000 A 
ATOM      4  C   UNL     1       1.947   5.201  20.147  0.00  0.00    +0.000 A 
ATOM      5  C   UNL     1       1.002   4.352  20.716  0.00  0.00    +0.000 A 
ATOM      6  C   UNL     1       1.068   2.985  20.519  0.00  0.00    +0.000 A 
ATOM      7  C   UNL     1       2.114   2.469  19.775  0.00  0.00    +0.000 A 
ATOM      8  C   UNL     1       3.078   3.312  19.172  0.00  0.00    +0.000 A 
ATOM      9  C   UNL     1       4.138   2.633  18.356  0.00  0.00    +0.000 C 
ATOM     10  C   UNL     1       4.217   3.153  16.921  0.00  0.00    +0.000 C 
ATOM     11  C   UNL     1       4.964   4.452  16.833  0.00  0.00    +0.000 A 
ATOM     12  C   UNL     1       5.765   4.671  15.710  0.00  0.00    +0.000 A 
ATOM     13  C   UNL     1       6.871   5.500  15.817  0.00  0.00    +0.000 A 
ATOM     14  C   UNL     1       7.155   6.109  17.038  0.00  0.00    +0.000 A 
ATOM     15  C   UNL     1       6.204   6.090  18.063  0.00  0.00    +0.000 A 
ATOM     16  C   UNL     1       5.033   5.341  17.918  0.00  0.00    +0.000 A 
ENDBRANCH   1   2
BRANCH   1  17
ATOM     17  C   UNL     1       2.962   8.008  18.101  0.00  0.00    +0.000 C 
BRANCH  17  18
ATOM     18  C   UNL     1       1.614   8.375  18.762  0.00  0.00    +0.000 C 
BRANCH  18  21
ATOM     19  C   UNL     1       0.382  10.239  19.784  0.00  0.00    +0.000 C 
ATOM     20  O   UNL     1      -0.120   9.440  20.594  0.00  0.00    +0.000 OA
ATOM     21  N   UNL     1       1.338   9.822  18.870  0.00  0.00    +0.000 N 
ATOM     22  C   UNL     1       2.070  10.721  17.974  0.00  0.00    +0.000 C 
BRANCH  19  23
ATOM     23  C   UNL     1      -0.116  11.680  19.772  0.00  0.00    +0.000 C 
BRANCH  23  27
ATOM     24  C   UNL     1      -4.315  11.928  18.775  0.00  0.00    +0.000 A 
ATOM     25  C   UNL     1      -3.425  11.243  17.952  0.00  0.00    +0.000 A 
ATOM     26  C   UNL     1      -2.071  11.149  18.281  0.00  0.00    +0.000 A 
ATOM     27  C   UNL     1      -1.581  11.774  19.439  0.00  0.00    +0.000 A 
ATOM     28  C   UNL     1      -2.478  12.481  20.260  0.00  0.00    +0.000 A 
ATOM     29  C   UNL     1      -3.835  12.548  19.935  0.00  0.00    +0.000 A 
BRANCH  24  31
ATOM     30  C   UNL     1      -6.404  10.844  18.424  0.00  0.00    +0.000 C 
ATOM     31  O   UNL     1      -5.591  12.002  18.290  0.00  0.00    +0.000 OA
ENDBRANCH  24  31
ENDBRANCH  23  27
ENDBRANCH  19  23
ENDBRANCH  18  21
ENDBRANCH  17  18
ENDBRANCH   1  17
TORSDOF 7
ENDMDL
MODEL 7
REMARK VINA RESULT:      -8.5      1.308      1.697
REMARK  Name = 
REMARK  9 active torsions:
REMARK  status: ('A' for Active; 'I' for Inactive)
REMARK    1  A    between atoms: C_1  and  O_2
REMARK    2  A    between atoms: O_2  and  C_3
REMARK    3  A    between atoms: C_6  and  C_7
REMARK    4  A    between atoms: C_7  and  C_8
REMARK    5  A    between atoms: N_10  and  C_11
REMARK    6  A    between atoms: N_10  and  C_12
REMARK    7  A    between atoms: C_12  and  C_13
REMARK    8  A    between atoms: C_13  and  C_14
REMARK    9  A    between atoms: C_14  and  N_15
REMARK                            x       y       z     vdW  Elec       q    Type
REMARK                         _______ _______ _______ _____ _____    ______ ____
ROOT
ATOM      1  C   UNL     1       2.863   6.418  17.895  0.00  0.00    +0.000 C 
ENDROOT
BRANCH   1   2
ATOM      2  N   UNL     1       3.790   5.567  18.732  0.00  0.00    +0.000 N 
ATOM      3  C   UNL     1       2.960   4.564  19.367  0.00  0.00    +0.000 A 
ATOM      4  C   UNL     1       1.940   5.007  20.239  0.00  0.00    +0.000 A 
ATOM      5  C   UNL     1       1.040   4.117  20.819  0.00  0.00    +0.000 A 
ATOM      6  C   UNL     1       1.126   2.760  20.570  0.00  0.00    +0.000 A 
ATOM      7  C   UNL     1       2.148   2.293  19.761  0.00  0.00    +0.000 A 
ATOM      8  C   UNL     1       3.066   3.179  19.147  0.00  0.00    +0.000 A 
ATOM      9  C   UNL     1       4.102   2.554  18.260  0.00  0.00    +0.000 C 
ATOM     10  C   UNL     1       4.104   3.125  16.843  0.00  0.00    +0.000 C 
ATOM     11  C   UNL     1       4.819   4.443  16.769  0.00  0.00    +0.000 A 
ATOM     12  C   UNL     1       5.563   4.720  15.620  0.00  0.00    +0.000 A 
ATOM     13  C   UNL     1       6.655   5.569  15.707  0.00  0.00    +0.000 A 
ATOM     14  C   UNL     1       6.981   6.141  16.935  0.00  0.00    +0.000 A 
ATOM     15  C   UNL     1       6.079   6.065  18.001  0.00  0.00    +0.000 A 
ATOM     16  C   UNL     1       4.918   5.294  17.881  0.00  0.00    +0.000 A 
ENDBRANCH   1   2
BRANCH   1  17
ATOM     17  C   UNL     1       2.922   7.928  18.143  0.00  0.00    +0.000 C 
BRANCH  17  18
ATOM     18  C   UNL     1       1.957   8.312  19.289  0.00  0.00    +0.000 C 
BRANCH  18  21
ATOM     19  C   UNL     1       0.159   9.869  19.908  0.00  0.00    +0.000 C 
ATOM     20  O   UNL     1      -0.182   9.086  20.813  0.00  0.00    +0.000 OA
ATOM     21  N   UNL     1       1.282   9.617  19.134  0.00  0.00    +0.000 N 
ATOM     22  C   UNL     1       1.825  10.548  18.141  0.00  0.00    +0.000 C 
BRANCH  19  23
ATOM     23  C   UNL     1      -0.714  11.086  19.624  0.00  0.00    +0.000 C 
BRANCH  23  27
ATOM     24  C   UNL     1      -3.296  10.447  16.217  0.00  0.00    +0.000 A 
ATOM     25  C   UNL     1      -3.202   9.496  17.230  0.00  0.00    +0.000 A 
ATOM     26  C   UNL     1      -2.381   9.708  18.339  0.00  0.00    +0.000 A 
ATOM     27  C   UNL     1      -1.609  10.878  18.432  0.00  0.00    +0.000 A 
ATOM     28  C   UNL     1      -1.692  11.829  17.399  0.00  0.00    +0.000 A 
ATOM     29  C   UNL     1      -2.536  11.618  16.306  0.00  0.00    +0.000 A 
BRANCH  24  31
ATOM     30  C   UNL     1      -3.476  10.077  13.873  0.00  0.00    +0.000 C 
ATOM     31  O   UNL     1      -4.079  10.071  15.160  0.00  0.00    +0.000 OA
ENDBRANCH  24  31
ENDBRANCH  23  27
ENDBRANCH  19  23
ENDBRANCH  18  21
ENDBRANCH  17  18
ENDBRANCH   1  17
TORSDOF 7
ENDMDL
MODEL 8
REMARK VINA RESULT:      -8.4      1.427      1.859
REMARK  Name = 
REMARK  9 active torsions:
REMARK  status: ('A' for Active; 'I' for Inactive)
REMARK    1  A    between atoms: C_1  and  O_2
REMARK    2  A    between atoms: O_2  and  C_3
REMARK    3  A    between atoms: C_6  and  C_7
REMARK    4  A    between atoms: C_7  and  C_8
REMARK    5  A    between atoms: N_10  and  C_11
REMARK    6  A    between atoms: N_10  and  C_12
REMARK    7  A    between atoms: C_12  and  C_13
REMARK    8  A    between atoms: C_13  and  C_14
REMARK    9  A    between atoms: C_14  and  N_15
REMARK                            x       y       z     vdW  Elec       q    Type
REMARK                         _______ _______ _______ _____ _____    ______ ____
ROOT
ATOM      1  C   UNL     1       3.253   6.465  19.222  0.00  0.00    +0.000 C 
ENDROOT
BRANCH   1   2
ATOM      2  N   UNL     1       3.944   5.137  19.437  0.00  0.00    +0.000 N 
ATOM      3  C   UNL     1       2.931   4.118  19.258  0.00  0.00    +0.000 A 
ATOM      4  C   UNL     1       1.821   4.128  20.131  0.00  0.00    +0.000 A 
ATOM      5  C   UNL     1       0.759   3.242  19.971  0.00  0.00    +0.000 A 
ATOM      6  C   UNL     1       0.765   2.306  18.953  0.00  0.00    +0.000 A 
ATOM      7  C   UNL     1       1.865   2.239  18.115  0.00  0.00    +0.000 A 
ATOM      8  C   UNL     1       2.949   3.139  18.247  0.00  0.00    +0.000 A 
ATOM      9  C   UNL     1       4.062   2.991  17.252  0.00  0.00    +0.000 C 
ATOM     10  C   UNL     1       4.357   4.279  16.484  0.00  0.00    +0.000 C 
ATOM     11  C   UNL     1       5.189   5.235  17.289  0.00  0.00    +0.000 A 
ATOM     12  C   UNL     1       6.140   6.003  16.614  0.00  0.00    +0.000 A 
ATOM     13  C   UNL     1       7.272   6.429  17.290  0.00  0.00    +0.000 A 
ATOM     14  C   UNL     1       7.433   6.096  18.634  0.00  0.00    +0.000 A 
ATOM     15  C   UNL     1       6.358   5.562  19.353  0.00  0.00    +0.000 A 
ATOM     16  C   UNL     1       5.172   5.230  18.693  0.00  0.00    +0.000 A 
ENDBRANCH   1   2
BRANCH   1  17
ATOM     17  C   UNL     1       1.974   6.702  20.030  0.00  0.00    +0.000 C 
BRANCH  17  18
ATOM     18  C   UNL     1       1.998   8.117  20.652  0.00  0.00    +0.000 C 
BRANCH  18  21
ATOM     19  C   UNL     1       0.588   9.971  19.868  0.00  0.00    +0.000 C 
ATOM     20  O   UNL     1       1.492  10.301  19.080  0.00  0.00    +0.000 OA
ATOM     21  N   UNL     1       0.704   8.830  20.648  0.00  0.00    +0.000 N 
ATOM     22  C   UNL     1      -0.364   8.301  21.500  0.00  0.00    +0.000 C 
BRANCH  19  23
ATOM     23  C   UNL     1      -0.630  10.877  20.008  0.00  0.00    +0.000 C 
BRANCH  23  27
ATOM     24  C   UNL     1      -3.216  10.755  16.547  0.00  0.00    +0.000 A 
ATOM     25  C   UNL     1      -3.509  11.583  17.628  0.00  0.00    +0.000 A 
ATOM     26  C   UNL     1      -2.665  11.635  18.740  0.00  0.00    +0.000 A 
ATOM     27  C   UNL     1      -1.520  10.825  18.796  0.00  0.00    +0.000 A 
ATOM     28  C   UNL     1      -1.236   9.976  17.711  0.00  0.00    +0.000 A 
ATOM     29  C   UNL     1      -2.073   9.949  16.592  0.00  0.00    +0.000 A 
BRANCH  24  31
ATOM     30  C   UNL     1      -3.855  10.062  14.362  0.00  0.00    +0.000 C 
ATOM     31  O   UNL     1      -4.168  10.751  15.565  0.00  0.00    +0.000 OA
ENDBRANCH  24  31
ENDBRANCH  23  27
ENDBRANCH  19  23
ENDBRANCH  18  21
ENDBRANCH  17  18
ENDBRANCH   1  17
TORSDOF 7
ENDMDL
MODEL 9
REMARK VINA RESULT:      -8.3      2.070      2.535
REMARK  Name = 
REMARK  9 active torsions:
REMARK  status: ('A' for Active; 'I' for Inactive)
REMARK    1  A    between atoms: C_1  and  O_2
REMARK    2  A    between atoms: O_2  and  C_3
REMARK    3  A    between atoms: C_6  and  C_7
REMARK    4  A    between atoms: C_7  and  C_8
REMARK    5  A    between atoms: N_10  and  C_11
REMARK    6  A    between atoms: N_10  and  C_12
REMARK    7  A    between atoms: C_12  and  C_13
REMARK    8  A    between atoms: C_13  and  C_14
REMARK    9  A    between atoms: C_14  and  N_15
REMARK                            x       y       z     vdW  Elec       q    Type
REMARK                         _______ _______ _______ _____ _____    ______ ____
ROOT
ATOM      1  C   UNL     1       3.208   6.555  18.937  0.00  0.00    +0.000 C 
ENDROOT
BRANCH   1   2
ATOM      2  N   UNL     1       3.892   5.264  19.324  0.00  0.00    +0.000 N 
ATOM      3  C   UNL     1       2.882   4.229  19.247  0.00  0.00    +0.000 A 
ATOM      4  C   UNL     1       1.755   4.343  20.090  0.00  0.00    +0.000 A 
ATOM      5  C   UNL     1       0.695   3.442  20.016  0.00  0.00    +0.000 A 
ATOM      6  C   UNL     1       0.720   2.392  19.118  0.00  0.00    +0.000 A 
ATOM      7  C   UNL     1       1.837   2.226  18.317  0.00  0.00    +0.000 A 
ATOM      8  C   UNL     1       2.919   3.137  18.362  0.00  0.00    +0.000 A 
ATOM      9  C   UNL     1       4.052   2.872  17.414  0.00  0.00    +0.000 C 
ATOM     10  C   UNL     1       4.364   4.059  16.504  0.00  0.00    +0.000 C 
ATOM     11  C   UNL     1       5.181   5.105  17.205  0.00  0.00    +0.000 A 
ATOM     12  C   UNL     1       6.147   5.788  16.462  0.00  0.00    +0.000 A 
ATOM     13  C   UNL     1       7.266   6.293  17.105  0.00  0.00    +0.000 A 
ATOM     14  C   UNL     1       7.399   6.123  18.482  0.00  0.00    +0.000 A 
ATOM     15  C   UNL     1       6.309   5.679  19.238  0.00  0.00    +0.000 A 
ATOM     16  C   UNL     1       5.136   5.268  18.599  0.00  0.00    +0.000 A 
ENDBRANCH   1   2
BRANCH   1  17
ATOM     17  C   UNL     1       2.341   7.212  20.015  0.00  0.00    +0.000 C 
BRANCH  17  18
ATOM     18  C   UNL     1       1.654   8.473  19.444  0.00  0.00    +0.000 C 
BRANCH  18  21
ATOM     19  C   UNL     1       0.871  10.733  20.008  0.00  0.00    +0.000 C 
ATOM     20  O   UNL     1       0.778  10.984  18.794  0.00  0.00    +0.000 OA
ATOM     21  N   UNL     1       1.221   9.466  20.448  0.00  0.00    +0.000 N 
ATOM     22  C   UNL     1       1.225   9.053  21.855  0.00  0.00    +0.000 C 
BRANCH  19  23
ATOM     23  C   UNL     1       0.650  11.861  21.010  0.00  0.00    +0.000 C 
BRANCH  23  27
ATOM     24  C   UNL     1      -3.535  12.504  21.879  0.00  0.00    +0.000 A 
ATOM     25  C   UNL     1      -2.650  12.112  22.880  0.00  0.00    +0.000 A 
ATOM     26  C   UNL     1      -1.294  11.920  22.604  0.00  0.00    +0.000 A 
ATOM     27  C   UNL     1      -0.809  12.090  21.297  0.00  0.00    +0.000 A 
ATOM     28  C   UNL     1      -1.708  12.468  20.284  0.00  0.00    +0.000 A 
ATOM     29  C   UNL     1      -3.058  12.682  20.575  0.00  0.00    +0.000 A 
BRANCH  24  31
ATOM     30  C   UNL     1      -5.833  12.274  21.308  0.00  0.00    +0.000 C 
ATOM     31  O   UNL     1      -4.841  12.580  22.277  0.00  0.00    +0.000 OA
ENDBRANCH  24  31
ENDBRANCH  23  27
ENDBRANCH  19  23
ENDBRANCH  18  21
ENDBRANCH  17  18
ENDBRANCH   1  17
TORSDOF 7
ENDMDL
