MODEL 1
REMARK VINA RESULT:      -7.2      0.000      0.000
REMARK  Name = 
REMARK  4 active torsions:
REMARK  status: ('A' for Active; 'I' for Inactive)
REMARK    1  A    between atoms: C_1  and  C_2
REMARK    2  A    between atoms: N_9  and  C_10
REMARK    3  A    between atoms: C_13  and  O_14
REMARK    4  A    between atoms: O_14  and  C_15
REMARK                            x       y       z     vdW  Elec       q    Type
REMARK                         _______ _______ _______ _____ _____    ______ ____
ROOT
ATOM      1  C   UNL     1       0.919   2.226  18.838  0.00  0.00    +0.000 C 
ATOM      2  C   UNL     1       0.765   3.351  19.866  0.00  0.00    +0.000 C 
ATOM      3  C   UNL     1       1.031   2.854  21.295  0.00  0.00    +0.000 C 
ATOM      4  C   UNL     1       2.512   2.570  21.537  0.00  0.00    +0.000 C 
ATOM      5  C   UNL     1       3.361   3.781  21.168  0.00  0.00    +0.000 C 
ATOM      6  N   UNL     1       3.089   4.230  19.798  0.00  0.00    +0.000 N 
ATOM      7  C   UNL     1       4.157   4.274  18.912  0.00  0.00    +0.000 C 
ATOM      8  O   UNL     1       5.273   3.886  19.263  0.00  0.00    +0.000 OA
ATOM      9  N   UNL     1       3.890   4.783  17.660  0.00  0.00    +0.000 N 
ATOM     10  C   UNL     1       1.684   4.537  19.522  0.00  0.00    +0.000 C 
ATOM     11  H   UNL     1       3.105   5.407  17.590  0.00  0.00    +0.000 HD
ENDROOT
BRANCH   9  12
ATOM     12  C   UNL     1       4.794   4.800  16.571  0.00  0.00    +0.000 A 
ATOM     13  C   UNL     1       5.297   5.976  16.013  0.00  0.00    +0.000 A 
ATOM     14  C   UNL     1       6.168   5.938  14.922  0.00  0.00    +0.000 A 
ATOM     15  C   UNL     1       6.579   4.719  14.385  0.00  0.00    +0.000 A 
ATOM     16  C   UNL     1       6.074   3.539  14.925  0.00  0.00    +0.000 A 
ATOM     17  C   UNL     1       5.206   3.577  16.027  0.00  0.00    +0.000 A 
BRANCH  15  18
ATOM     18  O   UNL     1       7.383   4.817  13.293  0.00  0.00    +0.000 OA
BRANCH  18  19
ATOM     19  C   UNL     1       6.986   4.190  12.081  0.00  0.00    +0.000 C 
ATOM     20  F   UNL     1       7.503   2.961  11.889  0.00  0.00    +0.000 F 
ATOM     21  F   UNL     1       5.638   4.095  12.063  0.00  0.00    +0.000 F 
ATOM     22  F   UNL     1       7.364   4.971  11.044  0.00  0.00    +0.000 F 
ENDBRANCH  18  19
ENDBRANCH  15  18
ENDBRANCH   9  12
TORSDOF 3
ENDMDL
MODEL 2
REMARK VINA RESULT:      -7.2      4.295      4.935
REMARK  Name = 
REMARK  4 active torsions:
REMARK  status: ('A' for Active; 'I' for Inactive)
REMARK    1  A    between atoms: C_1  and  C_2
REMARK    2  A    between atoms: N_9  and  C_10
REMARK    3  A    between atoms: C_13  and  O_14
REMARK    4  A    between atoms: O_14  and  C_15
REMARK                            x       y       z     vdW  Elec       q    Type
REMARK                         _______ _______ _______ _____ _____    ______ ____
ROOT
ATOM      1  C   UNL     1       1.410   4.478  20.782  0.00  0.00    +0.000 C 
ATOM      2  C   UNL     1       1.775   2.991  20.786  0.00  0.00    +0.000 C 
ATOM      3  C   UNL     1       0.803   2.167  19.928  0.00  0.00    +0.000 C 
ATOM      4  C   UNL     1       1.006   2.413  18.435  0.00  0.00    +0.000 C 
ATOM      5  C   UNL     1       2.463   2.197  18.045  0.00  0.00    +0.000 C 
ATOM      6  N   UNL     1       3.366   2.999  18.876  0.00  0.00    +0.000 N 
ATOM      7  C   UNL     1       4.210   3.894  18.231  0.00  0.00    +0.000 C 
ATOM      8  O   UNL     1       4.143   4.041  17.010  0.00  0.00    +0.000 OA
ATOM      9  N   UNL     1       5.107   4.569  19.029  0.00  0.00    +0.000 N 
ATOM     10  C   UNL     1       3.226   2.781  20.318  0.00  0.00    +0.000 C 
ATOM     11  H   UNL     1       5.354   4.127  19.898  0.00  0.00    +0.000 HD
ENDROOT
BRANCH   9  12
ATOM     12  C   UNL     1       5.964   5.611  18.601  0.00  0.00    +0.000 A 
ATOM     13  C   UNL     1       5.590   6.570  17.658  0.00  0.00    +0.000 A 
ATOM     14  C   UNL     1       6.483   7.563  17.251  0.00  0.00    +0.000 A 
ATOM     15  C   UNL     1       7.760   7.638  17.803  0.00  0.00    +0.000 A 
ATOM     16  C   UNL     1       8.150   6.679  18.735  0.00  0.00    +0.000 A 
ATOM     17  C   UNL     1       7.249   5.686  19.151  0.00  0.00    +0.000 A 
BRANCH  15  18
ATOM     18  O   UNL     1       8.552   8.614  17.285  0.00  0.00    +0.000 OA
BRANCH  18  19
ATOM     19  C   UNL     1       8.690   9.842  17.987  0.00  0.00    +0.000 C 
ATOM     20  F   UNL     1       7.652  10.690  17.846  0.00  0.00    +0.000 F 
ATOM     21  F   UNL     1       8.847   9.574  19.303  0.00  0.00    +0.000 F 
ATOM     22  F   UNL     1       9.806  10.469  17.552  0.00  0.00    +0.000 F 
ENDBRANCH  18  19
ENDBRANCH  15  18
ENDBRANCH   9  12
TORSDOF 3
ENDMDL
MODEL 3
REMARK VINA RESULT:      -7.2      0.154      1.051
REMARK  Name = 
REMARK  4 active torsions:
REMARK  status: ('A' for Active; 'I' for Inactive)
REMARK    1  A    between atoms: C_1  and  C_2
REMARK    2  A    between atoms: N_9  and  C_10
REMARK    3  A    between atoms: C_13  and  O_14
REMARK    4  A    between atoms: O_14  and  C_15
REMARK                            x       y       z     vdW  Elec       q    Type
REMARK                         _______ _______ _______ _____ _____    ______ ____
ROOT
ATOM      1  C   UNL     1       0.776   2.453  18.863  0.00  0.00    +0.000 C 
ATOM      2  C   UNL     1       0.764   3.540  19.941  0.00  0.00    +0.000 C 
ATOM      3  C   UNL     1       1.027   2.957  21.338  0.00  0.00    +0.000 C 
ATOM      4  C   UNL     1       2.480   2.522  21.514  0.00  0.00    +0.000 C 
ATOM      5  C   UNL     1       3.430   3.662  21.165  0.00  0.00    +0.000 C 
ATOM      6  N   UNL     1       3.159   4.195  19.826  0.00  0.00    +0.000 N 
ATOM      7  C   UNL     1       4.198   4.177  18.904  0.00  0.00    +0.000 C 
ATOM      8  O   UNL     1       5.282   3.669  19.198  0.00  0.00    +0.000 OA
ATOM      9  N   UNL     1       3.941   4.764  17.685  0.00  0.00    +0.000 N 
ATOM     10  C   UNL     1       1.783   4.647  19.614  0.00  0.00    +0.000 C 
ATOM     11  H   UNL     1       3.219   5.463  17.669  0.00  0.00    +0.000 HD
ENDROOT
BRANCH   9  12
ATOM     12  C   UNL     1       4.807   4.743  16.566  0.00  0.00    +0.000 A 
ATOM     13  C   UNL     1       5.394   3.576  16.074  0.00  0.00    +0.000 A 
ATOM     14  C   UNL     1       6.262   3.615  14.981  0.00  0.00    +0.000 A 
ATOM     15  C   UNL     1       6.536   4.819  14.335  0.00  0.00    +0.000 A 
ATOM     16  C   UNL     1       5.967   5.992  14.824  0.00  0.00    +0.000 A 
ATOM     17  C   UNL     1       5.088   5.952  15.917  0.00  0.00    +0.000 A 
BRANCH  15  18
ATOM     18  O   UNL     1       7.437   4.732  13.320  0.00  0.00    +0.000 OA
BRANCH  18  19
ATOM     19  C   UNL     1       7.028   4.191  12.072  0.00  0.00    +0.000 C 
ATOM     20  F   UNL     1       7.564   2.990  11.777  0.00  0.00    +0.000 F 
ATOM     21  F   UNL     1       5.681   4.069  12.073  0.00  0.00    +0.000 F 
ATOM     22  F   UNL     1       7.368   5.055  11.090  0.00  0.00    +0.000 F 
ENDBRANCH  18  19
ENDBRANCH  15  18
ENDBRANCH   9  12
TORSDOF 3
ENDMDL
MODEL 4
REMARK VINA RESULT:      -6.8      5.248      6.561
REMARK  Name = 
REMARK  4 active torsions:
REMARK  status: ('A' for Active; 'I' for Inactive)
REMARK    1  A    between atoms: C_1  and  C_2
REMARK    2  A    between atoms: N_9  and  C_10
REMARK    3  A    between atoms: C_13  and  O_14
REMARK    4  A    between atoms: O_14  and  C_15
REMARK                            x       y       z     vdW  Elec       q    Type
REMARK                         _______ _______ _______ _____ _____    ______ ____
ROOT
ATOM      1  C   UNL     1      -1.237  10.110  18.004  0.00  0.00    +0.000 C 
ATOM      2  C   UNL     1      -0.295  11.183  18.556  0.00  0.00    +0.000 C 
ATOM      3  C   UNL     1      -0.796  11.743  19.897  0.00  0.00    +0.000 C 
ATOM      4  C   UNL     1      -0.635  10.737  21.034  0.00  0.00    +0.000 C 
ATOM      5  C   UNL     1       0.802  10.231  21.108  0.00  0.00    +0.000 C 
ATOM      6  N   UNL     1       1.250   9.700  19.818  0.00  0.00    +0.000 N 
ATOM      7  C   UNL     1       1.685   8.381  19.781  0.00  0.00    +0.000 C 
ATOM      8  O   UNL     1       1.628   7.680  20.793  0.00  0.00    +0.000 OA
ATOM      9  N   UNL     1       2.184   7.937  18.576  0.00  0.00    +0.000 N 
ATOM     10  C   UNL     1       1.137  10.636  18.697  0.00  0.00    +0.000 C 
ATOM     11  H   UNL     1       2.544   8.640  17.955  0.00  0.00    +0.000 HD
ENDROOT
BRANCH   9  12
ATOM     12  C   UNL     1       2.558   6.604  18.285  0.00  0.00    +0.000 A 
ATOM     13  C   UNL     1       1.635   5.576  18.086  0.00  0.00    +0.000 A 
ATOM     14  C   UNL     1       2.058   4.271  17.826  0.00  0.00    +0.000 A 
ATOM     15  C   UNL     1       3.416   3.972  17.727  0.00  0.00    +0.000 A 
ATOM     16  C   UNL     1       4.348   4.986  17.935  0.00  0.00    +0.000 A 
ATOM     17  C   UNL     1       3.921   6.300  18.188  0.00  0.00    +0.000 A 
BRANCH  15  18
ATOM     18  O   UNL     1       3.700   2.658  17.525  0.00  0.00    +0.000 OA
BRANCH  18  19
ATOM     19  C   UNL     1       3.490   1.732  18.581  0.00  0.00    +0.000 C 
ATOM     20  F   UNL     1       3.910   2.154  19.791  0.00  0.00    +0.000 F 
ATOM     21  F   UNL     1       2.169   1.456  18.661  0.00  0.00    +0.000 F 
ATOM     22  F   UNL     1       4.140   0.583  18.290  0.00  0.00    +0.000 F 
ENDBRANCH  18  19
ENDBRANCH  15  18
ENDBRANCH   9  12
TORSDOF 3
ENDMDL
MODEL 5
REMARK VINA RESULT:      -6.8      6.043      7.792
REMARK  Name = 
REMARK  4 active torsions:
REMARK  status: ('A' for Active; 'I' for Inactive)
REMARK    1  A    between atoms: C_1  and  C_2
REMARK    2  A    between atoms: N_9  and  C_10
REMARK    3  A    between atoms: C_13  and  O_14
REMARK    4  A    between atoms: O_14  and  C_15
REMARK                            x       y       z     vdW  Elec       q    Type
REMARK                         _______ _______ _______ _____ _____    ______ ____
ROOT
ATOM      1  C   UNL     1       2.993   2.811  21.040  0.00  0.00    +0.000 C 
ATOM      2  C   UNL     1       4.099   2.589  20.004  0.00  0.00    +0.000 C 
ATOM      3  C   UNL     1       3.751   1.443  19.041  0.00  0.00    +0.000 C 
ATOM      4  C   UNL     1       2.644   1.831  18.064  0.00  0.00    +0.000 C 
ATOM      5  C   UNL     1       2.993   3.124  17.337  0.00  0.00    +0.000 C 
ATOM      6  N   UNL     1       3.316   4.200  18.281  0.00  0.00    +0.000 N 
ATOM      7  C   UNL     1       2.559   5.363  18.213  0.00  0.00    +0.000 C 
ATOM      8  O   UNL     1       1.614   5.445  17.427  0.00  0.00    +0.000 OA
ATOM      9  N   UNL     1       2.941   6.388  19.050  0.00  0.00    +0.000 N 
ATOM     10  C   UNL     1       4.389   3.884  19.225  0.00  0.00    +0.000 C 
ATOM     11  H   UNL     1       3.901   6.386  19.350  0.00  0.00    +0.000 HD
ENDROOT
BRANCH   9  12
ATOM     12  C   UNL     1       2.237   7.602  19.235  0.00  0.00    +0.000 A 
ATOM     13  C   UNL     1       1.594   7.939  20.426  0.00  0.00    +0.000 A 
ATOM     14  C   UNL     1       0.892   9.140  20.547  0.00  0.00    +0.000 A 
ATOM     15  C   UNL     1       0.845  10.045  19.488  0.00  0.00    +0.000 A 
ATOM     16  C   UNL     1       1.472   9.714  18.290  0.00  0.00    +0.000 A 
ATOM     17  C   UNL     1       2.185   8.511  18.171  0.00  0.00    +0.000 A 
BRANCH  15  18
ATOM     18  O   UNL     1       0.085  11.150  19.712  0.00  0.00    +0.000 OA
BRANCH  18  19
ATOM     19  C   UNL     1      -1.220  11.219  19.156  0.00  0.00    +0.000 C 
ATOM     20  F   UNL     1      -1.326  12.005  18.066  0.00  0.00    +0.000 F 
ATOM     21  F   UNL     1      -1.617   9.971  18.822  0.00  0.00    +0.000 F 
ATOM     22  F   UNL     1      -2.070  11.690  20.096  0.00  0.00    +0.000 F 
ENDBRANCH  18  19
ENDBRANCH  15  18
ENDBRANCH   9  12
TORSDOF 3
ENDMDL
MODEL 6
REMARK VINA RESULT:      -6.8      6.184      7.859
REMARK  Name = 
REMARK  4 active torsions:
REMARK  status: ('A' for Active; 'I' for Inactive)
REMARK    1  A    between atoms: C_1  and  C_2
REMARK    2  A    between atoms: N_9  and  C_10
REMARK    3  A    between atoms: C_13  and  O_14
REMARK    4  A    between atoms: O_14  and  C_15
REMARK                            x       y       z     vdW  Elec       q    Type
REMARK                         _______ _______ _______ _____ _____    ______ ____
ROOT
ATOM      1  C   UNL     1       0.982   2.786  18.967  0.00  0.00    +0.000 C 
ATOM      2  C   UNL     1       2.299   2.439  19.668  0.00  0.00    +0.000 C 
ATOM      3  C   UNL     1       3.273   1.721  18.722  0.00  0.00    +0.000 C 
ATOM      4  C   UNL     1       3.854   2.666  17.672  0.00  0.00    +0.000 C 
ATOM      5  C   UNL     1       4.473   3.892  18.334  0.00  0.00    +0.000 C 
ATOM      6  N   UNL     1       3.519   4.558  19.227  0.00  0.00    +0.000 N 
ATOM      7  C   UNL     1       3.226   5.893  18.975  0.00  0.00    +0.000 C 
ATOM      8  O   UNL     1       3.710   6.461  17.994  0.00  0.00    +0.000 OA
ATOM      9  N   UNL     1       2.397   6.516  19.881  0.00  0.00    +0.000 N 
ATOM     10  C   UNL     1       2.950   3.699  20.267  0.00  0.00    +0.000 C 
ATOM     11  H   UNL     1       2.371   6.125  20.806  0.00  0.00    +0.000 HD
ENDROOT
BRANCH   9  12
ATOM     12  C   UNL     1       1.872   7.824  19.747  0.00  0.00    +0.000 A 
ATOM     13  C   UNL     1       1.907   8.544  18.552  0.00  0.00    +0.000 A 
ATOM     14  C   UNL     1       1.397   9.842  18.482  0.00  0.00    +0.000 A 
ATOM     15  C   UNL     1       0.810  10.436  19.598  0.00  0.00    +0.000 A 
ATOM     16  C   UNL     1       0.780   9.732  20.799  0.00  0.00    +0.000 A 
ATOM     17  C   UNL     1       1.286   8.424  20.868  0.00  0.00    +0.000 A 
BRANCH  15  18
ATOM     18  O   UNL     1       0.401  11.719  19.415  0.00  0.00    +0.000 OA
BRANCH  18  19
ATOM     19  C   UNL     1      -0.929  11.970  18.984  0.00  0.00    +0.000 C 
ATOM     20  F   UNL     1      -1.027  12.586  17.790  0.00  0.00    +0.000 F 
ATOM     21  F   UNL     1      -1.592  10.793  18.914  0.00  0.00    +0.000 F 
ATOM     22  F   UNL     1      -1.547  12.742  19.906  0.00  0.00    +0.000 F 
ENDBRANCH  18  19
ENDBRANCH  15  18
ENDBRANCH   9  12
TORSDOF 3
ENDMDL
MODEL 7
REMARK VINA RESULT:      -6.8      6.116      7.837
REMARK  Name = 
REMARK  4 active torsions:
REMARK  status: ('A' for Active; 'I' for Inactive)
REMARK    1  A    between atoms: C_1  and  C_2
REMARK    2  A    between atoms: N_9  and  C_10
REMARK    3  A    between atoms: C_13  and  O_14
REMARK    4  A    between atoms: O_14  and  C_15
REMARK                            x       y       z     vdW  Elec       q    Type
REMARK                         _______ _______ _______ _____ _____    ______ ____
ROOT
ATOM      1  C   UNL     1       1.039   2.736  18.718  0.00  0.00    +0.000 C 
ATOM      2  C   UNL     1       2.280   2.326  19.516  0.00  0.00    +0.000 C 
ATOM      3  C   UNL     1       3.343   1.676  18.617  0.00  0.00    +0.000 C 
ATOM      4  C   UNL     1       4.025   2.694  17.706  0.00  0.00    +0.000 C 
ATOM      5  C   UNL     1       4.575   3.862  18.518  0.00  0.00    +0.000 C 
ATOM      6  N   UNL     1       3.538   4.464  19.361  0.00  0.00    +0.000 N 
ATOM      7  C   UNL     1       3.272   5.816  19.186  0.00  0.00    +0.000 C 
ATOM      8  O   UNL     1       3.850   6.454  18.304  0.00  0.00    +0.000 OA
ATOM      9  N   UNL     1       2.357   6.375  20.051  0.00  0.00    +0.000 N 
ATOM     10  C   UNL     1       2.869   3.531  20.271  0.00  0.00    +0.000 C 
ATOM     11  H   UNL     1       2.240   5.913  20.937  0.00  0.00    +0.000 HD
ENDROOT
BRANCH   9  12
ATOM     12  C   UNL     1       1.848   7.692  19.968  0.00  0.00    +0.000 A 
ATOM     13  C   UNL     1       1.316   8.377  21.062  0.00  0.00    +0.000 A 
ATOM     14  C   UNL     1       0.803   9.668  20.919  0.00  0.00    +0.000 A 
ATOM     15  C   UNL     1       0.840  10.315  19.686  0.00  0.00    +0.000 A 
ATOM     16  C   UNL     1       1.357   9.638  18.584  0.00  0.00    +0.000 A 
ATOM     17  C   UNL     1       1.881   8.343  18.729  0.00  0.00    +0.000 A 
BRANCH  15  18
ATOM     18  O   UNL     1       0.261  11.545  19.666  0.00  0.00    +0.000 OA
BRANCH  18  19
ATOM     19  C   UNL     1      -1.055  11.684  19.151  0.00  0.00    +0.000 C 
ATOM     20  F   UNL     1      -1.725  10.524  18.999  0.00  0.00    +0.000 F 
ATOM     21  F   UNL     1      -1.764  12.482  19.981  0.00  0.00    +0.000 F 
ATOM     22  F   UNL     1      -0.989  12.290  17.944  0.00  0.00    +0.000 F 
ENDBRANCH  18  19
ENDBRANCH  15  18
ENDBRANCH   9  12
TORSDOF 3
ENDMDL
MODEL 8
REMARK VINA RESULT:      -6.8      5.407      7.004
REMARK  Name = 
REMARK  4 active torsions:
REMARK  status: ('A' for Active; 'I' for Inactive)
REMARK    1  A    between atoms: C_1  and  C_2
REMARK    2  A    between atoms: N_9  and  C_10
REMARK    3  A    between atoms: C_13  and  O_14
REMARK    4  A    between atoms: O_14  and  C_15
REMARK                            x       y       z     vdW  Elec       q    Type
REMARK                         _______ _______ _______ _____ _____    ______ ____
ROOT
ATOM      1  C   UNL     1      -1.477  10.175  18.202  0.00  0.00    +0.000 C 
ATOM      2  C   UNL     1      -0.600  11.355  18.631  0.00  0.00    +0.000 C 
ATOM      3  C   UNL     1      -1.200  12.098  19.834  0.00  0.00    +0.000 C 
ATOM      4  C   UNL     1      -1.083  11.289  21.124  0.00  0.00    +0.000 C 
ATOM      5  C   UNL     1       0.359  10.854  21.361  0.00  0.00    +0.000 C 
ATOM      6  N   UNL     1       0.902  10.144  20.199  0.00  0.00    +0.000 N 
ATOM      7  C   UNL     1       1.373   8.853  20.397  0.00  0.00    +0.000 C 
ATOM      8  O   UNL     1       1.271   8.316  21.502  0.00  0.00    +0.000 OA
ATOM      9  N   UNL     1       1.958   8.244  19.309  0.00  0.00    +0.000 N 
ATOM     10  C   UNL     1       0.834  10.889  18.939  0.00  0.00    +0.000 C 
ATOM     11  H   UNL     1       2.338   8.854  18.605  0.00  0.00    +0.000 HD
ENDROOT
BRANCH   9  12
ATOM     12  C   UNL     1       2.386   6.896  19.254  0.00  0.00    +0.000 A 
ATOM     13  C   UNL     1       2.018   5.938  20.201  0.00  0.00    +0.000 A 
ATOM     14  C   UNL     1       2.489   4.626  20.114  0.00  0.00    +0.000 A 
ATOM     15  C   UNL     1       3.312   4.236  19.060  0.00  0.00    +0.000 A 
ATOM     16  C   UNL     1       3.696   5.185  18.116  0.00  0.00    +0.000 A 
ATOM     17  C   UNL     1       3.216   6.501  18.198  0.00  0.00    +0.000 A 
BRANCH  15  18
ATOM     18  O   UNL     1       3.747   2.949  19.119  0.00  0.00    +0.000 OA
BRANCH  18  19
ATOM     19  C   UNL     1       2.960   1.923  18.530  0.00  0.00    +0.000 C 
ATOM     20  F   UNL     1       1.918   1.512  19.280  0.00  0.00    +0.000 F 
ATOM     21  F   UNL     1       2.485   2.366  17.345  0.00  0.00    +0.000 F 
ATOM     22  F   UNL     1       3.750   0.852  18.289  0.00  0.00    +0.000 F 
ENDBRANCH  18  19
ENDBRANCH  15  18
ENDBRANCH   9  12
TORSDOF 3
ENDMDL
MODEL 9
REMARK VINA RESULT:      -6.8      6.127      7.822
REMARK  Name = 
REMARK  4 active torsions:
REMARK  status: ('A' for Active; 'I' for Inactive)
REMARK    1  A    between atoms: C_1  and  C_2
REMARK    2  A    between atoms: N_9  and  C_10
REMARK    3  A    between atoms: C_13  and  O_14
REMARK    4  A    between atoms: O_14  and  C_15
REMARK                            x       y       z     vdW  Elec       q    Type
REMARK                         _______ _______ _______ _____ _____    ______ ____
ROOT
ATOM      1  C   UNL     1       3.047   2.818  21.052  0.00  0.00    +0.000 C 
ATOM      2  C   UNL     1       4.120   2.564  19.989  0.00  0.00    +0.000 C 
ATOM      3  C   UNL     1       3.738   1.398  19.065  0.00  0.00    +0.000 C 
ATOM      4  C   UNL     1       2.603   1.769  18.113  0.00  0.00    +0.000 C 
ATOM      5  C   UNL     1       2.937   3.043  17.345  0.00  0.00    +0.000 C 
ATOM      6  N   UNL     1       3.293   4.138  18.252  0.00  0.00    +0.000 N 
ATOM      7  C   UNL     1       2.540   5.304  18.180  0.00  0.00    +0.000 C 
ATOM      8  O   UNL     1       1.572   5.373  17.420  0.00  0.00    +0.000 OA
ATOM      9  N   UNL     1       2.952   6.346  18.980  0.00  0.00    +0.000 N 
ATOM     10  C   UNL     1       4.393   3.840  19.171  0.00  0.00    +0.000 C 
ATOM     11  H   UNL     1       3.921   6.346  19.251  0.00  0.00    +0.000 HD
ENDROOT
BRANCH   9  12
ATOM     12  C   UNL     1       2.261   7.568  19.157  0.00  0.00    +0.000 A 
ATOM     13  C   UNL     1       2.165   8.543  18.163  0.00  0.00    +0.000 A 
ATOM     14  C   UNL     1       1.492   9.744  18.398  0.00  0.00    +0.000 A 
ATOM     15  C   UNL     1       0.870   9.981  19.623  0.00  0.00    +0.000 A 
ATOM     16  C   UNL     1       0.969   9.021  20.627  0.00  0.00    +0.000 A 
ATOM     17  C   UNL     1       1.639   7.811  20.388  0.00  0.00    +0.000 A 
BRANCH  15  18
ATOM     18  O   UNL     1       0.295  11.207  19.745  0.00  0.00    +0.000 OA
BRANCH  18  19
ATOM     19  C   UNL     1      -1.099  11.346  19.513  0.00  0.00    +0.000 C 
ATOM     20  F   UNL     1      -1.688  10.266  18.963  0.00  0.00    +0.000 F 
ATOM     21  F   UNL     1      -1.711  11.614  20.688  0.00  0.00    +0.000 F 
ATOM     22  F   UNL     1      -1.300  12.399  18.688  0.00  0.00    +0.000 F 
ENDBRANCH  18  19
ENDBRANCH  15  18
ENDBRANCH   9  12
TORSDOF 3
ENDMDL
