MODEL 1
REMARK VINA RESULT:      -8.0      0.000      0.000
REMARK  Name = 
REMARK  9 active torsions:
REMARK  status: ('A' for Active; 'I' for Inactive)
REMARK    1  A    between atoms: C_2  and  O_3
REMARK    2  A    between atoms: C_2  and  C_4
REMARK    3  A    between atoms: C_4  and  O_5
REMARK    4  A    between atoms: O_5  and  C_6
REMARK    5  A    between atoms: C_6  and  C_7
REMARK    6  A    between atoms: C_7  and  N_8
REMARK    7  A    between atoms: N_11  and  C_12
REMARK    8  A    between atoms: C_12  and  C_13
REMARK    9  A    between atoms: C_12  and  C_20
REMARK                            x       y       z     vdW  Elec       q    Type
REMARK                         _______ _______ _______ _____ _____    ______ ____
ROOT
ATOM      1  C   UNL     1       2.786   6.073  18.415  0.00  0.00    +0.000 C 
ENDROOT
BRANCH   1   2
ATOM      2  C   UNL     1       2.230   5.029  19.399  0.00  0.00    +0.000 A 
ATOM      3  C   UNL     1       2.705   4.960  20.722  0.00  0.00    +0.000 A 
ATOM      4  C   UNL     1       2.289   3.940  21.579  0.00  0.00    +0.000 A 
ATOM      5  C   UNL     1       1.402   2.979  21.115  0.00  0.00    +0.000 A 
ATOM      6  F   UNL     1       1.018   1.988  21.931  0.00  0.00    +0.000 F 
ATOM      7  C   UNL     1       0.921   3.017  19.811  0.00  0.00    +0.000 A 
ATOM      8  C   UNL     1       1.327   4.043  18.954  0.00  0.00    +0.000 A 
ENDBRANCH   1   2
BRANCH   1   9
ATOM      9  C   UNL     1       2.208   7.472  18.722  0.00  0.00    +0.000 A 
ATOM     10  C   UNL     1       1.847   7.801  20.043  0.00  0.00    +0.000 A 
ATOM     11  C   UNL     1       1.235   9.027  20.338  0.00  0.00    +0.000 A 
ATOM     12  C   UNL     1       0.993   9.935  19.317  0.00  0.00    +0.000 A 
ATOM     13  F   UNL     1       0.366  11.087  19.589  0.00  0.00    +0.000 F 
ATOM     14  C   UNL     1       1.392   9.663  18.015  0.00  0.00    +0.000 A 
ATOM     15  C   UNL     1       2.014   8.446  17.723  0.00  0.00    +0.000 A 
ENDBRANCH   1   9
BRANCH   1  19
ATOM     16  N   UNL     1       5.210   5.224  15.562  0.00  0.00    +0.000 NA
ATOM     17  C   UNL     1       4.630   4.251  16.508  0.00  0.00    +0.000 C 
ATOM     18  C   UNL     1       4.752   4.623  18.011  0.00  0.00    +0.000 C 
ATOM     19  N   UNL     1       4.282   5.989  18.373  0.00  0.00    +0.000 NA
ATOM     20  C   UNL     1       4.922   6.930  17.429  0.00  0.00    +0.000 C 
ATOM     21  C   UNL     1       4.740   6.580  15.934  0.00  0.00    +0.000 C 
BRANCH  16  22
ATOM     22  C   UNL     1       6.685   5.191  15.488  0.00  0.00    +0.000 C 
BRANCH  22  23
ATOM     23  C   UNL     1       7.312   4.561  14.226  0.00  0.00    +0.000 C 
BRANCH  23  24
ATOM     24  O   UNL     1       6.516   3.507  13.664  0.00  0.00    +0.000 OA
BRANCH  24  25
ATOM     25  C   UNL     1       6.209   3.817  12.294  0.00  0.00    +0.000 C 
BRANCH  25  27
ATOM     26  O   UNL     1       4.194   2.946  11.246  0.00  0.00    +0.000 OA
ATOM     27  C   UNL     1       5.321   2.746  11.679  0.00  0.00    +0.000 C 
BRANCH  27  28
ATOM     28  O   UNL     1       5.921   1.529  11.674  0.00  0.00    +0.000 OA
ATOM     29  H   UNL     1       6.754   1.605  11.151  0.00  0.00    +0.000 HD
ENDBRANCH  27  28
ENDBRANCH  25  27
ENDBRANCH  24  25
ENDBRANCH  23  24
ENDBRANCH  22  23
ENDBRANCH  16  22
ENDBRANCH   1  19
TORSDOF 9
ENDMDL
MODEL 2
REMARK VINA RESULT:      -7.9      0.437      1.012
REMARK  Name = 
REMARK  9 active torsions:
REMARK  status: ('A' for Active; 'I' for Inactive)
REMARK    1  A    between atoms: C_2  and  O_3
REMARK    2  A    between atoms: C_2  and  C_4
REMARK    3  A    between atoms: C_4  and  O_5
REMARK    4  A    between atoms: O_5  and  C_6
REMARK    5  A    between atoms: C_6  and  C_7
REMARK    6  A    between atoms: C_7  and  N_8
REMARK    7  A    between atoms: N_11  and  C_12
REMARK    8  A    between atoms: C_12  and  C_13
REMARK    9  A    between atoms: C_12  and  C_20
REMARK                            x       y       z     vdW  Elec       q    Type
REMARK                         _______ _______ _______ _____ _____    ______ ____
ROOT
ATOM      1  C   UNL     1       2.942   5.896  18.369  0.00  0.00    +0.000 C 
ENDROOT
BRANCH   1   2
ATOM      2  C   UNL     1       2.424   4.822  19.341  0.00  0.00    +0.000 A 
ATOM      3  C   UNL     1       1.363   3.971  18.976  0.00  0.00    +0.000 A 
ATOM      4  C   UNL     1       0.815   3.078  19.898  0.00  0.00    +0.000 A 
ATOM      5  C   UNL     1       1.319   3.036  21.191  0.00  0.00    +0.000 A 
ATOM      6  F   UNL     1       0.780   2.193  22.081  0.00  0.00    +0.000 F 
ATOM      7  C   UNL     1       2.362   3.868  21.580  0.00  0.00    +0.000 A 
ATOM      8  C   UNL     1       2.921   4.756  20.657  0.00  0.00    +0.000 A 
ENDBRANCH   1   2
BRANCH   1   9
ATOM      9  C   UNL     1       2.328   7.274  18.702  0.00  0.00    +0.000 A 
ATOM     10  C   UNL     1       1.971   7.573  20.030  0.00  0.00    +0.000 A 
ATOM     11  C   UNL     1       1.326   8.776  20.349  0.00  0.00    +0.000 A 
ATOM     12  C   UNL     1       1.048   9.692  19.343  0.00  0.00    +0.000 A 
ATOM     13  F   UNL     1       0.391  10.821  19.638  0.00  0.00    +0.000 F 
ATOM     14  C   UNL     1       1.441   9.449  18.034  0.00  0.00    +0.000 A 
ATOM     15  C   UNL     1       2.095   8.255  17.719  0.00  0.00    +0.000 A 
ENDBRANCH   1   9
BRANCH   1  19
ATOM     16  N   UNL     1       5.368   5.214  15.473  0.00  0.00    +0.000 NA
ATOM     17  C   UNL     1       4.822   4.193  16.389  0.00  0.00    +0.000 C 
ATOM     18  C   UNL     1       4.945   4.516  17.902  0.00  0.00    +0.000 C 
ATOM     19  N   UNL     1       4.440   5.855  18.314  0.00  0.00    +0.000 NA
ATOM     20  C   UNL     1       5.047   6.845  17.400  0.00  0.00    +0.000 C 
ATOM     21  C   UNL     1       4.863   6.542  15.894  0.00  0.00    +0.000 C 
BRANCH  16  22
ATOM     22  C   UNL     1       6.843   5.224  15.388  0.00  0.00    +0.000 C 
BRANCH  22  23
ATOM     23  C   UNL     1       7.483   4.516  14.175  0.00  0.00    +0.000 C 
BRANCH  23  24
ATOM     24  O   UNL     1       6.839   4.831  12.932  0.00  0.00    +0.000 OA
BRANCH  24  25
ATOM     25  C   UNL     1       6.992   3.729  12.021  0.00  0.00    +0.000 C 
BRANCH  25  27
ATOM     26  O   UNL     1       4.579   3.418  11.967  0.00  0.00    +0.000 OA
ATOM     27  C   UNL     1       5.701   2.932  11.909  0.00  0.00    +0.000 C 
BRANCH  27  28
ATOM     28  O   UNL     1       5.936   1.606  11.746  0.00  0.00    +0.000 OA
ATOM     29  H   UNL     1       5.178   1.113  12.141  0.00  0.00    +0.000 HD
ENDBRANCH  27  28
ENDBRANCH  25  27
ENDBRANCH  24  25
ENDBRANCH  23  24
ENDBRANCH  22  23
ENDBRANCH  16  22
ENDBRANCH   1  19
TORSDOF 9
ENDMDL
MODEL 3
REMARK VINA RESULT:      -7.8      0.796      4.525
REMARK  Name = 
REMARK  9 active torsions:
REMARK  status: ('A' for Active; 'I' for Inactive)
REMARK    1  A    between atoms: C_2  and  O_3
REMARK    2  A    between atoms: C_2  and  C_4
REMARK    3  A    between atoms: C_4  and  O_5
REMARK    4  A    between atoms: O_5  and  C_6
REMARK    5  A    between atoms: C_6  and  C_7
REMARK    6  A    between atoms: C_7  and  N_8
REMARK    7  A    between atoms: N_11  and  C_12
REMARK    8  A    between atoms: C_12  and  C_13
REMARK    9  A    between atoms: C_12  and  C_20
REMARK                            x       y       z     vdW  Elec       q    Type
REMARK                         _______ _______ _______ _____ _____    ______ ____
ROOT
ATOM      1  C   UNL     1       3.236   6.266  18.913  0.00  0.00    +0.000 C 
ENDROOT
BRANCH   1   2
ATOM      2  C   UNL     1       2.312   7.494  18.972  0.00  0.00    +0.000 A 
ATOM      3  C   UNL     1       2.083   8.281  17.827  0.00  0.00    +0.000 A 
ATOM      4  C   UNL     1       1.342   9.460  17.907  0.00  0.00    +0.000 A 
ATOM      5  C   UNL     1       0.832   9.864  19.133  0.00  0.00    +0.000 A 
ATOM      6  F   UNL     1       0.138  11.007  19.214  0.00  0.00    +0.000 F 
ATOM      7  C   UNL     1       1.047   9.111  20.282  0.00  0.00    +0.000 A 
ATOM      8  C   UNL     1       1.779   7.924  20.204  0.00  0.00    +0.000 A 
ENDBRANCH   1   2
BRANCH   1   9
ATOM      9  C   UNL     1       2.620   5.083  19.693  0.00  0.00    +0.000 A 
ATOM     10  C   UNL     1       1.410   4.514  19.253  0.00  0.00    +0.000 A 
ATOM     11  C   UNL     1       0.778   3.504  19.990  0.00  0.00    +0.000 A 
ATOM     12  C   UNL     1       1.361   3.046  21.164  0.00  0.00    +0.000 A 
ATOM     13  F   UNL     1       0.737   2.114  21.895  0.00  0.00    +0.000 F 
ATOM     14  C   UNL     1       2.584   3.547  21.592  0.00  0.00    +0.000 A 
ATOM     15  C   UNL     1       3.219   4.546  20.849  0.00  0.00    +0.000 A 
ENDBRANCH   1   9
BRANCH   1  19
ATOM     16  N   UNL     1       6.545   5.144  17.322  0.00  0.00    +0.000 NA
ATOM     17  C   UNL     1       6.116   6.544  17.504  0.00  0.00    +0.000 C 
ATOM     18  C   UNL     1       4.686   6.879  17.001  0.00  0.00    +0.000 C 
ATOM     19  N   UNL     1       3.607   5.975  17.490  0.00  0.00    +0.000 NA
ATOM     20  C   UNL     1       4.061   4.590  17.246  0.00  0.00    +0.000 C 
ATOM     21  C   UNL     1       5.462   4.253  17.807  0.00  0.00    +0.000 C 
BRANCH  16  22
ATOM     22  C   UNL     1       6.913   4.800  15.933  0.00  0.00    +0.000 C 
BRANCH  22  23
ATOM     23  C   UNL     1       6.069   3.716  15.230  0.00  0.00    +0.000 C 
BRANCH  23  24
ATOM     24  O   UNL     1       5.485   4.164  13.997  0.00  0.00    +0.000 OA
BRANCH  24  25
ATOM     25  C   UNL     1       6.251   3.657  12.892  0.00  0.00    +0.000 C 
BRANCH  25  27
ATOM     26  O   UNL     1       4.280   3.251  11.524  0.00  0.00    +0.000 OA
ATOM     27  C   UNL     1       5.369   2.871  11.933  0.00  0.00    +0.000 C 
BRANCH  27  28
ATOM     28  O   UNL     1       5.928   1.684  11.587  0.00  0.00    +0.000 OA
ATOM     29  H   UNL     1       6.027   1.671  10.606  0.00  0.00    +0.000 HD
ENDBRANCH  27  28
ENDBRANCH  25  27
ENDBRANCH  24  25
ENDBRANCH  23  24
ENDBRANCH  22  23
ENDBRANCH  16  22
ENDBRANCH   1  19
TORSDOF 9
ENDMDL
MODEL 4
REMARK VINA RESULT:      -7.7      1.002      4.594
REMARK  Name = 
REMARK  9 active torsions:
REMARK  status: ('A' for Active; 'I' for Inactive)
REMARK    1  A    between atoms: C_2  and  O_3
REMARK    2  A    between atoms: C_2  and  C_4
REMARK    3  A    between atoms: C_4  and  O_5
REMARK    4  A    between atoms: O_5  and  C_6
REMARK    5  A    between atoms: C_6  and  C_7
REMARK    6  A    between atoms: C_7  and  N_8
REMARK    7  A    between atoms: N_11  and  C_12
REMARK    8  A    between atoms: C_12  and  C_13
REMARK    9  A    between atoms: C_12  and  C_20
REMARK                            x       y       z     vdW  Elec       q    Type
REMARK                         _______ _______ _______ _____ _____    ______ ____
ROOT
ATOM      1  C   UNL     1       3.071   6.251  19.060  0.00  0.00    +0.000 C 
ENDROOT
BRANCH   1   2
ATOM      2  C   UNL     1       2.201   7.519  19.057  0.00  0.00    +0.000 A 
ATOM      3  C   UNL     1       2.031   8.275  17.882  0.00  0.00    +0.000 A 
ATOM      4  C   UNL     1       1.341   9.488  17.905  0.00  0.00    +0.000 A 
ATOM      5  C   UNL     1       0.823   9.955  19.106  0.00  0.00    +0.000 A 
ATOM      6  F   UNL     1       0.178  11.129  19.132  0.00  0.00    +0.000 F 
ATOM      7  C   UNL     1       0.980   9.233  20.283  0.00  0.00    +0.000 A 
ATOM      8  C   UNL     1       1.661   8.014  20.261  0.00  0.00    +0.000 A 
ENDBRANCH   1   2
BRANCH   1   9
ATOM      9  C   UNL     1       2.393   5.127  19.875  0.00  0.00    +0.000 A 
ATOM     10  C   UNL     1       2.939   4.738  21.112  0.00  0.00    +0.000 A 
ATOM     11  C   UNL     1       2.403   3.660  21.830  0.00  0.00    +0.000 A 
ATOM     12  C   UNL     1       1.308   2.975  21.321  0.00  0.00    +0.000 A 
ATOM     13  F   UNL     1       0.823   1.916  21.981  0.00  0.00    +0.000 F 
ATOM     14  C   UNL     1       0.711   3.374  20.132  0.00  0.00    +0.000 A 
ATOM     15  C   UNL     1       1.239   4.456  19.423  0.00  0.00    +0.000 A 
ENDBRANCH   1   9
BRANCH   1  19
ATOM     16  N   UNL     1       6.163   4.480  17.631  0.00  0.00    +0.000 NA
ATOM     17  C   UNL     1       6.017   5.938  17.804  0.00  0.00    +0.000 C 
ATOM     18  C   UNL     1       4.712   6.555  17.231  0.00  0.00    +0.000 C 
ATOM     19  N   UNL     1       3.450   5.889  17.655  0.00  0.00    +0.000 NA
ATOM     20  C   UNL     1       3.626   4.440  17.423  0.00  0.00    +0.000 C 
ATOM     21  C   UNL     1       4.900   3.828  18.052  0.00  0.00    +0.000 C 
BRANCH  16  22
ATOM     22  C   UNL     1       6.526   4.066  16.260  0.00  0.00    +0.000 C 
BRANCH  22  23
ATOM     23  C   UNL     1       7.340   5.070  15.416  0.00  0.00    +0.000 C 
BRANCH  23  24
ATOM     24  O   UNL     1       6.877   5.177  14.062  0.00  0.00    +0.000 OA
BRANCH  24  25
ATOM     25  C   UNL     1       6.004   4.075  13.765  0.00  0.00    +0.000 C 
BRANCH  25  27
ATOM     26  O   UNL     1       5.703   2.559  11.885  0.00  0.00    +0.000 OA
ATOM     27  C   UNL     1       6.290   3.512  12.380  0.00  0.00    +0.000 C 
BRANCH  27  28
ATOM     28  O   UNL     1       7.287   4.186  11.754  0.00  0.00    +0.000 OA
ATOM     29  H   UNL     1       7.261   5.122  12.063  0.00  0.00    +0.000 HD
ENDBRANCH  27  28
ENDBRANCH  25  27
ENDBRANCH  24  25
ENDBRANCH  23  24
ENDBRANCH  22  23
ENDBRANCH  16  22
ENDBRANCH   1  19
TORSDOF 9
ENDMDL
MODEL 5
REMARK VINA RESULT:      -7.6      1.144      4.520
REMARK  Name = 
REMARK  9 active torsions:
REMARK  status: ('A' for Active; 'I' for Inactive)
REMARK    1  A    between atoms: C_2  and  O_3
REMARK    2  A    between atoms: C_2  and  C_4
REMARK    3  A    between atoms: C_4  and  O_5
REMARK    4  A    between atoms: O_5  and  C_6
REMARK    5  A    between atoms: C_6  and  C_7
REMARK    6  A    between atoms: C_7  and  N_8
REMARK    7  A    between atoms: N_11  and  C_12
REMARK    8  A    between atoms: C_12  and  C_13
REMARK    9  A    between atoms: C_12  and  C_20
REMARK                            x       y       z     vdW  Elec       q    Type
REMARK                         _______ _______ _______ _____ _____    ______ ____
ROOT
ATOM      1  C   UNL     1       3.628   6.248  18.541  0.00  0.00    +0.000 C 
ENDROOT
BRANCH   1   2
ATOM      2  C   UNL     1       2.609   7.372  18.798  0.00  0.00    +0.000 A 
ATOM      3  C   UNL     1       2.316   8.322  17.802  0.00  0.00    +0.000 A 
ATOM      4  C   UNL     1       1.483   9.409  18.073  0.00  0.00    +0.000 A 
ATOM      5  C   UNL     1       0.945   9.555  19.344  0.00  0.00    +0.000 A 
ATOM      6  F   UNL     1       0.162  10.609  19.610  0.00  0.00    +0.000 F 
ATOM      7  C   UNL     1       1.221   8.636  20.350  0.00  0.00    +0.000 A 
ATOM      8  C   UNL     1       2.046   7.541  20.078  0.00  0.00    +0.000 A 
ENDBRANCH   1   2
BRANCH   1   9
ATOM      9  C   UNL     1       2.987   4.865  18.789  0.00  0.00    +0.000 A 
ATOM     10  C   UNL     1       1.839   4.490  18.066  0.00  0.00    +0.000 A 
ATOM     11  C   UNL     1       1.180   3.282  18.334  0.00  0.00    +0.000 A 
ATOM     12  C   UNL     1       1.675   2.436  19.317  0.00  0.00    +0.000 A 
ATOM     13  F   UNL     1       1.022   1.304  19.608  0.00  0.00    +0.000 F 
ATOM     14  C   UNL     1       2.839   2.752  20.006  0.00  0.00    +0.000 A 
ATOM     15  C   UNL     1       3.502   3.950  19.729  0.00  0.00    +0.000 A 
ENDBRANCH   1   9
BRANCH   1  19
ATOM     16  N   UNL     1       6.728   4.644  16.943  0.00  0.00    +0.000 NA
ATOM     17  C   UNL     1       6.720   5.896  17.724  0.00  0.00    +0.000 C 
ATOM     18  C   UNL     1       5.656   6.944  17.301  0.00  0.00    +0.000 C 
ATOM     19  N   UNL     1       4.261   6.433  17.194  0.00  0.00    +0.000 NA
ATOM     20  C   UNL     1       4.313   5.207  16.369  0.00  0.00    +0.000 C 
ATOM     21  C   UNL     1       5.335   4.146  16.839  0.00  0.00    +0.000 C 
BRANCH  16  22
ATOM     22  C   UNL     1       7.333   4.771  15.601  0.00  0.00    +0.000 C 
BRANCH  22  23
ATOM     23  C   UNL     1       6.688   3.958  14.459  0.00  0.00    +0.000 C 
BRANCH  23  24
ATOM     24  O   UNL     1       6.704   4.642  13.197  0.00  0.00    +0.000 OA
BRANCH  24  25
ATOM     25  C   UNL     1       6.904   3.690  12.139  0.00  0.00    +0.000 C 
BRANCH  25  27
ATOM     26  O   UNL     1       4.519   3.388  11.759  0.00  0.00    +0.000 OA
ATOM     27  C   UNL     1       5.633   2.895  11.875  0.00  0.00    +0.000 C 
BRANCH  27  28
ATOM     28  O   UNL     1       5.877   1.563  11.790  0.00  0.00    +0.000 OA
ATOM     29  H   UNL     1       5.014   1.092  11.871  0.00  0.00    +0.000 HD
ENDBRANCH  27  28
ENDBRANCH  25  27
ENDBRANCH  24  25
ENDBRANCH  23  24
ENDBRANCH  22  23
ENDBRANCH  16  22
ENDBRANCH   1  19
TORSDOF 9
ENDMDL
MODEL 6
REMARK VINA RESULT:      -7.6      1.039      4.404
REMARK  Name = 
REMARK  9 active torsions:
REMARK  status: ('A' for Active; 'I' for Inactive)
REMARK    1  A    between atoms: C_2  and  O_3
REMARK    2  A    between atoms: C_2  and  C_4
REMARK    3  A    between atoms: C_4  and  O_5
REMARK    4  A    between atoms: O_5  and  C_6
REMARK    5  A    between atoms: C_6  and  C_7
REMARK    6  A    between atoms: C_7  and  N_8
REMARK    7  A    between atoms: N_11  and  C_12
REMARK    8  A    between atoms: C_12  and  C_13
REMARK    9  A    between atoms: C_12  and  C_20
REMARK                            x       y       z     vdW  Elec       q    Type
REMARK                         _______ _______ _______ _____ _____    ______ ____
ROOT
ATOM      1  C   UNL     1       3.421   6.376  18.690  0.00  0.00    +0.000 C 
ENDROOT
BRANCH   1   2
ATOM      2  C   UNL     1       2.496   7.595  18.856  0.00  0.00    +0.000 A 
ATOM      3  C   UNL     1       1.918   7.897  20.103  0.00  0.00    +0.000 A 
ATOM      4  C   UNL     1       0.987   8.929  20.228  0.00  0.00    +0.000 A 
ATOM      5  C   UNL     1       0.625   9.661  19.105  0.00  0.00    +0.000 A 
ATOM      6  F   UNL     1      -0.283  10.638  19.221  0.00  0.00    +0.000 F 
ATOM      7  C   UNL     1       1.175   9.381  17.859  0.00  0.00    +0.000 A 
ATOM      8  C   UNL     1       2.114   8.355  17.733  0.00  0.00    +0.000 A 
ENDBRANCH   1   2
BRANCH   1   9
ATOM      9  C   UNL     1       2.658   5.068  18.996  0.00  0.00    +0.000 A 
ATOM     10  C   UNL     1       2.962   4.342  20.163  0.00  0.00    +0.000 A 
ATOM     11  C   UNL     1       2.355   3.105  20.421  0.00  0.00    +0.000 A 
ATOM     12  C   UNL     1       1.429   2.596  19.520  0.00  0.00    +0.000 A 
ATOM     13  F   UNL     1       0.882   1.394  19.741  0.00  0.00    +0.000 F 
ATOM     14  C   UNL     1       1.065   3.318  18.391  0.00  0.00    +0.000 A 
ATOM     15  C   UNL     1       1.662   4.556  18.141  0.00  0.00    +0.000 A 
ENDBRANCH   1   9
BRANCH   1  19
ATOM     16  N   UNL     1       6.582   4.644  17.369  0.00  0.00    +0.000 NA
ATOM     17  C   UNL     1       6.541   5.969  18.018  0.00  0.00    +0.000 C 
ATOM     18  C   UNL     1       5.487   6.960  17.455  0.00  0.00    +0.000 C 
ATOM     19  N   UNL     1       4.099   6.428  17.354  0.00  0.00    +0.000 NA
ATOM     20  C   UNL     1       4.185   5.126  16.660  0.00  0.00    +0.000 C 
ATOM     21  C   UNL     1       5.196   4.127  17.269  0.00  0.00    +0.000 C 
BRANCH  16  22
ATOM     22  C   UNL     1       7.232   4.640  16.042  0.00  0.00    +0.000 C 
BRANCH  22  23
ATOM     23  C   UNL     1       6.533   3.845  14.919  0.00  0.00    +0.000 C 
BRANCH  23  24
ATOM     24  O   UNL     1       6.325   4.615  13.725  0.00  0.00    +0.000 OA
BRANCH  24  25
ATOM     25  C   UNL     1       6.749   3.852  12.584  0.00  0.00    +0.000 C 
BRANCH  25  27
ATOM     26  O   UNL     1       4.466   3.453  11.843  0.00  0.00    +0.000 OA
ATOM     27  C   UNL     1       5.600   3.029  12.021  0.00  0.00    +0.000 C 
BRANCH  27  28
ATOM     28  O   UNL     1       5.976   1.755  11.744  0.00  0.00    +0.000 OA
ATOM     29  H   UNL     1       6.885   1.622  12.103  0.00  0.00    +0.000 HD
ENDBRANCH  27  28
ENDBRANCH  25  27
ENDBRANCH  24  25
ENDBRANCH  23  24
ENDBRANCH  22  23
ENDBRANCH  16  22
ENDBRANCH   1  19
TORSDOF 9
ENDMDL
MODEL 7
REMARK VINA RESULT:      -7.4      1.100      4.517
REMARK  Name = 
REMARK  9 active torsions:
REMARK  status: ('A' for Active; 'I' for Inactive)
REMARK    1  A    between atoms: C_2  and  O_3
REMARK    2  A    between atoms: C_2  and  C_4
REMARK    3  A    between atoms: C_4  and  O_5
REMARK    4  A    between atoms: O_5  and  C_6
REMARK    5  A    between atoms: C_6  and  C_7
REMARK    6  A    between atoms: C_7  and  N_8
REMARK    7  A    between atoms: N_11  and  C_12
REMARK    8  A    between atoms: C_12  and  C_13
REMARK    9  A    between atoms: C_12  and  C_20
REMARK                            x       y       z     vdW  Elec       q    Type
REMARK                         _______ _______ _______ _____ _____    ______ ____
ROOT
ATOM      1  C   UNL     1       3.540   6.349  18.577  0.00  0.00    +0.000 C 
ENDROOT
BRANCH   1   2
ATOM      2  C   UNL     1       2.542   7.509  18.743  0.00  0.00    +0.000 A 
ATOM      3  C   UNL     1       2.287   8.398  17.682  0.00  0.00    +0.000 A 
ATOM      4  C   UNL     1       1.474   9.517  17.868  0.00  0.00    +0.000 A 
ATOM      5  C   UNL     1       0.919   9.758  19.117  0.00  0.00    +0.000 A 
ATOM      6  F   UNL     1       0.156  10.844  19.301  0.00  0.00    +0.000 F 
ATOM      7  C   UNL     1       1.160   8.901  20.185  0.00  0.00    +0.000 A 
ATOM      8  C   UNL     1       1.963   7.774  20.000  0.00  0.00    +0.000 A 
ENDBRANCH   1   2
BRANCH   1   9
ATOM      9  C   UNL     1       2.851   4.995  18.856  0.00  0.00    +0.000 A 
ATOM     10  C   UNL     1       3.345   4.161  19.877  0.00  0.00    +0.000 A 
ATOM     11  C   UNL     1       2.801   2.887  20.093  0.00  0.00    +0.000 A 
ATOM     12  C   UNL     1       1.752   2.446  19.297  0.00  0.00    +0.000 A 
ATOM     13  F   UNL     1       1.262   1.212  19.471  0.00  0.00    +0.000 F 
ATOM     14  C   UNL     1       1.206   3.270  18.322  0.00  0.00    +0.000 A 
ATOM     15  C   UNL     1       1.740   4.545  18.116  0.00  0.00    +0.000 A 
ENDBRANCH   1   9
BRANCH   1  19
ATOM     16  N   UNL     1       6.716   4.675  17.218  0.00  0.00    +0.000 NA
ATOM     17  C   UNL     1       6.668   5.971  17.922  0.00  0.00    +0.000 C 
ATOM     18  C   UNL     1       5.619   6.985  17.391  0.00  0.00    +0.000 C 
ATOM     19  N   UNL     1       4.232   6.458  17.252  0.00  0.00    +0.000 NA
ATOM     20  C   UNL     1       4.327   5.187  16.503  0.00  0.00    +0.000 C 
ATOM     21  C   UNL     1       5.331   4.163  17.080  0.00  0.00    +0.000 C 
BRANCH  16  22
ATOM     22  C   UNL     1       7.380   4.728  15.899  0.00  0.00    +0.000 C 
BRANCH  22  23
ATOM     23  C   UNL     1       6.473   4.884  14.660  0.00  0.00    +0.000 C 
BRANCH  23  24
ATOM     24  O   UNL     1       6.137   3.632  14.043  0.00  0.00    +0.000 OA
BRANCH  24  25
ATOM     25  C   UNL     1       6.456   3.687  12.643  0.00  0.00    +0.000 C 
BRANCH  25  27
ATOM     26  O   UNL     1       4.361   3.080  11.565  0.00  0.00    +0.000 OA
ATOM     27  C   UNL     1       5.521   2.800  11.836  0.00  0.00    +0.000 C 
BRANCH  27  28
ATOM     28  O   UNL     1       6.121   1.645  11.453  0.00  0.00    +0.000 OA
ATOM     29  H   UNL     1       6.962   1.557  11.962  0.00  0.00    +0.000 HD
ENDBRANCH  27  28
ENDBRANCH  25  27
ENDBRANCH  24  25
ENDBRANCH  23  24
ENDBRANCH  22  23
ENDBRANCH  16  22
ENDBRANCH   1  19
TORSDOF 9
ENDMDL
MODEL 8
REMARK VINA RESULT:      -7.3      2.284      3.472
REMARK  Name = 
REMARK  9 active torsions:
REMARK  status: ('A' for Active; 'I' for Inactive)
REMARK    1  A    between atoms: C_2  and  O_3
REMARK    2  A    between atoms: C_2  and  C_4
REMARK    3  A    between atoms: C_4  and  O_5
REMARK    4  A    between atoms: O_5  and  C_6
REMARK    5  A    between atoms: C_6  and  C_7
REMARK    6  A    between atoms: C_7  and  N_8
REMARK    7  A    between atoms: N_11  and  C_12
REMARK    8  A    between atoms: C_12  and  C_13
REMARK    9  A    between atoms: C_12  and  C_20
REMARK                            x       y       z     vdW  Elec       q    Type
REMARK                         _______ _______ _______ _____ _____    ______ ____
ROOT
ATOM      1  C   UNL     1       2.831   5.915  18.306  0.00  0.00    +0.000 C 
ENDROOT
BRANCH   1   2
ATOM      2  C   UNL     1       2.354   4.848  19.307  0.00  0.00    +0.000 A 
ATOM      3  C   UNL     1       1.270   4.004  18.999  0.00  0.00    +0.000 A 
ATOM      4  C   UNL     1       0.762   3.118  19.949  0.00  0.00    +0.000 A 
ATOM      5  C   UNL     1       1.330   3.076  21.215  0.00  0.00    +0.000 A 
ATOM      6  F   UNL     1       0.829   2.240  22.134  0.00  0.00    +0.000 F 
ATOM      7  C   UNL     1       2.397   3.902  21.550  0.00  0.00    +0.000 A 
ATOM      8  C   UNL     1       2.915   4.782  20.597  0.00  0.00    +0.000 A 
ENDBRANCH   1   2
BRANCH   1   9
ATOM      9  C   UNL     1       2.259   7.302  18.676  0.00  0.00    +0.000 A 
ATOM     10  C   UNL     1       1.960   7.595  20.020  0.00  0.00    +0.000 A 
ATOM     11  C   UNL     1       1.354   8.808  20.376  0.00  0.00    +0.000 A 
ATOM     12  C   UNL     1       1.057   9.740  19.390  0.00  0.00    +0.000 A 
ATOM     13  F   UNL     1       0.436  10.879  19.721  0.00  0.00    +0.000 F 
ATOM     14  C   UNL     1       1.394   9.503  18.064  0.00  0.00    +0.000 A 
ATOM     15  C   UNL     1       2.010   8.299  17.713  0.00  0.00    +0.000 A 
ENDBRANCH   1   9
BRANCH   1  19
ATOM     16  N   UNL     1       5.071   5.255  15.260  0.00  0.00    +0.000 NA
ATOM     17  C   UNL     1       4.562   4.225  16.185  0.00  0.00    +0.000 C 
ATOM     18  C   UNL     1       4.778   4.513  17.696  0.00  0.00    +0.000 C 
ATOM     19  N   UNL     1       4.322   5.851  18.164  0.00  0.00    +0.000 NA
ATOM     20  C   UNL     1       4.892   6.850  17.236  0.00  0.00    +0.000 C 
ATOM     21  C   UNL     1       4.616   6.583  15.738  0.00  0.00    +0.000 C 
BRANCH  16  22
ATOM     22  C   UNL     1       6.539   5.243  15.090  0.00  0.00    +0.000 C 
BRANCH  22  23
ATOM     23  C   UNL     1       7.347   4.315  16.022  0.00  0.00    +0.000 C 
BRANCH  23  24
ATOM     24  O   UNL     1       8.204   5.027  16.926  0.00  0.00    +0.000 OA
BRANCH  24  25
ATOM     25  C   UNL     1       8.054   4.490  18.251  0.00  0.00    +0.000 C 
BRANCH  25  27
ATOM     26  O   UNL     1       7.212   5.453  20.322  0.00  0.00    +0.000 OA
ATOM     27  C   UNL     1       7.809   5.599  19.263  0.00  0.00    +0.000 C 
BRANCH  27  28
ATOM     28  O   UNL     1       8.324   6.785  18.852  0.00  0.00    +0.000 OA
ATOM     29  H   UNL     1       9.138   6.962  19.381  0.00  0.00    +0.000 HD
ENDBRANCH  27  28
ENDBRANCH  25  27
ENDBRANCH  24  25
ENDBRANCH  23  24
ENDBRANCH  22  23
ENDBRANCH  16  22
ENDBRANCH   1  19
TORSDOF 9
ENDMDL
MODEL 9
REMARK VINA RESULT:      -7.1      1.484      4.676
REMARK  Name = 
REMARK  9 active torsions:
REMARK  status: ('A' for Active; 'I' for Inactive)
REMARK    1  A    between atoms: C_2  and  O_3
REMARK    2  A    between atoms: C_2  and  C_4
REMARK    3  A    between atoms: C_4  and  O_5
REMARK    4  A    between atoms: O_5  and  C_6
REMARK    5  A    between atoms: C_6  and  C_7
REMARK    6  A    between atoms: C_7  and  N_8
REMARK    7  A    between atoms: N_11  and  C_12
REMARK    8  A    between atoms: C_12  and  C_13
REMARK    9  A    between atoms: C_12  and  C_20
REMARK                            x       y       z     vdW  Elec       q    Type
REMARK                         _______ _______ _______ _____ _____    ______ ____
ROOT
ATOM      1  C   UNL     1       3.237   6.452  19.088  0.00  0.00    +0.000 C 
ENDROOT
BRANCH   1   2
ATOM      2  C   UNL     1       2.352   7.710  19.071  0.00  0.00    +0.000 A 
ATOM      3  C   UNL     1       1.724   8.166  20.246  0.00  0.00    +0.000 A 
ATOM      4  C   UNL     1       0.828   9.236  20.208  0.00  0.00    +0.000 A 
ATOM      5  C   UNL     1       0.550   9.850  18.995  0.00  0.00    +0.000 A 
ATOM      6  F   UNL     1      -0.325  10.863  18.955  0.00  0.00    +0.000 F 
ATOM      7  C   UNL     1       1.150   9.417  17.818  0.00  0.00    +0.000 A 
ATOM      8  C   UNL     1       2.056   8.354  17.854  0.00  0.00    +0.000 A 
ENDBRANCH   1   2
BRANCH   1   9
ATOM      9  C   UNL     1       2.492   5.271  19.749  0.00  0.00    +0.000 A 
ATOM     10  C   UNL     1       2.869   4.843  21.036  0.00  0.00    +0.000 A 
ATOM     11  C   UNL     1       2.276   3.717  21.623  0.00  0.00    +0.000 A 
ATOM     12  C   UNL     1       1.292   3.022  20.932  0.00  0.00    +0.000 A 
ATOM     13  F   UNL     1       0.757   1.919  21.471  0.00  0.00    +0.000 F 
ATOM     14  C   UNL     1       0.858   3.456  19.686  0.00  0.00    +0.000 A 
ATOM     15  C   UNL     1       1.441   4.586  19.107  0.00  0.00    +0.000 A 
ENDBRANCH   1   9
BRANCH   1  19
ATOM     16  N   UNL     1       6.472   4.761  17.899  0.00  0.00    +0.000 NA
ATOM     17  C   UNL     1       6.307   6.205  18.156  0.00  0.00    +0.000 C 
ATOM     18  C   UNL     1       5.076   6.870  17.484  0.00  0.00    +0.000 C 
ATOM     19  N   UNL     1       3.773   6.186  17.714  0.00  0.00    +0.000 NA
ATOM     20  C   UNL     1       3.975   4.756  17.401  0.00  0.00    +0.000 C 
ATOM     21  C   UNL     1       5.168   4.091  18.126  0.00  0.00    +0.000 C 
BRANCH  16  22
ATOM     22  C   UNL     1       6.989   4.442  16.552  0.00  0.00    +0.000 C 
BRANCH  22  23
ATOM     23  C   UNL     1       6.132   3.506  15.673  0.00  0.00    +0.000 C 
BRANCH  23  24
ATOM     24  O   UNL     1       6.318   3.722  14.266  0.00  0.00    +0.000 OA
BRANCH  24  25
ATOM     25  C   UNL     1       6.675   5.095  14.035  0.00  0.00    +0.000 C 
BRANCH  25  27
ATOM     26  O   UNL     1       8.760   5.895  13.068  0.00  0.00    +0.000 OA
ATOM     27  C   UNL     1       7.754   5.205  12.968  0.00  0.00    +0.000 C 
BRANCH  27  28
ATOM     28  O   UNL     1       7.467   4.451  11.877  0.00  0.00    +0.000 OA
ATOM     29  H   UNL     1       7.899   4.872  11.096  0.00  0.00    +0.000 HD
ENDBRANCH  27  28
ENDBRANCH  25  27
ENDBRANCH  24  25
ENDBRANCH  23  24
ENDBRANCH  22  23
ENDBRANCH  16  22
ENDBRANCH   1  19
TORSDOF 9
ENDMDL
