MODEL 1
REMARK VINA RESULT:      -7.8      0.000      0.000
REMARK  Name = 
REMARK  4 active torsions:
REMARK  status: ('A' for Active; 'I' for Inactive)
REMARK    1  A    between atoms: N_3  and  C_4
REMARK    2  A    between atoms: C_4  and  C_5
REMARK    3  A    between atoms: C_18  and  O_19
REMARK    4  A    between atoms: O_19  and  C_20
REMARK                            x       y       z     vdW  Elec       q    Type
REMARK                         _______ _______ _______ _____ _____    ______ ____
ROOT
ATOM      1  O   UNL     1       1.304   8.482  22.057  0.00  0.00    +0.000 OA
ATOM      2  C   UNL     1       1.394   8.374  20.840  0.00  0.00    +0.000 C 
ATOM      3  N   UNL     1       1.759   7.210  20.216  0.00  0.00    +0.000 N 
ATOM      4  N   UNL     1       1.130   9.400  19.979  0.00  0.00    +0.000 N 
ATOM      5  C   UNL     1       0.479  10.669  20.261  0.00  0.00    +0.000 C 
ATOM      6  C   UNL     1      -0.208  10.537  18.885  0.00  0.00    +0.000 C 
ATOM      7  C   UNL     1       0.808   9.418  18.567  0.00  0.00    +0.000 C 
ATOM      8  H   UNL     1       2.132   7.290  19.282  0.00  0.00    +0.000 HD
ENDROOT
BRANCH   3   9
ATOM      9  C   UNL     1       2.179   6.054  20.970  0.00  0.00    +0.000 C 
BRANCH   9  10
ATOM     10  C   UNL     1       2.918   5.139  20.051  0.00  0.00    +0.000 A 
ATOM     11  C   UNL     1       2.958   3.764  20.146  0.00  0.00    +0.000 A 
ATOM     12  S   UNL     1       3.915   3.117  18.894  0.00  0.00    +0.000 S 
ATOM     13  C   UNL     1       4.193   4.709  18.254  0.00  0.00    +0.000 A 
ATOM     14  N   UNL     1       4.875   4.933  17.092  0.00  0.00    +0.000 N 
ATOM     15  C   UNL     1       5.136   6.328  16.698  0.00  0.00    +0.000 C 
ATOM     16  C   UNL     1       5.345   6.405  15.177  0.00  0.00    +0.000 C 
ATOM     17  O   UNL     1       6.385   5.515  14.733  0.00  0.00    +0.000 OA
ATOM     18  C   UNL     1       6.059   4.162  15.084  0.00  0.00    +0.000 C 
ATOM     19  C   UNL     1       5.903   4.001  16.606  0.00  0.00    +0.000 C 
ATOM     20  N   UNL     1       3.615   5.660  18.963  0.00  0.00    +0.000 NA
ENDBRANCH   9  10
ENDBRANCH   3   9
BRANCH   6  21
ATOM     21  O   UNL     1      -1.611  10.172  18.929  0.00  0.00    +0.000 OA
BRANCH  21  22
ATOM     22  C   UNL     1      -2.422  10.483  17.863  0.00  0.00    +0.000 A 
ATOM     23  C   UNL     1      -2.054   9.891  16.652  0.00  0.00    +0.000 A 
ATOM     24  C   UNL     1      -2.791  10.134  15.490  0.00  0.00    +0.000 A 
ATOM     25  C   UNL     1      -3.901  10.977  15.530  0.00  0.00    +0.000 A 
ATOM     26  C   UNL     1      -4.275  11.569  16.733  0.00  0.00    +0.000 A 
ATOM     27  C   UNL     1      -3.541  11.317  17.891  0.00  0.00    +0.000 A 
ATOM     28  F   UNL     1      -3.947  11.911  19.022  0.00  0.00    +0.000 F 
ENDBRANCH  21  22
ENDBRANCH   6  21
TORSDOF 4
ENDMDL
MODEL 2
REMARK VINA RESULT:      -7.7      6.416      9.095
REMARK  Name = 
REMARK  4 active torsions:
REMARK  status: ('A' for Active; 'I' for Inactive)
REMARK    1  A    between atoms: N_3  and  C_4
REMARK    2  A    between atoms: C_4  and  C_5
REMARK    3  A    between atoms: C_18  and  O_19
REMARK    4  A    between atoms: O_19  and  C_20
REMARK                            x       y       z     vdW  Elec       q    Type
REMARK                         _______ _______ _______ _____ _____    ______ ____
ROOT
ATOM      1  O   UNL     1       7.732   6.529  16.132  0.00  0.00    +0.000 OA
ATOM      2  C   UNL     1       7.441   6.700  17.309  0.00  0.00    +0.000 C 
ATOM      3  N   UNL     1       7.581   7.903  17.950  0.00  0.00    +0.000 N 
ATOM      4  N   UNL     1       6.934   5.711  18.103  0.00  0.00    +0.000 N 
ATOM      5  C   UNL     1       6.418   4.412  17.706  0.00  0.00    +0.000 C 
ATOM      6  C   UNL     1       5.337   4.591  18.793  0.00  0.00    +0.000 C 
ATOM      7  C   UNL     1       6.192   5.753  19.346  0.00  0.00    +0.000 C 
ATOM      8  H   UNL     1       7.648   7.880  18.956  0.00  0.00    +0.000 HD
ENDROOT
BRANCH   3   9
ATOM      9  C   UNL     1       8.200   9.032  17.299  0.00  0.00    +0.000 C 
BRANCH   9  10
ATOM     10  C   UNL     1       8.729   9.948  18.353  0.00  0.00    +0.000 A 
ATOM     11  C   UNL     1       8.944   9.615  19.673  0.00  0.00    +0.000 A 
ATOM     12  S   UNL     1       9.554  10.959  20.525  0.00  0.00    +0.000 S 
ATOM     13  C   UNL     1       9.545  11.912  19.071  0.00  0.00    +0.000 A 
ATOM     14  N   UNL     1      10.040  13.184  19.014  0.00  0.00    +0.000 N 
ATOM     15  C   UNL     1       9.889  13.932  17.754  0.00  0.00    +0.000 C 
ATOM     16  C   UNL     1      10.967  15.025  17.671  0.00  0.00    +0.000 C 
ATOM     17  O   UNL     1      10.942  15.892  18.819  0.00  0.00    +0.000 OA
ATOM     18  C   UNL     1      11.153  15.129  20.016  0.00  0.00    +0.000 C 
ATOM     19  C   UNL     1      10.065  14.057  20.197  0.00  0.00    +0.000 C 
ATOM     20  N   UNL     1       9.087  11.254  18.023  0.00  0.00    +0.000 NA
ENDBRANCH   9  10
ENDBRANCH   3   9
BRANCH   6  21
ATOM     21  O   UNL     1       4.012   4.914  18.298  0.00  0.00    +0.000 OA
BRANCH  21  22
ATOM     22  C   UNL     1       2.920   4.270  18.828  0.00  0.00    +0.000 A 
ATOM     23  C   UNL     1       2.529   3.115  18.146  0.00  0.00    +0.000 A 
ATOM     24  C   UNL     1       1.426   2.373  18.579  0.00  0.00    +0.000 A 
ATOM     25  C   UNL     1       0.701   2.786  19.696  0.00  0.00    +0.000 A 
ATOM     26  C   UNL     1       1.085   3.935  20.382  0.00  0.00    +0.000 A 
ATOM     27  C   UNL     1       2.191   4.667  19.951  0.00  0.00    +0.000 A 
ATOM     28  F   UNL     1       2.518   5.763  20.649  0.00  0.00    +0.000 F 
ENDBRANCH  21  22
ENDBRANCH   6  21
TORSDOF 4
ENDMDL
MODEL 3
REMARK VINA RESULT:      -7.6      6.915      9.733
REMARK  Name = 
REMARK  4 active torsions:
REMARK  status: ('A' for Active; 'I' for Inactive)
REMARK    1  A    between atoms: N_3  and  C_4
REMARK    2  A    between atoms: C_4  and  C_5
REMARK    3  A    between atoms: C_18  and  O_19
REMARK    4  A    between atoms: O_19  and  C_20
REMARK                            x       y       z     vdW  Elec       q    Type
REMARK                         _______ _______ _______ _____ _____    ______ ____
ROOT
ATOM      1  O   UNL     1       7.535   7.142  16.234  0.00  0.00    +0.000 OA
ATOM      2  C   UNL     1       7.736   7.147  17.442  0.00  0.00    +0.000 C 
ATOM      3  N   UNL     1       8.065   8.276  18.143  0.00  0.00    +0.000 N 
ATOM      4  N   UNL     1       7.643   6.026  18.218  0.00  0.00    +0.000 N 
ATOM      5  C   UNL     1       7.073   4.735  17.872  0.00  0.00    +0.000 C 
ATOM      6  C   UNL     1       6.517   4.677  19.311  0.00  0.00    +0.000 C 
ATOM      7  C   UNL     1       7.466   5.850  19.645  0.00  0.00    +0.000 C 
ATOM      8  H   UNL     1       8.534   8.146  19.027  0.00  0.00    +0.000 HD
ENDROOT
BRANCH   3   9
ATOM      9  C   UNL     1       8.313   9.530  17.473  0.00  0.00    +0.000 C 
BRANCH   9  10
ATOM     10  C   UNL     1       9.013  10.441  18.427  0.00  0.00    +0.000 A 
ATOM     11  C   UNL     1       9.192  10.210  19.774  0.00  0.00    +0.000 A 
ATOM     12  S   UNL     1      10.043  11.505  20.483  0.00  0.00    +0.000 S 
ATOM     13  C   UNL     1      10.172  12.293  18.939  0.00  0.00    +0.000 A 
ATOM     14  N   UNL     1      10.879  13.447  18.752  0.00  0.00    +0.000 N 
ATOM     15  C   UNL     1      10.837  14.079  17.422  0.00  0.00    +0.000 C 
ATOM     16  C   UNL     1      12.087  14.952  17.226  0.00  0.00    +0.000 C 
ATOM     17  O   UNL     1      12.235  15.921  18.279  0.00  0.00    +0.000 OA
ATOM     18  C   UNL     1      12.333  15.258  19.548  0.00  0.00    +0.000 C 
ATOM     19  C   UNL     1      11.078  14.417  19.839  0.00  0.00    +0.000 C 
ATOM     20  N   UNL     1       9.587  11.624  17.965  0.00  0.00    +0.000 NA
ENDBRANCH   9  10
ENDBRANCH   3   9
BRANCH   6  21
ATOM     21  O   UNL     1       5.091   4.916  19.430  0.00  0.00    +0.000 OA
BRANCH  21  22
ATOM     22  C   UNL     1       4.210   4.049  18.830  0.00  0.00    +0.000 A 
ATOM     23  C   UNL     1       4.167   2.771  19.395  0.00  0.00    +0.000 A 
ATOM     24  C   UNL     1       3.319   1.791  18.871  0.00  0.00    +0.000 A 
ATOM     25  C   UNL     1       2.510   2.082  17.772  0.00  0.00    +0.000 A 
ATOM     26  C   UNL     1       2.547   3.353  17.205  0.00  0.00    +0.000 A 
ATOM     27  C   UNL     1       3.389   4.329  17.736  0.00  0.00    +0.000 A 
ATOM     28  F   UNL     1       3.383   5.536  17.154  0.00  0.00    +0.000 F 
ENDBRANCH  21  22
ENDBRANCH   6  21
TORSDOF 4
ENDMDL
MODEL 4
REMARK VINA RESULT:      -7.6      6.444      9.185
REMARK  Name = 
REMARK  4 active torsions:
REMARK  status: ('A' for Active; 'I' for Inactive)
REMARK    1  A    between atoms: N_3  and  C_4
REMARK    2  A    between atoms: C_4  and  C_5
REMARK    3  A    between atoms: C_18  and  O_19
REMARK    4  A    between atoms: O_19  and  C_20
REMARK                            x       y       z     vdW  Elec       q    Type
REMARK                         _______ _______ _______ _____ _____    ______ ____
ROOT
ATOM      1  O   UNL     1       7.393   6.774  16.076  0.00  0.00    +0.000 OA
ATOM      2  C   UNL     1       7.415   6.796  17.300  0.00  0.00    +0.000 C 
ATOM      3  N   UNL     1       7.885   7.860  18.023  0.00  0.00    +0.000 N 
ATOM      4  N   UNL     1       6.963   5.764  18.072  0.00  0.00    +0.000 N 
ATOM      5  C   UNL     1       6.174   4.613  17.667  0.00  0.00    +0.000 C 
ATOM      6  C   UNL     1       5.419   4.752  19.006  0.00  0.00    +0.000 C 
ATOM      7  C   UNL     1       6.548   5.704  19.459  0.00  0.00    +0.000 C 
ATOM      8  H   UNL     1       8.182   7.675  18.969  0.00  0.00    +0.000 HD
ENDROOT
BRANCH   3   9
ATOM      9  C   UNL     1       8.501   8.993  17.375  0.00  0.00    +0.000 C 
BRANCH   9  10
ATOM     10  C   UNL     1       8.827  10.009  18.420  0.00  0.00    +0.000 A 
ATOM     11  C   UNL     1       9.175   9.737  19.726  0.00  0.00    +0.000 A 
ATOM     12  S   UNL     1       9.464  11.188  20.571  0.00  0.00    +0.000 S 
ATOM     13  C   UNL     1       9.156  12.113  19.132  0.00  0.00    +0.000 A 
ATOM     14  N   UNL     1       9.314  13.468  19.073  0.00  0.00    +0.000 N 
ATOM     15  C   UNL     1       8.928  14.159  17.830  0.00  0.00    +0.000 C 
ATOM     16  C   UNL     1       9.694  15.487  17.719  0.00  0.00    +0.000 C 
ATOM     17  O   UNL     1       9.501  16.316  18.879  0.00  0.00    +0.000 OA
ATOM     18  C   UNL     1       9.947  15.627  20.056  0.00  0.00    +0.000 C 
ATOM     19  C   UNL     1       9.169  14.316  20.266  0.00  0.00    +0.000 C 
ATOM     20  N   UNL     1       8.834  11.364  18.094  0.00  0.00    +0.000 NA
ENDBRANCH   9  10
ENDBRANCH   3   9
BRANCH   6  21
ATOM     21  O   UNL     1       4.081   5.304  18.905  0.00  0.00    +0.000 OA
BRANCH  21  22
ATOM     22  C   UNL     1       2.997   4.479  19.089  0.00  0.00    +0.000 A 
ATOM     23  C   UNL     1       2.408   4.554  20.354  0.00  0.00    +0.000 A 
ATOM     24  C   UNL     1       1.303   3.759  20.671  0.00  0.00    +0.000 A 
ATOM     25  C   UNL     1       0.782   2.876  19.725  0.00  0.00    +0.000 A 
ATOM     26  C   UNL     1       1.362   2.797  18.463  0.00  0.00    +0.000 A 
ATOM     27  C   UNL     1       2.460   3.598  18.148  0.00  0.00    +0.000 A 
ATOM     28  F   UNL     1       2.977   3.483  16.917  0.00  0.00    +0.000 F 
ENDBRANCH  21  22
ENDBRANCH   6  21
TORSDOF 4
ENDMDL
MODEL 5
REMARK VINA RESULT:      -7.5      3.837      8.914
REMARK  Name = 
REMARK  4 active torsions:
REMARK  status: ('A' for Active; 'I' for Inactive)
REMARK    1  A    between atoms: N_3  and  C_4
REMARK    2  A    between atoms: C_4  and  C_5
REMARK    3  A    between atoms: C_18  and  O_19
REMARK    4  A    between atoms: O_19  and  C_20
REMARK                            x       y       z     vdW  Elec       q    Type
REMARK                         _______ _______ _______ _____ _____    ______ ____
ROOT
ATOM      1  O   UNL     1       1.324   8.148  21.979  0.00  0.00    +0.000 OA
ATOM      2  C   UNL     1       1.487   8.307  20.775  0.00  0.00    +0.000 C 
ATOM      3  N   UNL     1       1.478   9.537  20.173  0.00  0.00    +0.000 N 
ATOM      4  N   UNL     1       1.706   7.273  19.910  0.00  0.00    +0.000 N 
ATOM      5  C   UNL     1       2.034   5.892  20.220  0.00  0.00    +0.000 C 
ATOM      6  C   UNL     1       2.981   5.921  19.001  0.00  0.00    +0.000 C 
ATOM      7  C   UNL     1       2.278   7.230  18.580  0.00  0.00    +0.000 C 
ATOM      8  H   UNL     1       1.279   9.561  19.185  0.00  0.00    +0.000 HD
ENDROOT
BRANCH   3   9
ATOM      9  C   UNL     1       1.154  10.732  20.914  0.00  0.00    +0.000 C 
BRANCH   9  10
ATOM     10  C   UNL     1      -0.184  11.216  20.461  0.00  0.00    +0.000 A 
ATOM     11  C   UNL     1      -0.961  12.155  21.106  0.00  0.00    +0.000 A 
ATOM     12  S   UNL     1      -2.408  12.410  20.245  0.00  0.00    +0.000 S 
ATOM     13  C   UNL     1      -1.905  11.284  19.021  0.00  0.00    +0.000 A 
ATOM     14  N   UNL     1      -2.624  11.054  17.882  0.00  0.00    +0.000 N 
ATOM     15  C   UNL     1      -2.151  10.005  16.962  0.00  0.00    +0.000 C 
ATOM     16  C   UNL     1      -2.679  10.285  15.545  0.00  0.00    +0.000 C 
ATOM     17  O   UNL     1      -4.111  10.417  15.523  0.00  0.00    +0.000 OA
ATOM     18  C   UNL     1      -4.520  11.490  16.385  0.00  0.00    +0.000 C 
ATOM     19  C   UNL     1      -4.082  11.238  17.838  0.00  0.00    +0.000 C 
ATOM     20  N   UNL     1      -0.729  10.739  19.270  0.00  0.00    +0.000 NA
ENDBRANCH   9  10
ENDBRANCH   3   9
BRANCH   6  21
ATOM     21  O   UNL     1       4.394   5.994  19.320  0.00  0.00    +0.000 OA
BRANCH  21  22
ATOM     22  C   UNL     1       5.312   5.485  18.432  0.00  0.00    +0.000 A 
ATOM     23  C   UNL     1       4.776   5.050  17.217  0.00  0.00    +0.000 A 
ATOM     24  C   UNL     1       5.603   4.503  16.231  0.00  0.00    +0.000 A 
ATOM     25  C   UNL     1       6.974   4.382  16.457  0.00  0.00    +0.000 A 
ATOM     26  C   UNL     1       7.515   4.815  17.664  0.00  0.00    +0.000 A 
ATOM     27  C   UNL     1       6.687   5.367  18.642  0.00  0.00    +0.000 A 
ATOM     28  F   UNL     1       7.261   5.769  19.784  0.00  0.00    +0.000 F 
ENDBRANCH  21  22
ENDBRANCH   6  21
TORSDOF 4
ENDMDL
MODEL 6
REMARK VINA RESULT:      -7.4      7.024      9.605
REMARK  Name = 
REMARK  4 active torsions:
REMARK  status: ('A' for Active; 'I' for Inactive)
REMARK    1  A    between atoms: N_3  and  C_4
REMARK    2  A    between atoms: C_4  and  C_5
REMARK    3  A    between atoms: C_18  and  O_19
REMARK    4  A    between atoms: O_19  and  C_20
REMARK                            x       y       z     vdW  Elec       q    Type
REMARK                         _______ _______ _______ _____ _____    ______ ____
ROOT
ATOM      1  O   UNL     1       7.044   7.341  16.277  0.00  0.00    +0.000 OA
ATOM      2  C   UNL     1       7.455   7.235  17.426  0.00  0.00    +0.000 C 
ATOM      3  N   UNL     1       8.041   8.266  18.111  0.00  0.00    +0.000 N 
ATOM      4  N   UNL     1       7.360   6.079  18.147  0.00  0.00    +0.000 N 
ATOM      5  C   UNL     1       6.581   4.890  17.846  0.00  0.00    +0.000 C 
ATOM      6  C   UNL     1       6.284   4.792  19.358  0.00  0.00    +0.000 C 
ATOM      7  C   UNL     1       7.417   5.821  19.571  0.00  0.00    +0.000 C 
ATOM      8  H   UNL     1       8.639   8.018  18.885  0.00  0.00    +0.000 HD
ENDROOT
BRANCH   3   9
ATOM      9  C   UNL     1       8.322   9.528  17.471  0.00  0.00    +0.000 C 
BRANCH   9  10
ATOM     10  C   UNL     1       8.941  10.438  18.482  0.00  0.00    +0.000 A 
ATOM     11  C   UNL     1       9.196  10.121  19.799  0.00  0.00    +0.000 A 
ATOM     12  S   UNL     1       9.908  11.449  20.594  0.00  0.00    +0.000 S 
ATOM     13  C   UNL     1       9.884  12.372  19.121  0.00  0.00    +0.000 A 
ATOM     14  N   UNL     1      10.437  13.616  19.015  0.00  0.00    +0.000 N 
ATOM     15  C   UNL     1      10.270  14.345  17.746  0.00  0.00    +0.000 C 
ATOM     16  C   UNL     1      11.396  15.381  17.593  0.00  0.00    +0.000 C 
ATOM     17  O   UNL     1      11.463  16.270  18.722  0.00  0.00    +0.000 OA
ATOM     18  C   UNL     1      11.688  15.522  19.926  0.00  0.00    +0.000 C 
ATOM     19  C   UNL     1      10.557  14.511  20.176  0.00  0.00    +0.000 C 
ATOM     20  N   UNL     1       9.348  11.717  18.108  0.00  0.00    +0.000 NA
ENDBRANCH   9  10
ENDBRANCH   3   9
BRANCH   6  21
ATOM     21  O   UNL     1       4.944   5.182  19.750  0.00  0.00    +0.000 OA
BRANCH  21  22
ATOM     22  C   UNL     1       3.872   4.436  19.322  0.00  0.00    +0.000 A 
ATOM     23  C   UNL     1       2.989   5.107  18.472  0.00  0.00    +0.000 A 
ATOM     24  C   UNL     1       1.854   4.463  17.974  0.00  0.00    +0.000 A 
ATOM     25  C   UNL     1       1.590   3.139  18.327  0.00  0.00    +0.000 A 
ATOM     26  C   UNL     1       2.466   2.463  19.171  0.00  0.00    +0.000 A 
ATOM     27  C   UNL     1       3.601   3.109  19.660  0.00  0.00    +0.000 A 
ATOM     28  F   UNL     1       4.412   2.410  20.467  0.00  0.00    +0.000 F 
ENDBRANCH  21  22
ENDBRANCH   6  21
TORSDOF 4
ENDMDL
MODEL 7
REMARK VINA RESULT:      -7.4      3.899      9.374
REMARK  Name = 
REMARK  4 active torsions:
REMARK  status: ('A' for Active; 'I' for Inactive)
REMARK    1  A    between atoms: N_3  and  C_4
REMARK    2  A    between atoms: C_4  and  C_5
REMARK    3  A    between atoms: C_18  and  O_19
REMARK    4  A    between atoms: O_19  and  C_20
REMARK                            x       y       z     vdW  Elec       q    Type
REMARK                         _______ _______ _______ _____ _____    ______ ____
ROOT
ATOM      1  O   UNL     1       2.035  10.219  17.210  0.00  0.00    +0.000 OA
ATOM      2  C   UNL     1       1.798   9.710  18.299  0.00  0.00    +0.000 C 
ATOM      3  N   UNL     1       0.831  10.176  19.150  0.00  0.00    +0.000 N 
ATOM      4  N   UNL     1       2.466   8.617  18.772  0.00  0.00    +0.000 N 
ATOM      5  C   UNL     1       3.352   7.719  18.050  0.00  0.00    +0.000 C 
ATOM      6  C   UNL     1       2.731   6.567  18.870  0.00  0.00    +0.000 C 
ATOM      7  C   UNL     1       2.133   7.649  19.797  0.00  0.00    +0.000 C 
ATOM      8  H   UNL     1       0.926   9.936  20.125  0.00  0.00    +0.000 HD
ENDROOT
BRANCH   3   9
ATOM      9  C   UNL     1       0.099  11.386  18.863  0.00  0.00    +0.000 C 
BRANCH   9  10
ATOM     10  C   UNL     1      -1.255  11.006  18.360  0.00  0.00    +0.000 A 
ATOM     11  C   UNL     1      -1.520  10.027  17.426  0.00  0.00    +0.000 A 
ATOM     12  S   UNL     1      -3.197   9.926  17.144  0.00  0.00    +0.000 S 
ATOM     13  C   UNL     1      -3.493  11.167  18.323  0.00  0.00    +0.000 A 
ATOM     14  N   UNL     1      -4.750  11.553  18.696  0.00  0.00    +0.000 N 
ATOM     15  C   UNL     1      -4.880  12.684  19.631  0.00  0.00    +0.000 C 
ATOM     16  C   UNL     1      -6.225  12.589  20.371  0.00  0.00    +0.000 C 
ATOM     17  O   UNL     1      -7.335  12.512  19.459  0.00  0.00    +0.000 OA
ATOM     18  C   UNL     1      -7.196  11.362  18.611  0.00  0.00    +0.000 C 
ATOM     19  C   UNL     1      -5.899  11.428  17.787  0.00  0.00    +0.000 C 
ATOM     20  N   UNL     1      -2.388  11.637  18.870  0.00  0.00    +0.000 NA
ENDBRANCH   9  10
ENDBRANCH   3   9
BRANCH   6  21
ATOM     21  O   UNL     1       1.803   5.723  18.143  0.00  0.00    +0.000 OA
BRANCH  21  22
ATOM     22  C   UNL     1       1.769   4.375  18.409  0.00  0.00    +0.000 A 
ATOM     23  C   UNL     1       2.427   3.574  17.471  0.00  0.00    +0.000 A 
ATOM     24  C   UNL     1       2.457   2.185  17.620  0.00  0.00    +0.000 A 
ATOM     25  C   UNL     1       1.824   1.584  18.709  0.00  0.00    +0.000 A 
ATOM     26  C   UNL     1       1.169   2.376  19.648  0.00  0.00    +0.000 A 
ATOM     27  C   UNL     1       1.148   3.762  19.498  0.00  0.00    +0.000 A 
ATOM     28  F   UNL     1       0.505   4.476  20.434  0.00  0.00    +0.000 F 
ENDBRANCH  21  22
ENDBRANCH   6  21
TORSDOF 4
ENDMDL
MODEL 8
REMARK VINA RESULT:      -7.3      4.337      9.451
REMARK  Name = 
REMARK  4 active torsions:
REMARK  status: ('A' for Active; 'I' for Inactive)
REMARK    1  A    between atoms: N_3  and  C_4
REMARK    2  A    between atoms: C_4  and  C_5
REMARK    3  A    between atoms: C_18  and  O_19
REMARK    4  A    between atoms: O_19  and  C_20
REMARK                            x       y       z     vdW  Elec       q    Type
REMARK                         _______ _______ _______ _____ _____    ______ ____
ROOT
ATOM      1  O   UNL     1       2.266   4.800  21.504  0.00  0.00    +0.000 OA
ATOM      2  C   UNL     1       2.168   5.322  20.400  0.00  0.00    +0.000 C 
ATOM      3  N   UNL     1       1.916   6.657  20.222  0.00  0.00    +0.000 N 
ATOM      4  N   UNL     1       2.310   4.629  19.232  0.00  0.00    +0.000 N 
ATOM      5  C   UNL     1       2.829   3.285  19.039  0.00  0.00    +0.000 C 
ATOM      6  C   UNL     1       3.504   3.811  17.754  0.00  0.00    +0.000 C 
ATOM      7  C   UNL     1       2.605   5.061  17.882  0.00  0.00    +0.000 C 
ATOM      8  H   UNL     1       1.522   6.933  19.336  0.00  0.00    +0.000 HD
ENDROOT
BRANCH   3   9
ATOM      9  C   UNL     1       1.631   7.523  21.341  0.00  0.00    +0.000 C 
BRANCH   9  10
ATOM     10  C   UNL     1       1.029   8.784  20.815  0.00  0.00    +0.000 A 
ATOM     11  C   UNL     1       1.155   9.260  19.527  0.00  0.00    +0.000 A 
ATOM     12  S   UNL     1       0.309  10.729  19.358  0.00  0.00    +0.000 S 
ATOM     13  C   UNL     1      -0.227  10.634  21.009  0.00  0.00    +0.000 A 
ATOM     14  N   UNL     1      -1.097  11.533  21.559  0.00  0.00    +0.000 N 
ATOM     15  C   UNL     1      -1.404  11.412  22.994  0.00  0.00    +0.000 C 
ATOM     16  C   UNL     1      -2.767  12.059  23.287  0.00  0.00    +0.000 C 
ATOM     17  O   UNL     1      -2.820  13.425  22.837  0.00  0.00    +0.000 OA
ATOM     18  C   UNL     1      -2.576  13.487  21.424  0.00  0.00    +0.000 C 
ATOM     19  C   UNL     1      -1.193  12.916  21.069  0.00  0.00    +0.000 C 
ATOM     20  N   UNL     1       0.229   9.571  21.642  0.00  0.00    +0.000 NA
ENDBRANCH   9  10
ENDBRANCH   3   9
BRANCH   6  21
ATOM     21  O   UNL     1       4.938   4.008  17.848  0.00  0.00    +0.000 OA
BRANCH  21  22
ATOM     22  C   UNL     1       5.655   4.292  16.710  0.00  0.00    +0.000 A 
ATOM     23  C   UNL     1       4.956   4.111  15.514  0.00  0.00    +0.000 A 
ATOM     24  C   UNL     1       5.575   4.356  14.285  0.00  0.00    +0.000 A 
ATOM     25  C   UNL     1       6.903   4.780  14.243  0.00  0.00    +0.000 A 
ATOM     26  C   UNL     1       7.605   4.964  15.431  0.00  0.00    +0.000 A 
ATOM     27  C   UNL     1       6.981   4.725  16.655  0.00  0.00    +0.000 A 
ATOM     28  F   UNL     1       7.703   4.922  17.767  0.00  0.00    +0.000 F 
ENDBRANCH  21  22
ENDBRANCH   6  21
TORSDOF 4
ENDMDL
MODEL 9
REMARK VINA RESULT:      -7.1      3.862      8.735
REMARK  Name = 
REMARK  4 active torsions:
REMARK  status: ('A' for Active; 'I' for Inactive)
REMARK    1  A    between atoms: N_3  and  C_4
REMARK    2  A    between atoms: C_4  and  C_5
REMARK    3  A    between atoms: C_18  and  O_19
REMARK    4  A    between atoms: O_19  and  C_20
REMARK                            x       y       z     vdW  Elec       q    Type
REMARK                         _______ _______ _______ _____ _____    ______ ____
ROOT
ATOM      1  O   UNL     1       4.203   6.998  16.164  0.00  0.00    +0.000 OA
ATOM      2  C   UNL     1       4.165   6.896  17.384  0.00  0.00    +0.000 C 
ATOM      3  N   UNL     1       3.306   7.616  18.170  0.00  0.00    +0.000 N 
ATOM      4  N   UNL     1       4.969   6.044  18.085  0.00  0.00    +0.000 N 
ATOM      5  C   UNL     1       5.797   4.962  17.578  0.00  0.00    +0.000 C 
ATOM      6  C   UNL     1       5.385   4.159  18.831  0.00  0.00    +0.000 C 
ATOM      7  C   UNL     1       4.859   5.487  19.418  0.00  0.00    +0.000 C 
ATOM      8  H   UNL     1       3.561   7.730  19.140  0.00  0.00    +0.000 HD
ENDROOT
BRANCH   3   9
ATOM      9  C   UNL     1       2.459   8.642  17.612  0.00  0.00    +0.000 C 
BRANCH   9  10
ATOM     10  C   UNL     1       1.649   9.234  18.719  0.00  0.00    +0.000 A 
ATOM     11  C   UNL     1       1.401   8.643  19.939  0.00  0.00    +0.000 A 
ATOM     12  S   UNL     1       0.435   9.665  20.900  0.00  0.00    +0.000 S 
ATOM     13  C   UNL     1       0.435  10.875  19.653  0.00  0.00    +0.000 A 
ATOM     14  N   UNL     1      -0.134  12.106  19.813  0.00  0.00    +0.000 N 
ATOM     15  C   UNL     1      -0.161  13.015  18.654  0.00  0.00    +0.000 C 
ATOM     16  C   UNL     1      -0.265  14.470  19.140  0.00  0.00    +0.000 C 
ATOM     17  O   UNL     1      -1.396  14.666  20.006  0.00  0.00    +0.000 OA
ATOM     18  C   UNL     1      -1.296  13.806  21.151  0.00  0.00    +0.000 C 
ATOM     19  C   UNL     1      -1.257  12.325  20.736  0.00  0.00    +0.000 C 
ATOM     20  N   UNL     1       1.104  10.509  18.576  0.00  0.00    +0.000 NA
ENDBRANCH   9  10
ENDBRANCH   3   9
BRANCH   6  21
ATOM     21  O   UNL     1       4.419   3.103  18.596  0.00  0.00    +0.000 OA
BRANCH  21  22
ATOM     22  C   UNL     1       3.260   3.074  19.335  0.00  0.00    +0.000 A 
ATOM     23  C   UNL     1       3.410   2.616  20.647  0.00  0.00    +0.000 A 
ATOM     24  C   UNL     1       2.307   2.529  21.499  0.00  0.00    +0.000 A 
ATOM     25  C   UNL     1       1.040   2.896  21.043  0.00  0.00    +0.000 A 
ATOM     26  C   UNL     1       0.883   3.354  19.738  0.00  0.00    +0.000 A 
ATOM     27  C   UNL     1       1.989   3.446  18.894  0.00  0.00    +0.000 A 
ATOM     28  F   UNL     1       1.781   3.897  17.649  0.00  0.00    +0.000 F 
ENDBRANCH  21  22
ENDBRANCH   6  21
TORSDOF 4
ENDMDL
