MODEL 1
REMARK VINA RESULT:      -8.9      0.000      0.000
REMARK  Name = 
REMARK  3 active torsions:
REMARK  status: ('A' for Active; 'I' for Inactive)
REMARK    1  A    between atoms: N_8  and  C_9
REMARK    2  A    between atoms: C_9  and  C_10
REMARK    3  A    between atoms: C_13  and  C_14
REMARK                            x       y       z     vdW  Elec       q    Type
REMARK                         _______ _______ _______ _____ _____    ______ ____
ROOT
ATOM      1  C   UNL     1       2.906   5.304  19.436  0.00  0.00    +0.000 A 
ATOM      2  C   UNL     1       3.026   6.498  18.726  0.00  0.00    +0.000 A 
ATOM      3  C   UNL     1       2.348   7.638  19.162  0.00  0.00    +0.000 A 
ATOM      4  C   UNL     1       1.546   7.570  20.299  0.00  0.00    +0.000 A 
ATOM      5  N   UNL     1       1.397   6.403  20.979  0.00  0.00    +0.000 NA
ATOM      6  C   UNL     1       2.059   5.310  20.534  0.00  0.00    +0.000 A 
ENDROOT
BRANCH   4   7
ATOM      7  C   UNL     1       0.846   8.734  20.880  0.00  0.00    +0.000 A 
ATOM      8  C   UNL     1       0.752   8.886  22.279  0.00  0.00    +0.000 A 
ATOM      9  C   UNL     1       0.094   9.976  22.858  0.00  0.00    +0.000 A 
ATOM     10  C   UNL     1      -0.489  10.942  22.045  0.00  0.00    +0.000 A 
ATOM     11 CL   UNL     1      -1.310  12.277  22.751  0.00  0.00    +0.000 Cl
ATOM     12  C   UNL     1      -0.414  10.828  20.663  0.00  0.00    +0.000 A 
ATOM     13  C   UNL     1       0.244   9.734  20.098  0.00  0.00    +0.000 A 
ATOM     14  F   UNL     1       0.271   9.661  18.758  0.00  0.00    +0.000 F 
ENDBRANCH   4   7
BRANCH   1  15
ATOM     15  C   UNL     1       3.685   4.080  19.052  0.00  0.00    +0.000 C 
BRANCH  15  23
ATOM     16  F   UNL     1       4.974   4.180  13.648  0.00  0.00    +0.000 F 
ATOM     17  C   UNL     1       5.549   4.339  14.846  0.00  0.00    +0.000 A 
ATOM     18  C   UNL     1       6.915   4.603  14.914  0.00  0.00    +0.000 A 
ATOM     19  C   UNL     1       7.545   4.770  16.154  0.00  0.00    +0.000 A 
ATOM     20  C   UNL     1       6.768   4.671  17.318  0.00  0.00    +0.000 A 
ATOM     21  N   UNL     1       7.119   4.778  18.636  0.00  0.00    +0.000 NA
ATOM     22  N   UNL     1       6.029   4.596  19.370  0.00  0.00    +0.000 NA
ATOM     23  N   UNL     1       4.997   4.398  18.525  0.00  0.00    +0.000 N 
ATOM     24  C   UNL     1       5.403   4.416  17.216  0.00  0.00    +0.000 A 
ATOM     25  C   UNL     1       4.754   4.236  15.991  0.00  0.00    +0.000 A 
ENDBRANCH  15  23
ENDBRANCH   1  15
TORSDOF 3
ENDMDL
MODEL 2
REMARK VINA RESULT:      -8.6      2.098      2.829
REMARK  Name = 
REMARK  3 active torsions:
REMARK  status: ('A' for Active; 'I' for Inactive)
REMARK    1  A    between atoms: N_8  and  C_9
REMARK    2  A    between atoms: C_9  and  C_10
REMARK    3  A    between atoms: C_13  and  C_14
REMARK                            x       y       z     vdW  Elec       q    Type
REMARK                         _______ _______ _______ _____ _____    ______ ____
ROOT
ATOM      1  C   UNL     1       4.426   5.106  17.173  0.00  0.00    +0.000 A 
ATOM      2  C   UNL     1       4.732   6.457  17.008  0.00  0.00    +0.000 A 
ATOM      3  C   UNL     1       3.945   7.429  17.629  0.00  0.00    +0.000 A 
ATOM      4  C   UNL     1       2.852   7.040  18.400  0.00  0.00    +0.000 A 
ATOM      5  N   UNL     1       2.527   5.728  18.540  0.00  0.00    +0.000 NA
ATOM      6  C   UNL     1       3.300   4.805  17.924  0.00  0.00    +0.000 A 
ENDROOT
BRANCH   4   7
ATOM      7  C   UNL     1       2.001   7.986  19.153  0.00  0.00    +0.000 A 
ATOM      8  C   UNL     1       1.692   7.744  20.508  0.00  0.00    +0.000 A 
ATOM      9  C   UNL     1       0.888   8.620  21.246  0.00  0.00    +0.000 A 
ATOM     10  C   UNL     1       0.373   9.761  20.640  0.00  0.00    +0.000 A 
ATOM     11 CL   UNL     1      -0.626  10.833  21.539  0.00  0.00    +0.000 Cl
ATOM     12  C   UNL     1       0.659  10.033  19.309  0.00  0.00    +0.000 A 
ATOM     13  C   UNL     1       1.461   9.150  18.583  0.00  0.00    +0.000 A 
ATOM     14  F   UNL     1       1.691   9.450  17.295  0.00  0.00    +0.000 F 
ENDBRANCH   4   7
BRANCH   1  15
ATOM     15  C   UNL     1       5.296   4.028  16.594  0.00  0.00    +0.000 C 
BRANCH  15  23
ATOM     16  F   UNL     1       5.012   2.411  11.285  0.00  0.00    +0.000 F 
ATOM     17  C   UNL     1       5.739   3.203  12.082  0.00  0.00    +0.000 A 
ATOM     18  C   UNL     1       6.822   3.895  11.546  0.00  0.00    +0.000 A 
ATOM     19  C   UNL     1       7.606   4.727  12.356  0.00  0.00    +0.000 A 
ATOM     20  C   UNL     1       7.269   4.848  13.713  0.00  0.00    +0.000 A 
ATOM     21  N   UNL     1       7.857   5.569  14.717  0.00  0.00    +0.000 NA
ATOM     22  N   UNL     1       7.178   5.350  15.835  0.00  0.00    +0.000 NA
ATOM     23  N   UNL     1       6.160   4.517  15.538  0.00  0.00    +0.000 N 
ATOM     24  C   UNL     1       6.175   4.150  14.217  0.00  0.00    +0.000 A 
ATOM     25  C   UNL     1       5.385   3.307  13.430  0.00  0.00    +0.000 A 
ENDBRANCH  15  23
ENDBRANCH   1  15
TORSDOF 3
ENDMDL
MODEL 3
REMARK VINA RESULT:      -8.6      2.222      3.221
REMARK  Name = 
REMARK  3 active torsions:
REMARK  status: ('A' for Active; 'I' for Inactive)
REMARK    1  A    between atoms: N_8  and  C_9
REMARK    2  A    between atoms: C_9  and  C_10
REMARK    3  A    between atoms: C_13  and  C_14
REMARK                            x       y       z     vdW  Elec       q    Type
REMARK                         _______ _______ _______ _____ _____    ______ ____
ROOT
ATOM      1  C   UNL     1       4.417   4.964  17.300  0.00  0.00    +0.000 A 
ATOM      2  C   UNL     1       3.188   4.632  17.868  0.00  0.00    +0.000 A 
ATOM      3  C   UNL     1       2.362   5.636  18.378  0.00  0.00    +0.000 A 
ATOM      4  C   UNL     1       2.780   6.964  18.325  0.00  0.00    +0.000 A 
ATOM      5  N   UNL     1       3.990   7.294  17.803  0.00  0.00    +0.000 NA
ATOM      6  C   UNL     1       4.775   6.304  17.320  0.00  0.00    +0.000 A 
ENDROOT
BRANCH   4   7
ATOM      7  C   UNL     1       1.952   8.103  18.773  0.00  0.00    +0.000 A 
ATOM      8  C   UNL     1       1.597   9.125  17.869  0.00  0.00    +0.000 A 
ATOM      9  C   UNL     1       0.816  10.217  18.264  0.00  0.00    +0.000 A 
ATOM     10  C   UNL     1       0.373  10.309  19.579  0.00  0.00    +0.000 A 
ATOM     11 CL   UNL     1      -0.576  11.655  20.073  0.00  0.00    +0.000 Cl
ATOM     12  C   UNL     1       0.701   9.320  20.496  0.00  0.00    +0.000 A 
ATOM     13  C   UNL     1       1.482   8.237  20.090  0.00  0.00    +0.000 A 
ATOM     14  F   UNL     1       1.786   7.317  21.020  0.00  0.00    +0.000 F 
ENDBRANCH   4   7
BRANCH   1  15
ATOM     15  C   UNL     1       5.295   3.926  16.663  0.00  0.00    +0.000 C 
BRANCH  15  23
ATOM     16  F   UNL     1       5.116   2.466  11.304  0.00  0.00    +0.000 F 
ATOM     17  C   UNL     1       5.808   3.258  12.132  0.00  0.00    +0.000 A 
ATOM     18  C   UNL     1       6.870   4.004  11.628  0.00  0.00    +0.000 A 
ATOM     19  C   UNL     1       7.615   4.838  12.472  0.00  0.00    +0.000 A 
ATOM     20  C   UNL     1       7.263   4.905  13.828  0.00  0.00    +0.000 A 
ATOM     21  N   UNL     1       7.815   5.615  14.860  0.00  0.00    +0.000 NA
ATOM     22  N   UNL     1       7.134   5.337  15.963  0.00  0.00    +0.000 NA
ATOM     23  N   UNL     1       6.150   4.479  15.631  0.00  0.00    +0.000 N 
ATOM     24  C   UNL     1       6.190   4.153  14.299  0.00  0.00    +0.000 A 
ATOM     25  C   UNL     1       5.437   3.307  13.479  0.00  0.00    +0.000 A 
ENDBRANCH  15  23
ENDBRANCH   1  15
TORSDOF 3
ENDMDL
MODEL 4
REMARK VINA RESULT:      -8.5      1.895      2.374
REMARK  Name = 
REMARK  3 active torsions:
REMARK  status: ('A' for Active; 'I' for Inactive)
REMARK    1  A    between atoms: N_8  and  C_9
REMARK    2  A    between atoms: C_9  and  C_10
REMARK    3  A    between atoms: C_13  and  C_14
REMARK                            x       y       z     vdW  Elec       q    Type
REMARK                         _______ _______ _______ _____ _____    ______ ____
ROOT
ATOM      1  C   UNL     1       2.627   6.605  19.026  0.00  0.00    +0.000 A 
ATOM      2  C   UNL     1       2.684   7.252  17.792  0.00  0.00    +0.000 A 
ATOM      3  C   UNL     1       2.184   8.549  17.662  0.00  0.00    +0.000 A 
ATOM      4  C   UNL     1       1.620   9.183  18.766  0.00  0.00    +0.000 A 
ATOM      5  N   UNL     1       1.530   8.549  19.965  0.00  0.00    +0.000 NA
ATOM      6  C   UNL     1       2.016   7.290  20.065  0.00  0.00    +0.000 A 
ENDROOT
BRANCH   4   7
ATOM      7  C   UNL     1       1.128  10.576  18.750  0.00  0.00    +0.000 A 
ATOM      8  C   UNL     1       2.022  11.647  18.543  0.00  0.00    +0.000 A 
ATOM      9  C   UNL     1       1.586  12.976  18.524  0.00  0.00    +0.000 A 
ATOM     10  C   UNL     1       0.238  13.263  18.714  0.00  0.00    +0.000 A 
ATOM     11 CL   UNL     1      -0.300  14.895  18.705  0.00  0.00    +0.000 Cl
ATOM     12  C   UNL     1      -0.672  12.234  18.917  0.00  0.00    +0.000 A 
ATOM     13  C   UNL     1      -0.224  10.913  18.936  0.00  0.00    +0.000 A 
ATOM     14  F   UNL     1      -1.142   9.958  19.154  0.00  0.00    +0.000 F 
ENDBRANCH   4   7
BRANCH   1  15
ATOM     15  C   UNL     1       3.231   5.246  19.229  0.00  0.00    +0.000 C 
BRANCH  15  23
ATOM     16  F   UNL     1       5.095   4.100  14.121  0.00  0.00    +0.000 F 
ATOM     17  C   UNL     1       5.556   4.360  15.351  0.00  0.00    +0.000 A 
ATOM     18  C   UNL     1       6.931   4.357  15.574  0.00  0.00    +0.000 A 
ATOM     19  C   UNL     1       7.443   4.620  16.852  0.00  0.00    +0.000 A 
ATOM     20  C   UNL     1       6.540   4.891  17.892  0.00  0.00    +0.000 A 
ATOM     21  N   UNL     1       6.759   5.165  19.214  0.00  0.00    +0.000 NA
ATOM     22  N   UNL     1       5.582   5.339  19.800  0.00  0.00    +0.000 NA
ATOM     23  N   UNL     1       4.631   5.197  18.856  0.00  0.00    +0.000 N 
ATOM     24  C   UNL     1       5.172   4.895  17.633  0.00  0.00    +0.000 A 
ATOM     25  C   UNL     1       4.638   4.626  16.369  0.00  0.00    +0.000 A 
ENDBRANCH  15  23
ENDBRANCH   1  15
TORSDOF 3
ENDMDL
MODEL 5
REMARK VINA RESULT:      -8.5      2.626      3.400
REMARK  Name = 
REMARK  3 active torsions:
REMARK  status: ('A' for Active; 'I' for Inactive)
REMARK    1  A    between atoms: N_8  and  C_9
REMARK    2  A    between atoms: C_9  and  C_10
REMARK    3  A    between atoms: C_13  and  C_14
REMARK                            x       y       z     vdW  Elec       q    Type
REMARK                         _______ _______ _______ _____ _____    ______ ____
ROOT
ATOM      1  C   UNL     1       2.789   7.399  18.191  0.00  0.00    +0.000 A 
ATOM      2  C   UNL     1       2.221   8.530  17.604  0.00  0.00    +0.000 A 
ATOM      3  C   UNL     1       1.475   9.417  18.382  0.00  0.00    +0.000 A 
ATOM      4  C   UNL     1       1.293   9.158  19.739  0.00  0.00    +0.000 A 
ATOM      5  N   UNL     1       1.814   8.042  20.312  0.00  0.00    +0.000 NA
ATOM      6  C   UNL     1       2.528   7.194  19.537  0.00  0.00    +0.000 A 
ENDROOT
BRANCH   4   7
ATOM      7  C   UNL     1       0.581  10.068  20.660  0.00  0.00    +0.000 A 
ATOM      8  C   UNL     1       0.749  11.465  20.555  0.00  0.00    +0.000 A 
ATOM      9  C   UNL     1       0.090  12.351  21.414  0.00  0.00    +0.000 A 
ATOM     10  C   UNL     1      -0.755  11.855  22.401  0.00  0.00    +0.000 A 
ATOM     11 CL   UNL     1      -1.557  12.940  23.467  0.00  0.00    +0.000 Cl
ATOM     12  C   UNL     1      -0.948  10.487  22.532  0.00  0.00    +0.000 A 
ATOM     13  C   UNL     1      -0.283   9.613  21.671  0.00  0.00    +0.000 A 
ATOM     14  F   UNL     1      -0.489   8.299  21.852  0.00  0.00    +0.000 F 
ENDBRANCH   4   7
BRANCH   1  15
ATOM     15  C   UNL     1       3.669   6.467  17.410  0.00  0.00    +0.000 C 
BRANCH  15  23
ATOM     16  F   UNL     1       0.133   2.313  18.466  0.00  0.00    +0.000 F 
ATOM     17  C   UNL     1       1.393   2.682  18.725  0.00  0.00    +0.000 A 
ATOM     18  C   UNL     1       2.190   1.864  19.521  0.00  0.00    +0.000 A 
ATOM     19  C   UNL     1       3.511   2.227  19.813  0.00  0.00    +0.000 A 
ATOM     20  C   UNL     1       4.010   3.426  19.280  0.00  0.00    +0.000 A 
ATOM     21  N   UNL     1       5.236   4.018  19.410  0.00  0.00    +0.000 NA
ATOM     22  N   UNL     1       5.221   5.154  18.726  0.00  0.00    +0.000 NA
ATOM     23  N   UNL     1       4.006   5.268  18.152  0.00  0.00    +0.000 N 
ATOM     24  C   UNL     1       3.190   4.217  18.480  0.00  0.00    +0.000 A 
ATOM     25  C   UNL     1       1.866   3.880  18.183  0.00  0.00    +0.000 A 
ENDBRANCH  15  23
ENDBRANCH   1  15
TORSDOF 3
ENDMDL
MODEL 6
REMARK VINA RESULT:      -8.5      2.464      3.103
REMARK  Name = 
REMARK  3 active torsions:
REMARK  status: ('A' for Active; 'I' for Inactive)
REMARK    1  A    between atoms: N_8  and  C_9
REMARK    2  A    between atoms: C_9  and  C_10
REMARK    3  A    between atoms: C_13  and  C_14
REMARK                            x       y       z     vdW  Elec       q    Type
REMARK                         _______ _______ _______ _____ _____    ______ ____
ROOT
ATOM      1  C   UNL     1       2.881   7.507  18.237  0.00  0.00    +0.000 A 
ATOM      2  C   UNL     1       2.270   8.629  17.677  0.00  0.00    +0.000 A 
ATOM      3  C   UNL     1       1.400   9.404  18.446  0.00  0.00    +0.000 A 
ATOM      4  C   UNL     1       1.140   9.043  19.767  0.00  0.00    +0.000 A 
ATOM      5  N   UNL     1       1.706   7.933  20.311  0.00  0.00    +0.000 NA
ATOM      6  C   UNL     1       2.540   7.194  19.544  0.00  0.00    +0.000 A 
ENDROOT
BRANCH   4   7
ATOM      7  C   UNL     1       0.293   9.834  20.682  0.00  0.00    +0.000 A 
ATOM      8  C   UNL     1       0.193   9.483  22.045  0.00  0.00    +0.000 A 
ATOM      9  C   UNL     1      -0.603  10.212  22.935  0.00  0.00    +0.000 A 
ATOM     10  C   UNL     1      -1.320  11.313  22.478  0.00  0.00    +0.000 A 
ATOM     11 CL   UNL     1      -2.310  12.204  23.565  0.00  0.00    +0.000 Cl
ATOM     12  C   UNL     1      -1.244  11.690  21.144  0.00  0.00    +0.000 A 
ATOM     13  C   UNL     1      -0.448  10.953  20.265  0.00  0.00    +0.000 A 
ATOM     14  F   UNL     1      -0.423  11.348  18.983  0.00  0.00    +0.000 F 
ENDBRANCH   4   7
BRANCH   1  15
ATOM     15  C   UNL     1       3.887   6.697  17.472  0.00  0.00    +0.000 C 
BRANCH  15  23
ATOM     16  F   UNL     1       0.376   2.480  18.342  0.00  0.00    +0.000 F 
ATOM     17  C   UNL     1       1.637   2.840  18.608  0.00  0.00    +0.000 A 
ATOM     18  C   UNL     1       2.444   1.984  19.352  0.00  0.00    +0.000 A 
ATOM     19  C   UNL     1       3.767   2.336  19.651  0.00  0.00    +0.000 A 
ATOM     20  C   UNL     1       4.256   3.563  19.177  0.00  0.00    +0.000 A 
ATOM     21  N   UNL     1       5.482   4.153  19.326  0.00  0.00    +0.000 NA
ATOM     22  N   UNL     1       5.456   5.323  18.702  0.00  0.00    +0.000 NA
ATOM     23  N   UNL     1       4.236   5.462  18.147  0.00  0.00    +0.000 N 
ATOM     24  C   UNL     1       3.426   4.392  18.427  0.00  0.00    +0.000 A 
ATOM     25  C   UNL     1       2.100   4.067  18.125  0.00  0.00    +0.000 A 
ENDBRANCH  15  23
ENDBRANCH   1  15
TORSDOF 3
ENDMDL
MODEL 7
REMARK VINA RESULT:      -8.4      1.676      2.038
REMARK  Name = 
REMARK  3 active torsions:
REMARK  status: ('A' for Active; 'I' for Inactive)
REMARK    1  A    between atoms: N_8  and  C_9
REMARK    2  A    between atoms: C_9  and  C_10
REMARK    3  A    between atoms: C_13  and  C_14
REMARK                            x       y       z     vdW  Elec       q    Type
REMARK                         _______ _______ _______ _____ _____    ______ ____
ROOT
ATOM      1  C   UNL     1       2.566   6.426  19.095  0.00  0.00    +0.000 A 
ATOM      2  C   UNL     1       2.499   7.141  17.900  0.00  0.00    +0.000 A 
ATOM      3  C   UNL     1       1.969   8.432  17.890  0.00  0.00    +0.000 A 
ATOM      4  C   UNL     1       1.498   8.992  19.076  0.00  0.00    +0.000 A 
ATOM      5  N   UNL     1       1.530   8.291  20.240  0.00  0.00    +0.000 NA
ATOM      6  C   UNL     1       2.043   7.040  20.223  0.00  0.00    +0.000 A 
ENDROOT
BRANCH   4   7
ATOM      7  C   UNL     1       0.985  10.374  19.184  0.00  0.00    +0.000 A 
ATOM      8  C   UNL     1      -0.217  10.636  19.875  0.00  0.00    +0.000 A 
ATOM      9  C   UNL     1      -0.729  11.933  19.993  0.00  0.00    +0.000 A 
ATOM     10  C   UNL     1      -0.046  13.000  19.416  0.00  0.00    +0.000 A 
ATOM     11 CL   UNL     1      -0.678  14.593  19.546  0.00  0.00    +0.000 Cl
ATOM     12  C   UNL     1       1.141  12.779  18.731  0.00  0.00    +0.000 A 
ATOM     13  C   UNL     1       1.641  11.481  18.620  0.00  0.00    +0.000 A 
ATOM     14  F   UNL     1       2.782  11.320  17.931  0.00  0.00    +0.000 F 
ENDBRANCH   4   7
BRANCH   1  15
ATOM     15  C   UNL     1       3.208   5.070  19.165  0.00  0.00    +0.000 C 
BRANCH  15  23
ATOM     16  F   UNL     1       5.137   4.136  14.038  0.00  0.00    +0.000 F 
ATOM     17  C   UNL     1       5.582   4.389  15.274  0.00  0.00    +0.000 A 
ATOM     18  C   UNL     1       6.954   4.448  15.503  0.00  0.00    +0.000 A 
ATOM     19  C   UNL     1       7.450   4.706  16.787  0.00  0.00    +0.000 A 
ATOM     20  C   UNL     1       6.533   4.908  17.831  0.00  0.00    +0.000 A 
ATOM     21  N   UNL     1       6.736   5.162  19.160  0.00  0.00    +0.000 NA
ATOM     22  N   UNL     1       5.551   5.265  19.746  0.00  0.00    +0.000 NA
ATOM     23  N   UNL     1       4.609   5.099  18.795  0.00  0.00    +0.000 N 
ATOM     24  C   UNL     1       5.167   4.852  17.567  0.00  0.00    +0.000 A 
ATOM     25  C   UNL     1       4.649   4.587  16.296  0.00  0.00    +0.000 A 
ENDBRANCH  15  23
ENDBRANCH   1  15
TORSDOF 3
ENDMDL
MODEL 8
REMARK VINA RESULT:      -8.4      2.153      2.737
REMARK  Name = 
REMARK  3 active torsions:
REMARK  status: ('A' for Active; 'I' for Inactive)
REMARK    1  A    between atoms: N_8  and  C_9
REMARK    2  A    between atoms: C_9  and  C_10
REMARK    3  A    between atoms: C_13  and  C_14
REMARK                            x       y       z     vdW  Elec       q    Type
REMARK                         _______ _______ _______ _____ _____    ______ ____
ROOT
ATOM      1  C   UNL     1       2.468   6.936  18.760  0.00  0.00    +0.000 A 
ATOM      2  C   UNL     1       1.950   7.459  19.945  0.00  0.00    +0.000 A 
ATOM      3  C   UNL     1       1.507   8.782  19.987  0.00  0.00    +0.000 A 
ATOM      4  C   UNL     1       1.596   9.574  18.844  0.00  0.00    +0.000 A 
ATOM      5  N   UNL     1       2.128   9.083  17.694  0.00  0.00    +0.000 NA
ATOM      6  C   UNL     1       2.557   7.801  17.680  0.00  0.00    +0.000 A 
ENDROOT
BRANCH   4   7
ATOM      7  C   UNL     1       1.090  10.961  18.766  0.00  0.00    +0.000 A 
ATOM      8  C   UNL     1       1.987  12.041  18.629  0.00  0.00    +0.000 A 
ATOM      9  C   UNL     1       1.539  13.364  18.554  0.00  0.00    +0.000 A 
ATOM     10  C   UNL     1       0.176  13.635  18.616  0.00  0.00    +0.000 A 
ATOM     11 CL   UNL     1      -0.380  15.260  18.538  0.00  0.00    +0.000 Cl
ATOM     12  C   UNL     1      -0.737  12.597  18.747  0.00  0.00    +0.000 A 
ATOM     13  C   UNL     1      -0.277  11.281  18.823  0.00  0.00    +0.000 A 
ATOM     14  F   UNL     1      -1.199  10.317  18.968  0.00  0.00    +0.000 F 
ENDBRANCH   4   7
BRANCH   1  15
ATOM     15  C   UNL     1       2.875   5.495  18.649  0.00  0.00    +0.000 C 
BRANCH  15  23
ATOM     16  F   UNL     1       5.631   4.436  13.942  0.00  0.00    +0.000 F 
ATOM     17  C   UNL     1       5.853   4.586  15.253  0.00  0.00    +0.000 A 
ATOM     18  C   UNL     1       7.148   4.437  15.742  0.00  0.00    +0.000 A 
ATOM     19  C   UNL     1       7.412   4.583  17.110  0.00  0.00    +0.000 A 
ATOM     20  C   UNL     1       6.344   4.887  17.969  0.00  0.00    +0.000 A 
ATOM     21  N   UNL     1       6.313   5.071  19.324  0.00  0.00    +0.000 NA
ATOM     22  N   UNL     1       5.061   5.329  19.678  0.00  0.00    +0.000 NA
ATOM     23  N   UNL     1       4.312   5.329  18.557  0.00  0.00    +0.000 N 
ATOM     24  C   UNL     1       5.062   5.039  17.446  0.00  0.00    +0.000 A 
ATOM     25  C   UNL     1       4.774   4.888  16.086  0.00  0.00    +0.000 A 
ENDBRANCH  15  23
ENDBRANCH   1  15
TORSDOF 3
ENDMDL
MODEL 9
REMARK VINA RESULT:      -8.4      2.232      3.042
REMARK  Name = 
REMARK  3 active torsions:
REMARK  status: ('A' for Active; 'I' for Inactive)
REMARK    1  A    between atoms: N_8  and  C_9
REMARK    2  A    between atoms: C_9  and  C_10
REMARK    3  A    between atoms: C_13  and  C_14
REMARK                            x       y       z     vdW  Elec       q    Type
REMARK                         _______ _______ _______ _____ _____    ______ ____
ROOT
ATOM      1  C   UNL     1       4.299   5.303  17.106  0.00  0.00    +0.000 A 
ATOM      2  C   UNL     1       4.539   6.634  16.768  0.00  0.00    +0.000 A 
ATOM      3  C   UNL     1       3.745   7.645  17.311  0.00  0.00    +0.000 A 
ATOM      4  C   UNL     1       2.708   7.313  18.180  0.00  0.00    +0.000 A 
ATOM      5  N   UNL     1       2.445   6.017  18.491  0.00  0.00    +0.000 NA
ATOM      6  C   UNL     1       3.224   5.054  17.947  0.00  0.00    +0.000 A 
ENDROOT
BRANCH   4   7
ATOM      7  C   UNL     1       1.857   8.312  18.861  0.00  0.00    +0.000 A 
ATOM      8  C   UNL     1       1.385   9.443  18.162  0.00  0.00    +0.000 A 
ATOM      9  C   UNL     1       0.580  10.405  18.780  0.00  0.00    +0.000 A 
ATOM     10  C   UNL     1       0.229  10.256  20.118  0.00  0.00    +0.000 A 
ATOM     11 CL   UNL     1      -0.749  11.443  20.886  0.00  0.00    +0.000 Cl
ATOM     12  C   UNL     1       0.672   9.154  20.837  0.00  0.00    +0.000 A 
ATOM     13  C   UNL     1       1.477   8.201  20.209  0.00  0.00    +0.000 A 
ATOM     14  F   UNL     1       1.893   7.165  20.953  0.00  0.00    +0.000 F 
ENDBRANCH   4   7
BRANCH   1  15
ATOM     15  C   UNL     1       5.183   4.194  16.613  0.00  0.00    +0.000 C 
BRANCH  15  23
ATOM     16  F   UNL     1       4.991   2.452  11.340  0.00  0.00    +0.000 F 
ATOM     17  C   UNL     1       5.722   3.241  12.137  0.00  0.00    +0.000 A 
ATOM     18  C   UNL     1       6.840   3.884  11.614  0.00  0.00    +0.000 A 
ATOM     19  C   UNL     1       7.628   4.711  12.425  0.00  0.00    +0.000 A 
ATOM     20  C   UNL     1       7.259   4.878  13.769  0.00  0.00    +0.000 A 
ATOM     21  N   UNL     1       7.842   5.605  14.771  0.00  0.00    +0.000 NA
ATOM     22  N   UNL     1       7.126   5.436  15.874  0.00  0.00    +0.000 NA
ATOM     23  N   UNL     1       6.090   4.629  15.570  0.00  0.00    +0.000 N 
ATOM     24  C   UNL     1       6.129   4.228  14.259  0.00  0.00    +0.000 A 
ATOM     25  C   UNL     1       5.334   3.390  13.471  0.00  0.00    +0.000 A 
ENDBRANCH  15  23
ENDBRANCH   1  15
TORSDOF 3
ENDMDL
