MODEL 1
REMARK VINA RESULT:      -7.3      0.000      0.000
REMARK  Name = 
REMARK  4 active torsions:
REMARK  status: ('A' for Active; 'I' for Inactive)
REMARK    1  A    between atoms: N_3  and  C_4
REMARK    2  A    between atoms: C_4  and  C_5
REMARK    3  A    between atoms: C_13  and  N_14
REMARK    4  A    between atoms: C_17  and  C_18
REMARK                            x       y       z     vdW  Elec       q    Type
REMARK                         _______ _______ _______ _____ _____    ______ ____
ROOT
ATOM      1  O   UNL     1       7.609   3.872  16.063  0.00  0.00    +0.000 OA
ATOM      2  C   UNL     1       6.600   4.545  15.863  0.00  0.00    +0.000 C 
ATOM      3  N   UNL     1       6.222   4.900  14.599  0.00  0.00    +0.000 N 
ATOM      4  N   UNL     1       5.769   4.994  16.875  0.00  0.00    +0.000 N 
ATOM      5  C   UNL     1       4.436   5.568  16.675  0.00  0.00    +0.000 C 
ATOM      6  C   UNL     1       4.210   6.737  17.629  0.00  0.00    +0.000 C 
ATOM      7  C   UNL     1       4.496   6.375  19.092  0.00  0.00    +0.000 C 
ATOM      8  C   UNL     1       5.846   5.661  19.246  0.00  0.00    +0.000 C 
ATOM      9  C   UNL     1       6.037   4.533  18.237  0.00  0.00    +0.000 C 
ATOM     10  H   UNL     1       5.801   5.812  14.510  0.00  0.00    +0.000 HD
ENDROOT
BRANCH   7  11
ATOM     11  N   UNL     1       3.396   5.641  19.713  0.00  0.00    +0.000 N 
ATOM     12  C   UNL     1       2.121   6.096  19.890  0.00  0.00    +0.000 A 
ATOM     13  C   UNL     1       1.419   5.055  20.455  0.00  0.00    +0.000 A 
ATOM     14  C   UNL     1       2.354   3.996  20.588  0.00  0.00    +0.000 A 
ATOM     15  N   UNL     1       3.565   4.378  20.140  0.00  0.00    +0.000 NA
BRANCH  14  16
ATOM     16  C   UNL     1       2.086   2.618  21.135  0.00  0.00    +0.000 C 
ATOM     17  F   UNL     1       1.787   1.731  20.144  0.00  0.00    +0.000 F 
ATOM     18  F   UNL     1       3.158   2.105  21.795  0.00  0.00    +0.000 F 
ATOM     19  F   UNL     1       1.037   2.593  21.998  0.00  0.00    +0.000 F 
ENDBRANCH  14  16
ENDBRANCH   7  11
BRANCH   3  20
ATOM     20  C   UNL     1       7.057   4.543  13.476  0.00  0.00    +0.000 C 
BRANCH  20  21
ATOM     21  C   UNL     1       6.292   3.635  12.578  0.00  0.00    +0.000 A 
ATOM     22  C   UNL     1       4.907   3.649  12.289  0.00  0.00    +0.000 A 
ATOM     23  C   UNL     1       4.733   2.598  11.427  0.00  0.00    +0.000 A 
ATOM     24  O   UNL     1       5.926   1.998  11.195  0.00  0.00    +0.000 OA
ATOM     25  N   UNL     1       6.915   2.647  11.915  0.00  0.00    +0.000 NA
ENDBRANCH  20  21
ENDBRANCH   3  20
TORSDOF 4
ENDMDL
MODEL 2
REMARK VINA RESULT:      -7.2      5.539      7.408
REMARK  Name = 
REMARK  4 active torsions:
REMARK  status: ('A' for Active; 'I' for Inactive)
REMARK    1  A    between atoms: N_3  and  C_4
REMARK    2  A    between atoms: C_4  and  C_5
REMARK    3  A    between atoms: C_13  and  N_14
REMARK    4  A    between atoms: C_17  and  C_18
REMARK                            x       y       z     vdW  Elec       q    Type
REMARK                         _______ _______ _______ _____ _____    ______ ____
ROOT
ATOM      1  O   UNL     1       2.572   6.013  20.011  0.00  0.00    +0.000 OA
ATOM      2  C   UNL     1       2.687   6.771  19.051  0.00  0.00    +0.000 C 
ATOM      3  N   UNL     1       3.458   6.440  17.973  0.00  0.00    +0.000 N 
ATOM      4  N   UNL     1       2.059   8.003  18.971  0.00  0.00    +0.000 N 
ATOM      5  C   UNL     1       1.957   8.816  17.758  0.00  0.00    +0.000 C 
ATOM      6  C   UNL     1       2.141  10.295  18.088  0.00  0.00    +0.000 C 
ATOM      7  C   UNL     1       1.213  10.771  19.213  0.00  0.00    +0.000 C 
ATOM      8  C   UNL     1       1.252   9.825  20.420  0.00  0.00    +0.000 C 
ATOM      9  C   UNL     1       1.111   8.358  20.026  0.00  0.00    +0.000 C 
ATOM     10  H   UNL     1       3.948   7.205  17.536  0.00  0.00    +0.000 HD
ENDROOT
BRANCH   7  11
ATOM     11  N   UNL     1      -0.146  11.034  18.746  0.00  0.00    +0.000 N 
ATOM     12  C   UNL     1      -0.797  12.233  18.791  0.00  0.00    +0.000 A 
ATOM     13  C   UNL     1      -2.019  12.027  18.190  0.00  0.00    +0.000 A 
ATOM     14  C   UNL     1      -2.027  10.660  17.806  0.00  0.00    +0.000 A 
ATOM     15  N   UNL     1      -0.874  10.064  18.167  0.00  0.00    +0.000 NA
BRANCH  14  16
ATOM     16  C   UNL     1      -3.131   9.931  17.088  0.00  0.00    +0.000 C 
ATOM     17  F   UNL     1      -2.680   9.322  15.955  0.00  0.00    +0.000 F 
ATOM     18  F   UNL     1      -3.686   8.951  17.851  0.00  0.00    +0.000 F 
ATOM     19  F   UNL     1      -4.139  10.756  16.702  0.00  0.00    +0.000 F 
ENDBRANCH  14  16
ENDBRANCH   7  11
BRANCH   3  20
ATOM     20  C   UNL     1       4.212   5.209  17.984  0.00  0.00    +0.000 C 
BRANCH  20  21
ATOM     21  C   UNL     1       5.581   5.489  18.497  0.00  0.00    +0.000 A 
ATOM     22  C   UNL     1       6.623   6.212  17.870  0.00  0.00    +0.000 A 
ATOM     23  C   UNL     1       7.660   6.151  18.763  0.00  0.00    +0.000 A 
ATOM     24  O   UNL     1       7.273   5.457  19.861  0.00  0.00    +0.000 OA
ATOM     25  N   UNL     1       5.963   5.038  19.703  0.00  0.00    +0.000 NA
ENDBRANCH  20  21
ENDBRANCH   3  20
TORSDOF 4
ENDMDL
MODEL 3
REMARK VINA RESULT:      -7.1      0.681      1.081
REMARK  Name = 
REMARK  4 active torsions:
REMARK  status: ('A' for Active; 'I' for Inactive)
REMARK    1  A    between atoms: N_3  and  C_4
REMARK    2  A    between atoms: C_4  and  C_5
REMARK    3  A    between atoms: C_13  and  N_14
REMARK    4  A    between atoms: C_17  and  C_18
REMARK                            x       y       z     vdW  Elec       q    Type
REMARK                         _______ _______ _______ _____ _____    ______ ____
ROOT
ATOM      1  O   UNL     1       7.595   3.884  16.041  0.00  0.00    +0.000 OA
ATOM      2  C   UNL     1       6.603   4.585  15.854  0.00  0.00    +0.000 C 
ATOM      3  N   UNL     1       6.242   4.985  14.599  0.00  0.00    +0.000 N 
ATOM      4  N   UNL     1       5.774   5.022  16.874  0.00  0.00    +0.000 N 
ATOM      5  C   UNL     1       4.456   5.632  16.682  0.00  0.00    +0.000 C 
ATOM      6  C   UNL     1       4.249   6.778  17.668  0.00  0.00    +0.000 C 
ATOM      7  C   UNL     1       4.517   6.366  19.121  0.00  0.00    +0.000 C 
ATOM      8  C   UNL     1       5.849   5.619  19.263  0.00  0.00    +0.000 C 
ATOM      9  C   UNL     1       6.022   4.516  18.223  0.00  0.00    +0.000 C 
ATOM     10  H   UNL     1       5.842   5.908  14.534  0.00  0.00    +0.000 HD
ENDROOT
BRANCH   7  11
ATOM     11  N   UNL     1       3.396   5.640  19.713  0.00  0.00    +0.000 N 
ATOM     12  C   UNL     1       2.118   6.100  19.851  0.00  0.00    +0.000 A 
ATOM     13  C   UNL     1       1.395   5.064  20.400  0.00  0.00    +0.000 A 
ATOM     14  C   UNL     1       2.322   4.002  20.566  0.00  0.00    +0.000 A 
ATOM     15  N   UNL     1       3.548   4.378  20.151  0.00  0.00    +0.000 NA
BRANCH  14  16
ATOM     16  C   UNL     1       2.033   2.629  21.111  0.00  0.00    +0.000 C 
ATOM     17  F   UNL     1       0.948   2.632  21.937  0.00  0.00    +0.000 F 
ATOM     18  F   UNL     1       1.761   1.729  20.129  0.00  0.00    +0.000 F 
ATOM     19  F   UNL     1       3.065   2.126  21.839  0.00  0.00    +0.000 F 
ENDBRANCH  14  16
ENDBRANCH   7  11
BRANCH   3  20
ATOM     20  C   UNL     1       7.077   4.642  13.471  0.00  0.00    +0.000 C 
BRANCH  20  21
ATOM     21  C   UNL     1       6.345   3.674  12.609  0.00  0.00    +0.000 A 
ATOM     22  C   UNL     1       6.874   2.616  11.834  0.00  0.00    +0.000 A 
ATOM     23  C   UNL     1       5.777   2.060  11.231  0.00  0.00    +0.000 A 
ATOM     24  O   UNL     1       4.660   2.720  11.624  0.00  0.00    +0.000 OA
ATOM     25  N   UNL     1       5.009   3.737  12.494  0.00  0.00    +0.000 NA
ENDBRANCH  20  21
ENDBRANCH   3  20
TORSDOF 4
ENDMDL
MODEL 4
REMARK VINA RESULT:      -7.0      4.126      7.939
REMARK  Name = 
REMARK  4 active torsions:
REMARK  status: ('A' for Active; 'I' for Inactive)
REMARK    1  A    between atoms: N_3  and  C_4
REMARK    2  A    between atoms: C_4  and  C_5
REMARK    3  A    between atoms: C_13  and  N_14
REMARK    4  A    between atoms: C_17  and  C_18
REMARK                            x       y       z     vdW  Elec       q    Type
REMARK                         _______ _______ _______ _____ _____    ______ ____
ROOT
ATOM      1  O   UNL     1       3.508   7.314  18.073  0.00  0.00    +0.000 OA
ATOM      2  C   UNL     1       3.760   6.121  17.924  0.00  0.00    +0.000 C 
ATOM      3  N   UNL     1       3.139   5.164  18.677  0.00  0.00    +0.000 N 
ATOM      4  N   UNL     1       4.673   5.643  16.999  0.00  0.00    +0.000 N 
ATOM      5  C   UNL     1       4.816   4.238  16.609  0.00  0.00    +0.000 C 
ATOM      6  C   UNL     1       6.289   3.879  16.432  0.00  0.00    +0.000 C 
ATOM      7  C   UNL     1       7.026   4.844  15.494  0.00  0.00    +0.000 C 
ATOM      8  C   UNL     1       6.752   6.309  15.857  0.00  0.00    +0.000 C 
ATOM      9  C   UNL     1       5.269   6.599  16.067  0.00  0.00    +0.000 C 
ATOM     10  H   UNL     1       3.706   4.368  18.924  0.00  0.00    +0.000 HD
ENDROOT
BRANCH   7  11
ATOM     11  N   UNL     1       6.776   4.555  14.084  0.00  0.00    +0.000 N 
ATOM     12  C   UNL     1       7.632   4.793  13.048  0.00  0.00    +0.000 A 
ATOM     13  C   UNL     1       7.009   4.309  11.919  0.00  0.00    +0.000 A 
ATOM     14  C   UNL     1       5.765   3.790  12.366  0.00  0.00    +0.000 A 
ATOM     15  N   UNL     1       5.635   3.961  13.696  0.00  0.00    +0.000 NA
BRANCH  14  16
ATOM     16  C   UNL     1       4.711   3.123  11.523  0.00  0.00    +0.000 C 
ATOM     17  F   UNL     1       3.552   2.938  12.217  0.00  0.00    +0.000 F 
ATOM     18  F   UNL     1       4.384   3.857  10.426  0.00  0.00    +0.000 F 
ATOM     19  F   UNL     1       5.091   1.895  11.082  0.00  0.00    +0.000 F 
ENDBRANCH  14  16
ENDBRANCH   7  11
BRANCH   3  20
ATOM     20  C   UNL     1       2.221   5.559  19.719  0.00  0.00    +0.000 C 
BRANCH  20  21
ATOM     21  C   UNL     1       1.790   4.345  20.465  0.00  0.00    +0.000 A 
ATOM     22  C   UNL     1       2.325   3.815  21.663  0.00  0.00    +0.000 A 
ATOM     23  C   UNL     1       1.576   2.692  21.897  0.00  0.00    +0.000 A 
ATOM     24  O   UNL     1       0.643   2.557  20.923  0.00  0.00    +0.000 OA
ATOM     25  N   UNL     1       0.769   3.596  20.017  0.00  0.00    +0.000 NA
ENDBRANCH  20  21
ENDBRANCH   3  20
TORSDOF 4
ENDMDL
MODEL 5
REMARK VINA RESULT:      -7.0      5.810      7.671
REMARK  Name = 
REMARK  4 active torsions:
REMARK  status: ('A' for Active; 'I' for Inactive)
REMARK    1  A    between atoms: N_3  and  C_4
REMARK    2  A    between atoms: C_4  and  C_5
REMARK    3  A    between atoms: C_13  and  N_14
REMARK    4  A    between atoms: C_17  and  C_18
REMARK                            x       y       z     vdW  Elec       q    Type
REMARK                         _______ _______ _______ _____ _____    ______ ____
ROOT
ATOM      1  O   UNL     1       2.393   6.077  20.472  0.00  0.00    +0.000 OA
ATOM      2  C   UNL     1       2.471   6.767  19.458  0.00  0.00    +0.000 C 
ATOM      3  N   UNL     1       3.196   6.359  18.375  0.00  0.00    +0.000 N 
ATOM      4  N   UNL     1       1.843   7.994  19.320  0.00  0.00    +0.000 N 
ATOM      5  C   UNL     1       1.693   8.724  18.059  0.00  0.00    +0.000 C 
ATOM      6  C   UNL     1       1.895  10.220  18.279  0.00  0.00    +0.000 C 
ATOM      7  C   UNL     1       1.015  10.777  19.406  0.00  0.00    +0.000 C 
ATOM      8  C   UNL     1       1.101   9.915  20.672  0.00  0.00    +0.000 C 
ATOM      9  C   UNL     1       0.940   8.425  20.385  0.00  0.00    +0.000 C 
ATOM     10  H   UNL     1       3.669   7.090  17.867  0.00  0.00    +0.000 HD
ENDROOT
BRANCH   7  11
ATOM     11  N   UNL     1      -0.361  11.015  18.977  0.00  0.00    +0.000 N 
ATOM     12  C   UNL     1      -1.285  11.788  19.619  0.00  0.00    +0.000 A 
ATOM     13  C   UNL     1      -2.412  11.772  18.829  0.00  0.00    +0.000 A 
ATOM     14  C   UNL     1      -2.083  10.956  17.715  0.00  0.00    +0.000 A 
ATOM     15  N   UNL     1      -0.824  10.490  17.829  0.00  0.00    +0.000 NA
BRANCH  14  16
ATOM     16  C   UNL     1      -2.968  10.632  16.540  0.00  0.00    +0.000 C 
ATOM     17  F   UNL     1      -4.100  11.391  16.537  0.00  0.00    +0.000 F 
ATOM     18  F   UNL     1      -2.352  10.863  15.349  0.00  0.00    +0.000 F 
ATOM     19  F   UNL     1      -3.376   9.336  16.533  0.00  0.00    +0.000 F 
ENDBRANCH  14  16
ENDBRANCH   7  11
BRANCH   3  20
ATOM     20  C   UNL     1       3.947   5.127  18.440  0.00  0.00    +0.000 C 
BRANCH  20  21
ATOM     21  C   UNL     1       5.391   5.453  18.591  0.00  0.00    +0.000 A 
ATOM     22  C   UNL     1       6.196   6.277  17.770  0.00  0.00    +0.000 A 
ATOM     23  C   UNL     1       7.437   6.217  18.347  0.00  0.00    +0.000 A 
ATOM     24  O   UNL     1       7.388   5.430  19.449  0.00  0.00    +0.000 OA
ATOM     25  N   UNL     1       6.102   4.945  19.612  0.00  0.00    +0.000 NA
ENDBRANCH  20  21
ENDBRANCH   3  20
TORSDOF 4
ENDMDL
MODEL 6
REMARK VINA RESULT:      -6.9      5.592      7.272
REMARK  Name = 
REMARK  4 active torsions:
REMARK  status: ('A' for Active; 'I' for Inactive)
REMARK    1  A    between atoms: N_3  and  C_4
REMARK    2  A    between atoms: C_4  and  C_5
REMARK    3  A    between atoms: C_13  and  N_14
REMARK    4  A    between atoms: C_17  and  C_18
REMARK                            x       y       z     vdW  Elec       q    Type
REMARK                         _______ _______ _______ _____ _____    ______ ____
ROOT
ATOM      1  O   UNL     1       2.785   6.183  19.804  0.00  0.00    +0.000 OA
ATOM      2  C   UNL     1       2.737   6.988  18.877  0.00  0.00    +0.000 C 
ATOM      3  N   UNL     1       3.400   6.760  17.704  0.00  0.00    +0.000 N 
ATOM      4  N   UNL     1       2.023   8.173  18.930  0.00  0.00    +0.000 N 
ATOM      5  C   UNL     1       1.726   9.028  17.778  0.00  0.00    +0.000 C 
ATOM      6  C   UNL     1       1.846  10.500  18.161  0.00  0.00    +0.000 C 
ATOM      7  C   UNL     1       1.024  10.859  19.405  0.00  0.00    +0.000 C 
ATOM      8  C   UNL     1       1.265   9.867  20.551  0.00  0.00    +0.000 C 
ATOM      9  C   UNL     1       1.180   8.412  20.101  0.00  0.00    +0.000 C 
ATOM     10  H   UNL     1       3.783   7.577  17.255  0.00  0.00    +0.000 HD
ENDROOT
BRANCH   7  11
ATOM     11  N   UNL     1      -0.394  11.042  19.106  0.00  0.00    +0.000 N 
ATOM     12  C   UNL     1      -1.200  12.033  19.587  0.00  0.00    +0.000 A 
ATOM     13  C   UNL     1      -2.429  11.848  18.996  0.00  0.00    +0.000 A 
ATOM     14  C   UNL     1      -2.280  10.709  18.161  0.00  0.00    +0.000 A 
ATOM     15  N   UNL     1      -1.028  10.220  18.252  0.00  0.00    +0.000 NA
BRANCH  14  16
ATOM     16  C   UNL     1      -3.331  10.098  17.273  0.00  0.00    +0.000 C 
ATOM     17  F   UNL     1      -4.220  11.030  16.827  0.00  0.00    +0.000 F 
ATOM     18  F   UNL     1      -2.799   9.518  16.164  0.00  0.00    +0.000 F 
ATOM     19  F   UNL     1      -4.064   9.145  17.908  0.00  0.00    +0.000 F 
ENDBRANCH  14  16
ENDBRANCH   7  11
BRANCH   3  20
ATOM     20  C   UNL     1       4.232   5.588  17.568  0.00  0.00    +0.000 C 
BRANCH  20  21
ATOM     21  C   UNL     1       5.659   6.013  17.547  0.00  0.00    +0.000 A 
ATOM     22  C   UNL     1       6.623   5.901  18.576  0.00  0.00    +0.000 A 
ATOM     23  C   UNL     1       7.754   6.456  18.039  0.00  0.00    +0.000 A 
ATOM     24  O   UNL     1       7.503   6.860  16.770  0.00  0.00    +0.000 OA
ATOM     25  N   UNL     1       6.185   6.582  16.451  0.00  0.00    +0.000 NA
ENDBRANCH  20  21
ENDBRANCH   3  20
TORSDOF 4
ENDMDL
MODEL 7
REMARK VINA RESULT:      -6.8      5.290      6.980
REMARK  Name = 
REMARK  4 active torsions:
REMARK  status: ('A' for Active; 'I' for Inactive)
REMARK    1  A    between atoms: N_3  and  C_4
REMARK    2  A    between atoms: C_4  and  C_5
REMARK    3  A    between atoms: C_13  and  N_14
REMARK    4  A    between atoms: C_17  and  C_18
REMARK                            x       y       z     vdW  Elec       q    Type
REMARK                         _______ _______ _______ _____ _____    ______ ____
ROOT
ATOM      1  O   UNL     1       2.775   5.338  20.345  0.00  0.00    +0.000 OA
ATOM      2  C   UNL     1       2.742   5.965  19.288  0.00  0.00    +0.000 C 
ATOM      3  N   UNL     1       3.275   5.448  18.141  0.00  0.00    +0.000 N 
ATOM      4  N   UNL     1       2.174   7.221  19.162  0.00  0.00    +0.000 N 
ATOM      5  C   UNL     1       1.883   7.887  17.890  0.00  0.00    +0.000 C 
ATOM      6  C   UNL     1       2.202   9.377  17.982  0.00  0.00    +0.000 C 
ATOM      7  C   UNL     1       1.532  10.054  19.185  0.00  0.00    +0.000 C 
ATOM      8  C   UNL     1       1.753   9.260  20.479  0.00  0.00    +0.000 C 
ATOM      9  C   UNL     1       1.465   7.771  20.316  0.00  0.00    +0.000 C 
ATOM     10  H   UNL     1       3.711   6.116  17.524  0.00  0.00    +0.000 HD
ENDROOT
BRANCH   7  11
ATOM     11  N   UNL     1       0.124  10.360  18.943  0.00  0.00    +0.000 N 
ATOM     12  C   UNL     1      -0.677  11.144  19.721  0.00  0.00    +0.000 A 
ATOM     13  C   UNL     1      -1.896  11.200  19.082  0.00  0.00    +0.000 A 
ATOM     14  C   UNL     1      -1.745  10.412  17.911  0.00  0.00    +0.000 A 
ATOM     15  N   UNL     1      -0.503   9.894  17.849  0.00  0.00    +0.000 NA
BRANCH  14  16
ATOM     16  C   UNL     1      -2.785  10.164  16.850  0.00  0.00    +0.000 C 
ATOM     17  F   UNL     1      -3.296  11.330  16.362  0.00  0.00    +0.000 F 
ATOM     18  F   UNL     1      -2.282   9.491  15.780  0.00  0.00    +0.000 F 
ATOM     19  F   UNL     1      -3.843   9.447  17.311  0.00  0.00    +0.000 F 
ENDBRANCH  14  16
ENDBRANCH   7  11
BRANCH   3  20
ATOM     20  C   UNL     1       3.954   4.175  18.177  0.00  0.00    +0.000 C 
BRANCH  20  21
ATOM     21  C   UNL     1       5.421   4.409  18.080  0.00  0.00    +0.000 A 
ATOM     22  C   UNL     1       6.221   4.494  16.917  0.00  0.00    +0.000 A 
ATOM     23  C   UNL     1       7.488   4.701  17.396  0.00  0.00    +0.000 A 
ATOM     24  O   UNL     1       7.459   4.756  18.750  0.00  0.00    +0.000 OA
ATOM     25  N   UNL     1       6.159   4.575  19.190  0.00  0.00    +0.000 NA
ENDBRANCH  20  21
ENDBRANCH   3  20
TORSDOF 4
ENDMDL
MODEL 8
REMARK VINA RESULT:      -6.8      6.562      8.548
REMARK  Name = 
REMARK  4 active torsions:
REMARK  status: ('A' for Active; 'I' for Inactive)
REMARK    1  A    between atoms: N_3  and  C_4
REMARK    2  A    between atoms: C_4  and  C_5
REMARK    3  A    between atoms: C_13  and  N_14
REMARK    4  A    between atoms: C_17  and  C_18
REMARK                            x       y       z     vdW  Elec       q    Type
REMARK                         _______ _______ _______ _____ _____    ______ ____
ROOT
ATOM      1  O   UNL     1       3.031   6.868  17.907  0.00  0.00    +0.000 OA
ATOM      2  C   UNL     1       2.520   7.135  18.992  0.00  0.00    +0.000 C 
ATOM      3  N   UNL     1       2.640   6.293  20.061  0.00  0.00    +0.000 N 
ATOM      4  N   UNL     1       1.793   8.290  19.230  0.00  0.00    +0.000 N 
ATOM      5  C   UNL     1       1.392   8.772  20.553  0.00  0.00    +0.000 C 
ATOM      6  C   UNL     1      -0.021   9.347  20.507  0.00  0.00    +0.000 C 
ATOM      7  C   UNL     1      -0.198  10.398  19.403  0.00  0.00    +0.000 C 
ATOM      8  C   UNL     1       0.349   9.905  18.057  0.00  0.00    +0.000 C 
ATOM      9  C   UNL     1       1.744   9.298  18.172  0.00  0.00    +0.000 C 
ATOM     10  H   UNL     1       1.837   6.242  20.668  0.00  0.00    +0.000 HD
ENDROOT
BRANCH   7  11
ATOM     11  N   UNL     1       0.332  11.705  19.785  0.00  0.00    +0.000 N 
ATOM     12  C   UNL     1       0.422  12.201  21.053  0.00  0.00    +0.000 A 
ATOM     13  C   UNL     1       1.035  13.429  20.941  0.00  0.00    +0.000 A 
ATOM     14  C   UNL     1       1.286  13.602  19.554  0.00  0.00    +0.000 A 
ATOM     15  N   UNL     1       0.836  12.539  18.859  0.00  0.00    +0.000 NA
BRANCH  14  16
ATOM     16  C   UNL     1       1.962  14.777  18.900  0.00  0.00    +0.000 C 
ATOM     17  F   UNL     1       1.062  15.717  18.495  0.00  0.00    +0.000 F 
ATOM     18  F   UNL     1       2.824  15.412  19.739  0.00  0.00    +0.000 F 
ATOM     19  F   UNL     1       2.669  14.425  17.794  0.00  0.00    +0.000 F 
ENDBRANCH  14  16
ENDBRANCH   7  11
BRANCH   3  20
ATOM     20  C   UNL     1       3.318   5.028  19.902  0.00  0.00    +0.000 C 
BRANCH  20  21
ATOM     21  C   UNL     1       2.349   4.026  19.380  0.00  0.00    +0.000 A 
ATOM     22  C   UNL     1       1.186   3.520  20.007  0.00  0.00    +0.000 A 
ATOM     23  C   UNL     1       0.681   2.623  19.104  0.00  0.00    +0.000 A 
ATOM     24  O   UNL     1       1.467   2.596  18.001  0.00  0.00    +0.000 OA
ATOM     25  N   UNL     1       2.520   3.480  18.165  0.00  0.00    +0.000 NA
ENDBRANCH  20  21
ENDBRANCH   3  20
TORSDOF 4
ENDMDL
MODEL 9
REMARK VINA RESULT:      -6.8      5.382      6.831
REMARK  Name = 
REMARK  4 active torsions:
REMARK  status: ('A' for Active; 'I' for Inactive)
REMARK    1  A    between atoms: N_3  and  C_4
REMARK    2  A    between atoms: C_4  and  C_5
REMARK    3  A    between atoms: C_13  and  N_14
REMARK    4  A    between atoms: C_17  and  C_18
REMARK                            x       y       z     vdW  Elec       q    Type
REMARK                         _______ _______ _______ _____ _____    ______ ____
ROOT
ATOM      1  O   UNL     1       2.910   5.799  20.005  0.00  0.00    +0.000 OA
ATOM      2  C   UNL     1       2.873   6.524  19.014  0.00  0.00    +0.000 C 
ATOM      3  N   UNL     1       3.508   6.176  17.855  0.00  0.00    +0.000 N 
ATOM      4  N   UNL     1       2.198   7.733  18.976  0.00  0.00    +0.000 N 
ATOM      5  C   UNL     1       1.911   8.498  17.761  0.00  0.00    +0.000 C 
ATOM      6  C   UNL     1       2.086   9.992  18.015  0.00  0.00    +0.000 C 
ATOM      7  C   UNL     1       1.296  10.482  19.236  0.00  0.00    +0.000 C 
ATOM      8  C   UNL     1       1.524   9.582  20.458  0.00  0.00    +0.000 C 
ATOM      9  C   UNL     1       1.383   8.098  20.134  0.00  0.00    +0.000 C 
ATOM     10  H   UNL     1       3.911   6.939  17.333  0.00  0.00    +0.000 HD
ENDROOT
BRANCH   7  11
ATOM     11  N   UNL     1      -0.120  10.687  18.942  0.00  0.00    +0.000 N 
ATOM     12  C   UNL     1      -0.971  11.521  19.608  0.00  0.00    +0.000 A 
ATOM     13  C   UNL     1      -2.179  11.439  18.953  0.00  0.00    +0.000 A 
ATOM     14  C   UNL     1      -1.971  10.522  17.889  0.00  0.00    +0.000 A 
ATOM     15  N   UNL     1      -0.705  10.061  17.906  0.00  0.00    +0.000 NA
BRANCH  14  16
ATOM     16  C   UNL     1      -2.978  10.097  16.854  0.00  0.00    +0.000 C 
ATOM     17  F   UNL     1      -3.897   9.231  17.369  0.00  0.00    +0.000 F 
ATOM     18  F   UNL     1      -3.683  11.148  16.355  0.00  0.00    +0.000 F 
ATOM     19  F   UNL     1      -2.407   9.462  15.796  0.00  0.00    +0.000 F 
ENDBRANCH  14  16
ENDBRANCH   7  11
BRANCH   3  20
ATOM     20  C   UNL     1       4.300   4.970  17.808  0.00  0.00    +0.000 C 
BRANCH  20  21
ATOM     21  C   UNL     1       5.426   5.171  16.855  0.00  0.00    +0.000 A 
ATOM     22  C   UNL     1       5.654   4.527  15.616  0.00  0.00    +0.000 A 
ATOM     23  C   UNL     1       6.829   5.069  15.167  0.00  0.00    +0.000 A 
ATOM     24  O   UNL     1       7.276   5.988  16.058  0.00  0.00    +0.000 OA
ATOM     25  N   UNL     1       6.396   6.060  17.124  0.00  0.00    +0.000 NA
ENDBRANCH  20  21
ENDBRANCH   3  20
TORSDOF 4
ENDMDL
