MODEL 1
REMARK VINA RESULT:      -6.5      0.000      0.000
REMARK  Name = 
REMARK  11 active torsions:
REMARK  status: ('A' for Active; 'I' for Inactive)
REMARK    1  A    between atoms: C_1  and  O_2
REMARK    2  A    between atoms: O_2  and  C_3
REMARK    3  A    between atoms: C_6  and  C_7
REMARK    4  A    between atoms: C_7  and  C_8
REMARK    5  A    between atoms: C_8  and  N_9
REMARK    6  A    between atoms: C_10  and  C_12
REMARK    7  A    between atoms: C_12  and  C_13
REMARK    8  A    between atoms: C_12  and  C_14
REMARK    9  A    between atoms: C_12  and  C_15
REMARK   10  A    between atoms: C_17  and  O_18
REMARK   11  A    between atoms: O_18  and  C_19
REMARK                            x       y       z     vdW  Elec       q    Type
REMARK                         _______ _______ _______ _____ _____    ______ ____
ROOT
ATOM      1  C   UNL     1       1.419   4.164  20.173  0.00  0.00    +0.000 A 
ATOM      2  C   UNL     1       1.815   5.385  20.745  0.00  0.00    +0.000 A 
ATOM      3  C   UNL     1       2.217   6.461  19.945  0.00  0.00    +0.000 A 
ATOM      4  C   UNL     1       2.256   6.334  18.555  0.00  0.00    +0.000 A 
ATOM      5  C   UNL     1       1.961   5.080  18.006  0.00  0.00    +0.000 A 
ATOM      6  C   UNL     1       1.534   3.998  18.788  0.00  0.00    +0.000 A 
ENDROOT
BRANCH   1   8
ATOM      7  C   UNL     1       1.926   2.547  21.819  0.00  0.00    +0.000 C 
ATOM      8  O   UNL     1       0.965   3.131  20.943  0.00  0.00    +0.000 OA
ENDBRANCH   1   8
BRANCH   6   9
ATOM      9  O   UNL     1       1.261   2.904  18.013  0.00  0.00    +0.000 OA
ATOM     10  C   UNL     1       2.200   1.847  17.948  0.00  0.00    +0.000 C 
ENDBRANCH   6   9
BRANCH   4  11
ATOM     11  C   UNL     1       2.638   7.517  17.693  0.00  0.00    +0.000 C 
BRANCH  11  12
ATOM     12  C   UNL     1       4.151   7.666  17.477  0.00  0.00    +0.000 C 
BRANCH  12  13
ATOM     13  N   UNL     1       4.823   6.400  17.283  0.00  0.00    +0.000 N 
ATOM     14  C   UNL     1       5.381   6.051  16.073  0.00  0.00    +0.000 C 
ATOM     15  O   UNL     1       5.396   6.819  15.115  0.00  0.00    +0.000 OA
ATOM     16  H   UNL     1       4.841   5.749  18.056  0.00  0.00    +0.000 HD
BRANCH  14  17
ATOM     17  C   UNL     1       5.978   4.633  16.020  0.00  0.00    +0.000 C 
ATOM     18  C   UNL     1       6.356   4.271  14.576  0.00  0.00    +0.000 C 
ATOM     19  C   UNL     1       7.246   4.587  16.888  0.00  0.00    +0.000 C 
ATOM     20  C   UNL     1       4.959   3.624  16.568  0.00  0.00    +0.000 C 
ENDBRANCH  14  17
ENDBRANCH  12  13
ENDBRANCH  11  12
ENDBRANCH   4  11
TORSDOF 6
ENDMDL
MODEL 2
REMARK VINA RESULT:      -6.4      1.896      6.154
REMARK  Name = 
REMARK  11 active torsions:
REMARK  status: ('A' for Active; 'I' for Inactive)
REMARK    1  A    between atoms: C_1  and  O_2
REMARK    2  A    between atoms: O_2  and  C_3
REMARK    3  A    between atoms: C_6  and  C_7
REMARK    4  A    between atoms: C_7  and  C_8
REMARK    5  A    between atoms: C_8  and  N_9
REMARK    6  A    between atoms: C_10  and  C_12
REMARK    7  A    between atoms: C_12  and  C_13
REMARK    8  A    between atoms: C_12  and  C_14
REMARK    9  A    between atoms: C_12  and  C_15
REMARK   10  A    between atoms: C_17  and  O_18
REMARK   11  A    between atoms: O_18  and  C_19
REMARK                            x       y       z     vdW  Elec       q    Type
REMARK                         _______ _______ _______ _____ _____    ______ ____
ROOT
ATOM      1  C   UNL     1       6.428   5.155  15.988  0.00  0.00    +0.000 A 
ATOM      2  C   UNL     1       5.194   4.496  16.122  0.00  0.00    +0.000 A 
ATOM      3  C   UNL     1       4.129   5.086  16.814  0.00  0.00    +0.000 A 
ATOM      4  C   UNL     1       4.281   6.341  17.408  0.00  0.00    +0.000 A 
ATOM      5  C   UNL     1       5.547   6.938  17.356  0.00  0.00    +0.000 A 
ATOM      6  C   UNL     1       6.617   6.374  16.648  0.00  0.00    +0.000 A 
ENDROOT
BRANCH   1   8
ATOM      7  C   UNL     1       7.359   4.785  13.848  0.00  0.00    +0.000 C 
ATOM      8  O   UNL     1       7.449   4.614  15.261  0.00  0.00    +0.000 OA
ENDBRANCH   1   8
BRANCH   6   9
ATOM      9  O   UNL     1       7.726   7.173  16.709  0.00  0.00    +0.000 OA
ATOM     10  C   UNL     1       7.783   8.213  17.668  0.00  0.00    +0.000 C 
ENDBRANCH   6   9
BRANCH   4  11
ATOM     11  C   UNL     1       3.112   6.999  18.106  0.00  0.00    +0.000 C 
BRANCH  11  12
ATOM     12  C   UNL     1       2.919   6.544  19.559  0.00  0.00    +0.000 C 
BRANCH  12  13
ATOM     13  N   UNL     1       2.955   5.105  19.711  0.00  0.00    +0.000 N 
ATOM     14  C   UNL     1       1.882   4.400  20.210  0.00  0.00    +0.000 C 
ATOM     15  O   UNL     1       0.817   4.943  20.492  0.00  0.00    +0.000 OA
ATOM     16  H   UNL     1       3.811   4.624  19.476  0.00  0.00    +0.000 HD
BRANCH  14  17
ATOM     17  C   UNL     1       2.124   2.890  20.386  0.00  0.00    +0.000 C 
ATOM     18  C   UNL     1       1.406   2.106  19.276  0.00  0.00    +0.000 C 
ATOM     19  C   UNL     1       3.633   2.608  20.293  0.00  0.00    +0.000 C 
ATOM     20  C   UNL     1       1.614   2.442  21.763  0.00  0.00    +0.000 C 
ENDBRANCH  14  17
ENDBRANCH  12  13
ENDBRANCH  11  12
ENDBRANCH   4  11
TORSDOF 6
ENDMDL
MODEL 3
REMARK VINA RESULT:      -6.4      1.203      1.786
REMARK  Name = 
REMARK  11 active torsions:
REMARK  status: ('A' for Active; 'I' for Inactive)
REMARK    1  A    between atoms: C_1  and  O_2
REMARK    2  A    between atoms: O_2  and  C_3
REMARK    3  A    between atoms: C_6  and  C_7
REMARK    4  A    between atoms: C_7  and  C_8
REMARK    5  A    between atoms: C_8  and  N_9
REMARK    6  A    between atoms: C_10  and  C_12
REMARK    7  A    between atoms: C_12  and  C_13
REMARK    8  A    between atoms: C_12  and  C_14
REMARK    9  A    between atoms: C_12  and  C_15
REMARK   10  A    between atoms: C_17  and  O_18
REMARK   11  A    between atoms: O_18  and  C_19
REMARK                            x       y       z     vdW  Elec       q    Type
REMARK                         _______ _______ _______ _____ _____    ______ ____
ROOT
ATOM      1  C   UNL     1       1.457   4.161  20.117  0.00  0.00    +0.000 A 
ATOM      2  C   UNL     1       1.760   5.359  20.787  0.00  0.00    +0.000 A 
ATOM      3  C   UNL     1       2.147   6.504  20.081  0.00  0.00    +0.000 A 
ATOM      4  C   UNL     1       2.263   6.473  18.690  0.00  0.00    +0.000 A 
ATOM      5  C   UNL     1       2.061   5.246  18.046  0.00  0.00    +0.000 A 
ATOM      6  C   UNL     1       1.650   4.095  18.733  0.00  0.00    +0.000 A 
ENDROOT
BRANCH   1   8
ATOM      7  C   UNL     1       1.948   2.486  21.709  0.00  0.00    +0.000 C 
ATOM      8  O   UNL     1       1.018   3.059  20.792  0.00  0.00    +0.000 OA
ENDBRANCH   1   8
BRANCH   6   9
ATOM      9  O   UNL     1       1.473   3.043  17.874  0.00  0.00    +0.000 OA
ATOM     10  C   UNL     1       2.516   2.101  17.706  0.00  0.00    +0.000 C 
ENDBRANCH   6   9
BRANCH   4  11
ATOM     11  C   UNL     1       2.627   7.728  17.928  0.00  0.00    +0.000 C 
BRANCH  11  12
ATOM     12  C   UNL     1       3.736   7.523  16.886  0.00  0.00    +0.000 C 
BRANCH  12  13
ATOM     13  N   UNL     1       5.008   7.169  17.477  0.00  0.00    +0.000 N 
ATOM     14  C   UNL     1       5.613   5.956  17.228  0.00  0.00    +0.000 C 
ATOM     15  O   UNL     1       5.138   5.138  16.445  0.00  0.00    +0.000 OA
ATOM     16  H   UNL     1       5.434   7.825  18.116  0.00  0.00    +0.000 HD
BRANCH  14  17
ATOM     17  C   UNL     1       6.918   5.712  18.006  0.00  0.00    +0.000 C 
ATOM     18  C   UNL     1       6.605   5.352  19.467  0.00  0.00    +0.000 C 
ATOM     19  C   UNL     1       7.678   4.541  17.361  0.00  0.00    +0.000 C 
ATOM     20  C   UNL     1       7.796   6.971  17.950  0.00  0.00    +0.000 C 
ENDBRANCH  14  17
ENDBRANCH  12  13
ENDBRANCH  11  12
ENDBRANCH   4  11
TORSDOF 6
ENDMDL
MODEL 4
REMARK VINA RESULT:      -6.2      1.918      6.009
REMARK  Name = 
REMARK  11 active torsions:
REMARK  status: ('A' for Active; 'I' for Inactive)
REMARK    1  A    between atoms: C_1  and  O_2
REMARK    2  A    between atoms: O_2  and  C_3
REMARK    3  A    between atoms: C_6  and  C_7
REMARK    4  A    between atoms: C_7  and  C_8
REMARK    5  A    between atoms: C_8  and  N_9
REMARK    6  A    between atoms: C_10  and  C_12
REMARK    7  A    between atoms: C_12  and  C_13
REMARK    8  A    between atoms: C_12  and  C_14
REMARK    9  A    between atoms: C_12  and  C_15
REMARK   10  A    between atoms: C_17  and  O_18
REMARK   11  A    between atoms: O_18  and  C_19
REMARK                            x       y       z     vdW  Elec       q    Type
REMARK                         _______ _______ _______ _____ _____    ______ ____
ROOT
ATOM      1  C   UNL     1       6.375   5.189  16.037  0.00  0.00    +0.000 A 
ATOM      2  C   UNL     1       5.170   4.483  16.198  0.00  0.00    +0.000 A 
ATOM      3  C   UNL     1       4.083   5.054  16.871  0.00  0.00    +0.000 A 
ATOM      4  C   UNL     1       4.182   6.335  17.418  0.00  0.00    +0.000 A 
ATOM      5  C   UNL     1       5.421   6.982  17.342  0.00  0.00    +0.000 A 
ATOM      6  C   UNL     1       6.513   6.438  16.653  0.00  0.00    +0.000 A 
ENDROOT
BRANCH   1   8
ATOM      7  C   UNL     1       7.299   4.742  13.910  0.00  0.00    +0.000 C 
ATOM      8  O   UNL     1       7.418   4.665  15.328  0.00  0.00    +0.000 OA
ENDBRANCH   1   8
BRANCH   6   9
ATOM      9  O   UNL     1       7.589   7.285  16.681  0.00  0.00    +0.000 OA
ATOM     10  C   UNL     1       7.921   7.945  17.888  0.00  0.00    +0.000 C 
ENDBRANCH   6   9
BRANCH   4  11
ATOM     11  C   UNL     1       2.986   6.968  18.094  0.00  0.00    +0.000 C 
BRANCH  11  12
ATOM     12  C   UNL     1       2.839   6.593  19.576  0.00  0.00    +0.000 C 
BRANCH  12  13
ATOM     13  N   UNL     1       3.112   5.196  19.836  0.00  0.00    +0.000 N 
ATOM     14  C   UNL     1       2.106   4.256  19.882  0.00  0.00    +0.000 C 
ATOM     15  O   UNL     1       0.935   4.539  19.642  0.00  0.00    +0.000 OA
ATOM     16  H   UNL     1       4.067   4.925  20.024  0.00  0.00    +0.000 HD
BRANCH  14  17
ATOM     17  C   UNL     1       2.564   2.835  20.256  0.00  0.00    +0.000 C 
ATOM     18  C   UNL     1       4.071   2.680  20.002  0.00  0.00    +0.000 C 
ATOM     19  C   UNL     1       2.288   2.593  21.749  0.00  0.00    +0.000 C 
ATOM     20  C   UNL     1       1.781   1.805  19.429  0.00  0.00    +0.000 C 
ENDBRANCH  14  17
ENDBRANCH  12  13
ENDBRANCH  11  12
ENDBRANCH   4  11
TORSDOF 6
ENDMDL
MODEL 5
REMARK VINA RESULT:      -6.2      2.168      6.637
REMARK  Name = 
REMARK  11 active torsions:
REMARK  status: ('A' for Active; 'I' for Inactive)
REMARK    1  A    between atoms: C_1  and  O_2
REMARK    2  A    between atoms: O_2  and  C_3
REMARK    3  A    between atoms: C_6  and  C_7
REMARK    4  A    between atoms: C_7  and  C_8
REMARK    5  A    between atoms: C_8  and  N_9
REMARK    6  A    between atoms: C_10  and  C_12
REMARK    7  A    between atoms: C_12  and  C_13
REMARK    8  A    between atoms: C_12  and  C_14
REMARK    9  A    between atoms: C_12  and  C_15
REMARK   10  A    between atoms: C_17  and  O_18
REMARK   11  A    between atoms: O_18  and  C_19
REMARK                            x       y       z     vdW  Elec       q    Type
REMARK                         _______ _______ _______ _____ _____    ______ ____
ROOT
ATOM      1  C   UNL     1       6.196   4.025  14.174  0.00  0.00    +0.000 A 
ATOM      2  C   UNL     1       5.101   3.627  14.961  0.00  0.00    +0.000 A 
ATOM      3  C   UNL     1       4.809   4.270  16.171  0.00  0.00    +0.000 A 
ATOM      4  C   UNL     1       5.618   5.311  16.632  0.00  0.00    +0.000 A 
ATOM      5  C   UNL     1       6.763   5.625  15.891  0.00  0.00    +0.000 A 
ATOM      6  C   UNL     1       7.059   5.009  14.667  0.00  0.00    +0.000 A 
ENDROOT
BRANCH   1   8
ATOM      7  C   UNL     1       5.320   3.279  12.111  0.00  0.00    +0.000 C 
ATOM      8  O   UNL     1       6.450   3.445  12.964  0.00  0.00    +0.000 OA
ENDBRANCH   1   8
BRANCH   6   9
ATOM      9  O   UNL     1       8.202   5.525  14.117  0.00  0.00    +0.000 OA
ATOM     10  C   UNL     1       8.250   5.780  12.725  0.00  0.00    +0.000 C 
ENDBRANCH   6   9
BRANCH   4  11
ATOM     11  C   UNL     1       5.265   6.038  17.910  0.00  0.00    +0.000 C 
BRANCH  11  12
ATOM     12  C   UNL     1       5.288   5.147  19.160  0.00  0.00    +0.000 C 
BRANCH  12  13
ATOM     13  N   UNL     1       3.970   4.901  19.703  0.00  0.00    +0.000 N 
ATOM     14  C   UNL     1       3.405   3.644  19.700  0.00  0.00    +0.000 C 
ATOM     15  O   UNL     1       4.012   2.656  19.296  0.00  0.00    +0.000 OA
ATOM     16  H   UNL     1       3.447   5.690  20.057  0.00  0.00    +0.000 HD
BRANCH  14  17
ATOM     17  C   UNL     1       1.964   3.580  20.237  0.00  0.00    +0.000 C 
ATOM     18  C   UNL     1       1.918   2.758  21.535  0.00  0.00    +0.000 C 
ATOM     19  C   UNL     1       1.475   5.006  20.539  0.00  0.00    +0.000 C 
ATOM     20  C   UNL     1       1.047   2.949  19.180  0.00  0.00    +0.000 C 
ENDBRANCH  14  17
ENDBRANCH  12  13
ENDBRANCH  11  12
ENDBRANCH   4  11
TORSDOF 6
ENDMDL
MODEL 6
REMARK VINA RESULT:      -6.2      0.894      1.420
REMARK  Name = 
REMARK  11 active torsions:
REMARK  status: ('A' for Active; 'I' for Inactive)
REMARK    1  A    between atoms: C_1  and  O_2
REMARK    2  A    between atoms: O_2  and  C_3
REMARK    3  A    between atoms: C_6  and  C_7
REMARK    4  A    between atoms: C_7  and  C_8
REMARK    5  A    between atoms: C_8  and  N_9
REMARK    6  A    between atoms: C_10  and  C_12
REMARK    7  A    between atoms: C_12  and  C_13
REMARK    8  A    between atoms: C_12  and  C_14
REMARK    9  A    between atoms: C_12  and  C_15
REMARK   10  A    between atoms: C_17  and  O_18
REMARK   11  A    between atoms: O_18  and  C_19
REMARK                            x       y       z     vdW  Elec       q    Type
REMARK                         _______ _______ _______ _____ _____    ______ ____
ROOT
ATOM      1  C   UNL     1       1.634   4.153  20.119  0.00  0.00    +0.000 A 
ATOM      2  C   UNL     1       1.911   5.398  20.709  0.00  0.00    +0.000 A 
ATOM      3  C   UNL     1       2.151   6.533  19.925  0.00  0.00    +0.000 A 
ATOM      4  C   UNL     1       2.142   6.445  18.531  0.00  0.00    +0.000 A 
ATOM      5  C   UNL     1       1.970   5.178  17.959  0.00  0.00    +0.000 A 
ATOM      6  C   UNL     1       1.705   4.036  18.726  0.00  0.00    +0.000 A 
ENDROOT
BRANCH   1   8
ATOM      7  C   UNL     1       2.405   2.549  21.672  0.00  0.00    +0.000 C 
ATOM      8  O   UNL     1       1.337   3.057  20.876  0.00  0.00    +0.000 OA
ENDBRANCH   1   8
BRANCH   6   9
ATOM      9  O   UNL     1       1.527   2.936  17.931  0.00  0.00    +0.000 OA
ATOM     10  C   UNL     1       2.607   2.045  17.725  0.00  0.00    +0.000 C 
ENDBRANCH   6   9
BRANCH   4  11
ATOM     11  C   UNL     1       2.347   7.684  17.689  0.00  0.00    +0.000 C 
BRANCH  11  12
ATOM     12  C   UNL     1       3.818   7.978  17.362  0.00  0.00    +0.000 C 
BRANCH  12  13
ATOM     13  N   UNL     1       4.719   6.953  17.840  0.00  0.00    +0.000 N 
ATOM     14  C   UNL     1       5.699   6.414  17.036  0.00  0.00    +0.000 C 
ATOM     15  O   UNL     1       5.902   6.817  15.894  0.00  0.00    +0.000 OA
ATOM     16  H   UNL     1       4.589   6.607  18.780  0.00  0.00    +0.000 HD
BRANCH  14  17
ATOM     17  C   UNL     1       6.511   5.274  17.679  0.00  0.00    +0.000 C 
ATOM     18  C   UNL     1       7.609   5.851  18.585  0.00  0.00    +0.000 C 
ATOM     19  C   UNL     1       5.572   4.406  18.532  0.00  0.00    +0.000 C 
ATOM     20  C   UNL     1       7.137   4.403  16.580  0.00  0.00    +0.000 C 
ENDBRANCH  14  17
ENDBRANCH  12  13
ENDBRANCH  11  12
ENDBRANCH   4  11
TORSDOF 6
ENDMDL
MODEL 7
REMARK VINA RESULT:      -6.1      3.496      5.505
REMARK  Name = 
REMARK  11 active torsions:
REMARK  status: ('A' for Active; 'I' for Inactive)
REMARK    1  A    between atoms: C_1  and  O_2
REMARK    2  A    between atoms: O_2  and  C_3
REMARK    3  A    between atoms: C_6  and  C_7
REMARK    4  A    between atoms: C_7  and  C_8
REMARK    5  A    between atoms: C_8  and  N_9
REMARK    6  A    between atoms: C_10  and  C_12
REMARK    7  A    between atoms: C_12  and  C_13
REMARK    8  A    between atoms: C_12  and  C_14
REMARK    9  A    between atoms: C_12  and  C_15
REMARK   10  A    between atoms: C_17  and  O_18
REMARK   11  A    between atoms: O_18  and  C_19
REMARK                            x       y       z     vdW  Elec       q    Type
REMARK                         _______ _______ _______ _____ _____    ______ ____
ROOT
ATOM      1  C   UNL     1       1.505   4.341  19.933  0.00  0.00    +0.000 A 
ATOM      2  C   UNL     1       1.737   5.521  20.659  0.00  0.00    +0.000 A 
ATOM      3  C   UNL     1       2.173   6.689  20.021  0.00  0.00    +0.000 A 
ATOM      4  C   UNL     1       2.407   6.697  18.644  0.00  0.00    +0.000 A 
ATOM      5  C   UNL     1       2.273   5.487  17.952  0.00  0.00    +0.000 A 
ATOM      6  C   UNL     1       1.816   4.315  18.569  0.00  0.00    +0.000 A 
ENDROOT
BRANCH   1   8
ATOM      7  C   UNL     1       1.814   2.698  21.603  0.00  0.00    +0.000 C 
ATOM      8  O   UNL     1       1.020   3.217  20.538  0.00  0.00    +0.000 OA
ENDBRANCH   1   8
BRANCH   6   9
ATOM      9  O   UNL     1       1.724   3.286  17.671  0.00  0.00    +0.000 OA
ATOM     10  C   UNL     1       2.690   2.252  17.696  0.00  0.00    +0.000 C 
ENDBRANCH   6   9
BRANCH   4  11
ATOM     11  C   UNL     1       2.823   7.975  17.951  0.00  0.00    +0.000 C 
BRANCH  11  12
ATOM     12  C   UNL     1       1.647   8.881  17.559  0.00  0.00    +0.000 C 
BRANCH  12  13
ATOM     13  N   UNL     1       1.843  10.261  17.944  0.00  0.00    +0.000 N 
ATOM     14  C   UNL     1       0.955  10.919  18.768  0.00  0.00    +0.000 C 
ATOM     15  O   UNL     1      -0.012  10.353  19.270  0.00  0.00    +0.000 OA
ATOM     16  H   UNL     1       2.636  10.754  17.560  0.00  0.00    +0.000 HD
BRANCH  14  17
ATOM     17  C   UNL     1       1.272  12.407  19.004  0.00  0.00    +0.000 C 
ATOM     18  C   UNL     1       1.467  12.675  20.504  0.00  0.00    +0.000 C 
ATOM     19  C   UNL     1       2.569  12.770  18.264  0.00  0.00    +0.000 C 
ATOM     20  C   UNL     1       0.125  13.271  18.459  0.00  0.00    +0.000 C 
ENDBRANCH  14  17
ENDBRANCH  12  13
ENDBRANCH  11  12
ENDBRANCH   4  11
TORSDOF 6
ENDMDL
MODEL 8
REMARK VINA RESULT:      -6.1      2.012      5.955
REMARK  Name = 
REMARK  11 active torsions:
REMARK  status: ('A' for Active; 'I' for Inactive)
REMARK    1  A    between atoms: C_1  and  O_2
REMARK    2  A    between atoms: O_2  and  C_3
REMARK    3  A    between atoms: C_6  and  C_7
REMARK    4  A    between atoms: C_7  and  C_8
REMARK    5  A    between atoms: C_8  and  N_9
REMARK    6  A    between atoms: C_10  and  C_12
REMARK    7  A    between atoms: C_12  and  C_13
REMARK    8  A    between atoms: C_12  and  C_14
REMARK    9  A    between atoms: C_12  and  C_15
REMARK   10  A    between atoms: C_17  and  O_18
REMARK   11  A    between atoms: O_18  and  C_19
REMARK                            x       y       z     vdW  Elec       q    Type
REMARK                         _______ _______ _______ _____ _____    ______ ____
ROOT
ATOM      1  C   UNL     1       6.621   5.316  16.084  0.00  0.00    +0.000 A 
ATOM      2  C   UNL     1       5.482   5.872  15.477  0.00  0.00    +0.000 A 
ATOM      3  C   UNL     1       4.460   6.444  16.245  0.00  0.00    +0.000 A 
ATOM      4  C   UNL     1       4.543   6.453  17.639  0.00  0.00    +0.000 A 
ATOM      5  C   UNL     1       5.632   5.802  18.232  0.00  0.00    +0.000 A 
ATOM      6  C   UNL     1       6.676   5.245  17.481  0.00  0.00    +0.000 A 
ENDROOT
BRANCH   1   8
ATOM      7  C   UNL     1       7.465   4.849  13.928  0.00  0.00    +0.000 C 
ATOM      8  O   UNL     1       7.650   4.813  15.341  0.00  0.00    +0.000 OA
ENDBRANCH   1   8
BRANCH   6   9
ATOM      9  O   UNL     1       7.641   4.714  18.293  0.00  0.00    +0.000 OA
ATOM     10  C   UNL     1       8.064   5.437  19.434  0.00  0.00    +0.000 C 
ENDBRANCH   6   9
BRANCH   4  11
ATOM     11  C   UNL     1       3.464   7.122  18.461  0.00  0.00    +0.000 C 
BRANCH  11  12
ATOM     12  C   UNL     1       2.069   6.508  18.273  0.00  0.00    +0.000 C 
BRANCH  12  13
ATOM     13  N   UNL     1       2.028   5.094  18.573  0.00  0.00    +0.000 N 
ATOM     14  C   UNL     1       1.805   4.629  19.851  0.00  0.00    +0.000 C 
ATOM     15  O   UNL     1       1.566   5.384  20.789  0.00  0.00    +0.000 OA
ATOM     16  H   UNL     1       2.207   4.443  17.822  0.00  0.00    +0.000 HD
BRANCH  14  17
ATOM     17  C   UNL     1       1.880   3.099  20.005  0.00  0.00    +0.000 C 
ATOM     18  C   UNL     1       0.959   2.417  18.982  0.00  0.00    +0.000 C 
ATOM     19  C   UNL     1       3.325   2.638  19.753  0.00  0.00    +0.000 C 
ATOM     20  C   UNL     1       1.470   2.703  21.431  0.00  0.00    +0.000 C 
ENDBRANCH  14  17
ENDBRANCH  12  13
ENDBRANCH  11  12
ENDBRANCH   4  11
TORSDOF 6
ENDMDL
MODEL 9
REMARK VINA RESULT:      -6.1      1.976      6.059
REMARK  Name = 
REMARK  11 active torsions:
REMARK  status: ('A' for Active; 'I' for Inactive)
REMARK    1  A    between atoms: C_1  and  O_2
REMARK    2  A    between atoms: O_2  and  C_3
REMARK    3  A    between atoms: C_6  and  C_7
REMARK    4  A    between atoms: C_7  and  C_8
REMARK    5  A    between atoms: C_8  and  N_9
REMARK    6  A    between atoms: C_10  and  C_12
REMARK    7  A    between atoms: C_12  and  C_13
REMARK    8  A    between atoms: C_12  and  C_14
REMARK    9  A    between atoms: C_12  and  C_15
REMARK   10  A    between atoms: C_17  and  O_18
REMARK   11  A    between atoms: O_18  and  C_19
REMARK                            x       y       z     vdW  Elec       q    Type
REMARK                         _______ _______ _______ _____ _____    ______ ____
ROOT
ATOM      1  C   UNL     1       6.349   5.659  16.094  0.00  0.00    +0.000 A 
ATOM      2  C   UNL     1       5.209   4.838  16.155  0.00  0.00    +0.000 A 
ATOM      3  C   UNL     1       4.052   5.257  16.824  0.00  0.00    +0.000 A 
ATOM      4  C   UNL     1       4.015   6.496  17.466  0.00  0.00    +0.000 A 
ATOM      5  C   UNL     1       5.191   7.256  17.486  0.00  0.00    +0.000 A 
ATOM      6  C   UNL     1       6.351   6.865  16.803  0.00  0.00    +0.000 A 
ENDROOT
BRANCH   1   8
ATOM      7  C   UNL     1       7.216   4.786  14.077  0.00  0.00    +0.000 C 
ATOM      8  O   UNL     1       7.458   5.285  15.390  0.00  0.00    +0.000 OA
ENDBRANCH   1   8
BRANCH   6   9
ATOM      9  O   UNL     1       7.343   7.799  16.935  0.00  0.00    +0.000 OA
ATOM     10  C   UNL     1       8.092   7.852  18.135  0.00  0.00    +0.000 C 
ENDBRANCH   6   9
BRANCH   4  11
ATOM     11  C   UNL     1       2.745   6.967  18.139  0.00  0.00    +0.000 C 
BRANCH  11  12
ATOM     12  C   UNL     1       2.640   6.568  19.617  0.00  0.00    +0.000 C 
BRANCH  12  13
ATOM     13  N   UNL     1       2.002   5.284  19.813  0.00  0.00    +0.000 N 
ATOM     14  C   UNL     1       2.732   4.124  19.952  0.00  0.00    +0.000 C 
ATOM     15  O   UNL     1       3.960   4.124  19.981  0.00  0.00    +0.000 OA
ATOM     16  H   UNL     1       0.993   5.250  19.807  0.00  0.00    +0.000 HD
BRANCH  14  17
ATOM     17  C   UNL     1       1.891   2.840  20.064  0.00  0.00    +0.000 C 
ATOM     18  C   UNL     1       2.632   1.662  19.412  0.00  0.00    +0.000 C 
ATOM     19  C   UNL     1       1.661   2.516  21.549  0.00  0.00    +0.000 C 
ATOM     20  C   UNL     1       0.532   3.051  19.381  0.00  0.00    +0.000 C 
ENDBRANCH  14  17
ENDBRANCH  12  13
ENDBRANCH  11  12
ENDBRANCH   4  11
TORSDOF 6
ENDMDL
