MODEL 1
REMARK VINA RESULT:      -6.3      0.000      0.000
REMARK  Name = 
REMARK  11 active torsions:
REMARK  status: ('A' for Active; 'I' for Inactive)
REMARK    1  A    between atoms: C_1  and  O_2
REMARK    2  A    between atoms: O_2  and  C_3
REMARK    3  A    between atoms: C_6  and  C_7
REMARK    4  A    between atoms: C_7  and  O_8
REMARK    5  A    between atoms: O_8  and  C_9
REMARK    6  A    between atoms: C_9  and  C_10
REMARK    7  A    between atoms: C_10  and  O_11
REMARK    8  A    between atoms: C_10  and  C_12
REMARK    9  A    between atoms: C_12  and  N_13
REMARK   10  A    between atoms: C_20  and  O_21
REMARK   11  A    between atoms: O_21  and  C_22
REMARK                            x       y       z     vdW  Elec       q    Type
REMARK                         _______ _______ _______ _____ _____    ______ ____
ROOT
ATOM      1  O   UNL     1       3.385   5.746  17.845  0.00  0.00    +0.000 OA
ENDROOT
BRANCH   1   2
ATOM      2  C   UNL     1       3.436   7.158  17.651  0.00  0.00    +0.000 C 
BRANCH   2   6
ATOM      3  C   UNL     1       0.797   9.091  20.477  0.00  0.00    +0.000 A 
ATOM      4  C   UNL     1       1.362   7.840  20.755  0.00  0.00    +0.000 A 
ATOM      5  C   UNL     1       2.220   7.223  19.858  0.00  0.00    +0.000 A 
ATOM      6  C   UNL     1       2.471   7.795  18.611  0.00  0.00    +0.000 A 
ATOM      7  C   UNL     1       1.832   8.995  18.288  0.00  0.00    +0.000 A 
ATOM      8  C   UNL     1       0.990   9.656  19.205  0.00  0.00    +0.000 A 
BRANCH   3  10
ATOM      9  C   UNL     1       0.376   9.421  22.781  0.00  0.00    +0.000 C 
ATOM     10  O   UNL     1       0.059   9.748  21.424  0.00  0.00    +0.000 OA
ENDBRANCH   3  10
BRANCH   8  11
ATOM     11  O   UNL     1       0.489  10.819  18.686  0.00  0.00    +0.000 OA
ATOM     12  C   UNL     1       1.175  12.036  18.927  0.00  0.00    +0.000 C 
ENDBRANCH   8  11
ENDBRANCH   2   6
ENDBRANCH   1   2
BRANCH   1  13
ATOM     13  C   UNL     1       4.491   5.065  17.287  0.00  0.00    +0.000 C 
BRANCH  13  14
ATOM     14  C   UNL     1       4.921   3.916  18.222  0.00  0.00    +0.000 C 
BRANCH  14  15
ATOM     15  O   UNL     1       6.324   4.043  18.455  0.00  0.00    +0.000 OA
ATOM     16  H   UNL     1       6.706   3.163  18.580  0.00  0.00    +0.000 HD
ENDBRANCH  14  15
BRANCH  14  17
ATOM     17  C   UNL     1       4.083   3.943  19.537  0.00  0.00    +0.000 C 
BRANCH  17  18
ATOM     18  N   UNL     1       3.471   2.669  19.989  0.00  0.00    +0.000 NA
ATOM     19  C   UNL     1       2.731   2.015  18.880  0.00  0.00    +0.000 C 
ATOM     20  C   UNL     1       1.399   2.705  18.518  0.00  0.00    +0.000 C 
ATOM     21  O   UNL     1       0.551   2.879  19.660  0.00  0.00    +0.000 OA
ATOM     22  C   UNL     1       1.240   3.568  20.715  0.00  0.00    +0.000 C 
ATOM     23  C   UNL     1       2.519   2.816  21.110  0.00  0.00    +0.000 C 
ENDBRANCH  17  18
ENDBRANCH  14  17
ENDBRANCH  13  14
ENDBRANCH   1  13
TORSDOF 9
ENDMDL
MODEL 2
REMARK VINA RESULT:      -6.2      2.134      4.357
REMARK  Name = 
REMARK  11 active torsions:
REMARK  status: ('A' for Active; 'I' for Inactive)
REMARK    1  A    between atoms: C_1  and  O_2
REMARK    2  A    between atoms: O_2  and  C_3
REMARK    3  A    between atoms: C_6  and  C_7
REMARK    4  A    between atoms: C_7  and  O_8
REMARK    5  A    between atoms: O_8  and  C_9
REMARK    6  A    between atoms: C_9  and  C_10
REMARK    7  A    between atoms: C_10  and  O_11
REMARK    8  A    between atoms: C_10  and  C_12
REMARK    9  A    between atoms: C_12  and  N_13
REMARK   10  A    between atoms: C_20  and  O_21
REMARK   11  A    between atoms: O_21  and  C_22
REMARK                            x       y       z     vdW  Elec       q    Type
REMARK                         _______ _______ _______ _____ _____    ______ ____
ROOT
ATOM      1  O   UNL     1       2.484   4.005  18.213  0.00  0.00    +0.000 OA
ENDROOT
BRANCH   1   2
ATOM      2  C   UNL     1       2.195   4.456  19.535  0.00  0.00    +0.000 C 
BRANCH   2   6
ATOM      3  C   UNL     1       1.695   8.748  19.396  0.00  0.00    +0.000 A 
ATOM      4  C   UNL     1       2.184   8.042  18.290  0.00  0.00    +0.000 A 
ATOM      5  C   UNL     1       2.332   6.664  18.325  0.00  0.00    +0.000 A 
ATOM      6  C   UNL     1       2.083   5.955  19.500  0.00  0.00    +0.000 A 
ATOM      7  C   UNL     1       1.690   6.667  20.637  0.00  0.00    +0.000 A 
ATOM      8  C   UNL     1       1.493   8.062  20.606  0.00  0.00    +0.000 A 
BRANCH   3  10
ATOM      9  C   UNL     1       1.804  10.702  18.068  0.00  0.00    +0.000 C 
ATOM     10  O   UNL     1       1.428  10.088  19.305  0.00  0.00    +0.000 OA
ENDBRANCH   3  10
BRANCH   8  11
ATOM     11  O   UNL     1       1.092   8.544  21.822  0.00  0.00    +0.000 OA
ATOM     12  C   UNL     1      -0.278   8.845  22.029  0.00  0.00    +0.000 C 
ENDBRANCH   8  11
ENDBRANCH   2   6
ENDBRANCH   1   2
BRANCH   1  13
ATOM     13  C   UNL     1       3.698   3.286  18.121  0.00  0.00    +0.000 C 
BRANCH  13  14
ATOM     14  C   UNL     1       4.620   3.667  19.297  0.00  0.00    +0.000 C 
BRANCH  14  15
ATOM     15  O   UNL     1       5.379   2.511  19.651  0.00  0.00    +0.000 OA
ATOM     16  H   UNL     1       5.533   2.512  20.607  0.00  0.00    +0.000 HD
ENDBRANCH  14  15
BRANCH  14  17
ATOM     17  C   UNL     1       5.515   4.886  18.913  0.00  0.00    +0.000 C 
BRANCH  17  18
ATOM     18  N   UNL     1       6.911   4.609  18.496  0.00  0.00    +0.000 NA
ATOM     19  C   UNL     1       7.806   5.737  18.861  0.00  0.00    +0.000 C 
ATOM     20  C   UNL     1       7.628   6.992  17.980  0.00  0.00    +0.000 C 
ATOM     21  O   UNL     1       7.734   6.693  16.582  0.00  0.00    +0.000 OA
ATOM     22  C   UNL     1       6.826   5.645  16.209  0.00  0.00    +0.000 C 
ATOM     23  C   UNL     1       7.078   4.383  17.045  0.00  0.00    +0.000 C 
ENDBRANCH  17  18
ENDBRANCH  14  17
ENDBRANCH  13  14
ENDBRANCH   1  13
TORSDOF 9
ENDMDL
MODEL 3
REMARK VINA RESULT:      -6.1      1.918      4.141
REMARK  Name = 
REMARK  11 active torsions:
REMARK  status: ('A' for Active; 'I' for Inactive)
REMARK    1  A    between atoms: C_1  and  O_2
REMARK    2  A    between atoms: O_2  and  C_3
REMARK    3  A    between atoms: C_6  and  C_7
REMARK    4  A    between atoms: C_7  and  O_8
REMARK    5  A    between atoms: O_8  and  C_9
REMARK    6  A    between atoms: C_9  and  C_10
REMARK    7  A    between atoms: C_10  and  O_11
REMARK    8  A    between atoms: C_10  and  C_12
REMARK    9  A    between atoms: C_12  and  N_13
REMARK   10  A    between atoms: C_20  and  O_21
REMARK   11  A    between atoms: O_21  and  C_22
REMARK                            x       y       z     vdW  Elec       q    Type
REMARK                         _______ _______ _______ _____ _____    ______ ____
ROOT
ATOM      1  O   UNL     1       2.332   4.972  18.575  0.00  0.00    +0.000 OA
ENDROOT
BRANCH   1   2
ATOM      2  C   UNL     1       2.795   5.807  19.635  0.00  0.00    +0.000 C 
BRANCH   2   6
ATOM      3  C   UNL     1       1.192   9.751  18.886  0.00  0.00    +0.000 A 
ATOM      4  C   UNL     1       1.781   9.004  17.858  0.00  0.00    +0.000 A 
ATOM      5  C   UNL     1       2.283   7.733  18.091  0.00  0.00    +0.000 A 
ATOM      6  C   UNL     1       2.296   7.202  19.380  0.00  0.00    +0.000 A 
ATOM      7  C   UNL     1       1.800   7.984  20.428  0.00  0.00    +0.000 A 
ATOM      8  C   UNL     1       1.247   9.260  20.202  0.00  0.00    +0.000 A 
BRANCH   3  10
ATOM      9  C   UNL     1       1.425  12.099  18.723  0.00  0.00    +0.000 C 
ATOM     10  O   UNL     1       0.582  10.947  18.616  0.00  0.00    +0.000 OA
ENDBRANCH   3  10
BRANCH   8  11
ATOM     11  O   UNL     1       0.807   9.836  21.362  0.00  0.00    +0.000 OA
ATOM     12  C   UNL     1      -0.587   9.944  21.596  0.00  0.00    +0.000 C 
ENDBRANCH   8  11
ENDBRANCH   2   6
ENDBRANCH   1   2
BRANCH   1  13
ATOM     13  C   UNL     1       2.924   3.689  18.577  0.00  0.00    +0.000 C 
BRANCH  13  14
ATOM     14  C   UNL     1       4.459   3.822  18.515  0.00  0.00    +0.000 C 
BRANCH  14  15
ATOM     15  O   UNL     1       5.022   2.757  19.281  0.00  0.00    +0.000 OA
ATOM     16  H   UNL     1       5.988   2.811  19.238  0.00  0.00    +0.000 HD
ENDBRANCH  14  15
BRANCH  14  17
ATOM     17  C   UNL     1       4.945   3.824  17.032  0.00  0.00    +0.000 C 
BRANCH  17  18
ATOM     18  N   UNL     1       4.877   5.106  16.288  0.00  0.00    +0.000 NA
ATOM     19  C   UNL     1       5.500   4.974  14.947  0.00  0.00    +0.000 C 
ATOM     20  C   UNL     1       7.041   4.894  14.974  0.00  0.00    +0.000 C 
ATOM     21  O   UNL     1       7.628   5.982  15.701  0.00  0.00    +0.000 OA
ATOM     22  C   UNL     1       7.075   6.077  17.022  0.00  0.00    +0.000 C 
ATOM     23  C   UNL     1       5.549   6.237  16.963  0.00  0.00    +0.000 C 
ENDBRANCH  17  18
ENDBRANCH  14  17
ENDBRANCH  13  14
ENDBRANCH   1  13
TORSDOF 9
ENDMDL
MODEL 4
REMARK VINA RESULT:      -5.8      1.421      3.456
REMARK  Name = 
REMARK  11 active torsions:
REMARK  status: ('A' for Active; 'I' for Inactive)
REMARK    1  A    between atoms: C_1  and  O_2
REMARK    2  A    between atoms: O_2  and  C_3
REMARK    3  A    between atoms: C_6  and  C_7
REMARK    4  A    between atoms: C_7  and  O_8
REMARK    5  A    between atoms: O_8  and  C_9
REMARK    6  A    between atoms: C_9  and  C_10
REMARK    7  A    between atoms: C_10  and  O_11
REMARK    8  A    between atoms: C_10  and  C_12
REMARK    9  A    between atoms: C_12  and  N_13
REMARK   10  A    between atoms: C_20  and  O_21
REMARK   11  A    between atoms: O_21  and  C_22
REMARK                            x       y       z     vdW  Elec       q    Type
REMARK                         _______ _______ _______ _____ _____    ______ ____
ROOT
ATOM      1  O   UNL     1       1.823   5.352  20.385  0.00  0.00    +0.000 OA
ENDROOT
BRANCH   1   2
ATOM      2  C   UNL     1       2.796   6.215  19.801  0.00  0.00    +0.000 C 
BRANCH   2   6
ATOM      3  C   UNL     1       0.745   9.922  18.940  0.00  0.00    +0.000 A 
ATOM      4  C   UNL     1       1.572   9.316  17.986  0.00  0.00    +0.000 A 
ATOM      5  C   UNL     1       2.220   8.120  18.253  0.00  0.00    +0.000 A 
ATOM      6  C   UNL     1       2.136   7.535  19.516  0.00  0.00    +0.000 A 
ATOM      7  C   UNL     1       1.392   8.188  20.504  0.00  0.00    +0.000 A 
ATOM      8  C   UNL     1       0.693   9.381  20.237  0.00  0.00    +0.000 A 
BRANCH   3  10
ATOM      9  C   UNL     1      -1.312  10.766  18.134  0.00  0.00    +0.000 C 
ATOM     10  O   UNL     1       0.008  11.030  18.620  0.00  0.00    +0.000 OA
ENDBRANCH   3  10
BRANCH   8  11
ATOM     11  O   UNL     1       0.019   9.832  21.339  0.00  0.00    +0.000 OA
ATOM     12  C   UNL     1       0.447   9.423  22.627  0.00  0.00    +0.000 C 
ENDBRANCH   8  11
ENDBRANCH   2   6
ENDBRANCH   1   2
BRANCH   1  13
ATOM     13  C   UNL     1       2.330   4.581  21.456  0.00  0.00    +0.000 C 
BRANCH  13  14
ATOM     14  C   UNL     1       2.047   3.086  21.203  0.00  0.00    +0.000 C 
BRANCH  14  15
ATOM     15  O   UNL     1       0.998   2.685  22.084  0.00  0.00    +0.000 OA
ATOM     16  H   UNL     1       1.385   2.321  22.893  0.00  0.00    +0.000 HD
ENDBRANCH  14  15
BRANCH  14  17
ATOM     17  C   UNL     1       1.702   2.846  19.700  0.00  0.00    +0.000 C 
BRANCH  17  18
ATOM     18  N   UNL     1       2.599   1.954  18.923  0.00  0.00    +0.000 NA
ATOM     19  C   UNL     1       3.999   2.062  19.406  0.00  0.00    +0.000 C 
ATOM     20  C   UNL     1       4.704   3.374  19.005  0.00  0.00    +0.000 C 
ATOM     21  O   UNL     1       4.634   3.620  17.595  0.00  0.00    +0.000 OA
ATOM     22  C   UNL     1       3.276   3.580  17.131  0.00  0.00    +0.000 C 
ATOM     23  C   UNL     1       2.624   2.233  17.472  0.00  0.00    +0.000 C 
ENDBRANCH  17  18
ENDBRANCH  14  17
ENDBRANCH  13  14
ENDBRANCH   1  13
TORSDOF 9
ENDMDL
MODEL 5
REMARK VINA RESULT:      -5.7      1.179      1.242
REMARK  Name = 
REMARK  11 active torsions:
REMARK  status: ('A' for Active; 'I' for Inactive)
REMARK    1  A    between atoms: C_1  and  O_2
REMARK    2  A    between atoms: O_2  and  C_3
REMARK    3  A    between atoms: C_6  and  C_7
REMARK    4  A    between atoms: C_7  and  O_8
REMARK    5  A    between atoms: O_8  and  C_9
REMARK    6  A    between atoms: C_9  and  C_10
REMARK    7  A    between atoms: C_10  and  O_11
REMARK    8  A    between atoms: C_10  and  C_12
REMARK    9  A    between atoms: C_12  and  N_13
REMARK   10  A    between atoms: C_20  and  O_21
REMARK   11  A    between atoms: O_21  and  C_22
REMARK                            x       y       z     vdW  Elec       q    Type
REMARK                         _______ _______ _______ _____ _____    ______ ____
ROOT
ATOM      1  O   UNL     1       3.671   6.851  18.263  0.00  0.00    +0.000 OA
ENDROOT
BRANCH   1   2
ATOM      2  C   UNL     1       2.859   7.873  17.689  0.00  0.00    +0.000 C 
BRANCH   2   6
ATOM      3  C   UNL     1       0.377   9.514  20.825  0.00  0.00    +0.000 A 
ATOM      4  C   UNL     1       1.104   8.334  21.023  0.00  0.00    +0.000 A 
ATOM      5  C   UNL     1       1.913   7.812  20.025  0.00  0.00    +0.000 A 
ATOM      6  C   UNL     1       1.950   8.404  18.762  0.00  0.00    +0.000 A 
ATOM      7  C   UNL     1       1.149   9.525  18.529  0.00  0.00    +0.000 A 
ATOM      8  C   UNL     1       0.355  10.093  19.544  0.00  0.00    +0.000 A 
BRANCH   3  10
ATOM      9  C   UNL     1      -0.046   9.537  23.152  0.00  0.00    +0.000 C 
ATOM     10  O   UNL     1      -0.312  10.090  21.859  0.00  0.00    +0.000 OA
ENDBRANCH   3  10
BRANCH   8  11
ATOM     11  O   UNL     1      -0.329  11.192  19.100  0.00  0.00    +0.000 OA
ATOM     12  C   UNL     1      -1.712  11.076  18.812  0.00  0.00    +0.000 C 
ENDBRANCH   8  11
ENDBRANCH   2   6
ENDBRANCH   1   2
BRANCH   1  13
ATOM     13  C   UNL     1       4.278   6.013  17.300  0.00  0.00    +0.000 C 
BRANCH  13  14
ATOM     14  C   UNL     1       3.779   4.564  17.482  0.00  0.00    +0.000 C 
BRANCH  14  15
ATOM     15  O   UNL     1       4.670   3.703  16.773  0.00  0.00    +0.000 OA
ATOM     16  H   UNL     1       5.186   4.228  16.144  0.00  0.00    +0.000 HD
ENDBRANCH  14  15
BRANCH  14  17
ATOM     17  C   UNL     1       3.674   4.212  18.998  0.00  0.00    +0.000 C 
BRANCH  17  18
ATOM     18  N   UNL     1       3.378   2.803  19.358  0.00  0.00    +0.000 NA
ATOM     19  C   UNL     1       2.039   2.400  18.859  0.00  0.00    +0.000 C 
ATOM     20  C   UNL     1       0.863   3.010  19.650  0.00  0.00    +0.000 C 
ATOM     21  O   UNL     1       0.973   2.769  21.059  0.00  0.00    +0.000 OA
ATOM     22  C   UNL     1       2.242   3.215  21.561  0.00  0.00    +0.000 C 
ATOM     23  C   UNL     1       3.394   2.531  20.811  0.00  0.00    +0.000 C 
ENDBRANCH  17  18
ENDBRANCH  14  17
ENDBRANCH  13  14
ENDBRANCH   1  13
TORSDOF 9
ENDMDL
MODEL 6
REMARK VINA RESULT:      -5.7      2.028      4.380
REMARK  Name = 
REMARK  11 active torsions:
REMARK  status: ('A' for Active; 'I' for Inactive)
REMARK    1  A    between atoms: C_1  and  O_2
REMARK    2  A    between atoms: O_2  and  C_3
REMARK    3  A    between atoms: C_6  and  C_7
REMARK    4  A    between atoms: C_7  and  O_8
REMARK    5  A    between atoms: O_8  and  C_9
REMARK    6  A    between atoms: C_9  and  C_10
REMARK    7  A    between atoms: C_10  and  O_11
REMARK    8  A    between atoms: C_10  and  C_12
REMARK    9  A    between atoms: C_12  and  N_13
REMARK   10  A    between atoms: C_20  and  O_21
REMARK   11  A    between atoms: O_21  and  C_22
REMARK                            x       y       z     vdW  Elec       q    Type
REMARK                         _______ _______ _______ _____ _____    ______ ____
ROOT
ATOM      1  O   UNL     1       2.424   2.942  20.520  0.00  0.00    +0.000 OA
ENDROOT
BRANCH   1   2
ATOM      2  C   UNL     1       1.229   3.669  20.245  0.00  0.00    +0.000 C 
BRANCH   2   6
ATOM      3  C   UNL     1       2.174   7.683  18.945  0.00  0.00    +0.000 A 
ATOM      4  C   UNL     1       2.343   6.588  18.088  0.00  0.00    +0.000 A 
ATOM      5  C   UNL     1       2.027   5.301  18.496  0.00  0.00    +0.000 A 
ATOM      6  C   UNL     1       1.618   5.053  19.806  0.00  0.00    +0.000 A 
ATOM      7  C   UNL     1       1.543   6.130  20.695  0.00  0.00    +0.000 A 
ATOM      8  C   UNL     1       1.819   7.450  20.285  0.00  0.00    +0.000 A 
BRANCH   3  10
ATOM      9  C   UNL     1       1.186   9.614  18.001  0.00  0.00    +0.000 C 
ATOM     10  O   UNL     1       2.362   8.960  18.489  0.00  0.00    +0.000 OA
ENDBRANCH   3  10
BRANCH   8  11
ATOM     11  O   UNL     1       1.664   8.343  21.310  0.00  0.00    +0.000 OA
ATOM     12  C   UNL     1       0.373   8.853  21.594  0.00  0.00    +0.000 C 
ENDBRANCH   8  11
ENDBRANCH   2   6
ENDBRANCH   1   2
BRANCH   1  13
ATOM     13  C   UNL     1       3.165   2.624  19.360  0.00  0.00    +0.000 C 
BRANCH  13  14
ATOM     14  C   UNL     1       4.654   2.957  19.585  0.00  0.00    +0.000 C 
BRANCH  14  15
ATOM     15  O   UNL     1       5.325   1.746  19.934  0.00  0.00    +0.000 OA
ATOM     16  H   UNL     1       4.789   0.992  19.648  0.00  0.00    +0.000 HD
ENDBRANCH  14  15
BRANCH  14  17
ATOM     17  C   UNL     1       5.256   3.639  18.317  0.00  0.00    +0.000 C 
BRANCH  17  18
ATOM     18  N   UNL     1       6.400   4.563  18.511  0.00  0.00    +0.000 NA
ATOM     19  C   UNL     1       5.960   5.978  18.412  0.00  0.00    +0.000 C 
ATOM     20  C   UNL     1       5.634   6.437  16.975  0.00  0.00    +0.000 C 
ATOM     21  O   UNL     1       6.711   6.176  16.065  0.00  0.00    +0.000 OA
ATOM     22  C   UNL     1       7.100   4.795  16.109  0.00  0.00    +0.000 C 
ATOM     23  C   UNL     1       7.496   4.387  17.535  0.00  0.00    +0.000 C 
ENDBRANCH  17  18
ENDBRANCH  14  17
ENDBRANCH  13  14
ENDBRANCH   1  13
TORSDOF 9
ENDMDL
MODEL 7
REMARK VINA RESULT:      -5.7      1.916      4.315
REMARK  Name = 
REMARK  11 active torsions:
REMARK  status: ('A' for Active; 'I' for Inactive)
REMARK    1  A    between atoms: C_1  and  O_2
REMARK    2  A    between atoms: O_2  and  C_3
REMARK    3  A    between atoms: C_6  and  C_7
REMARK    4  A    between atoms: C_7  and  O_8
REMARK    5  A    between atoms: O_8  and  C_9
REMARK    6  A    between atoms: C_9  and  C_10
REMARK    7  A    between atoms: C_10  and  O_11
REMARK    8  A    between atoms: C_10  and  C_12
REMARK    9  A    between atoms: C_12  and  N_13
REMARK   10  A    between atoms: C_20  and  O_21
REMARK   11  A    between atoms: O_21  and  C_22
REMARK                            x       y       z     vdW  Elec       q    Type
REMARK                         _______ _______ _______ _____ _____    ______ ____
ROOT
ATOM      1  O   UNL     1       2.020   4.335  19.586  0.00  0.00    +0.000 OA
ENDROOT
BRANCH   1   2
ATOM      2  C   UNL     1       2.050   5.188  20.728  0.00  0.00    +0.000 C 
BRANCH   2   6
ATOM      3  C   UNL     1       1.458   9.225  19.297  0.00  0.00    +0.000 A 
ATOM      4  C   UNL     1       2.202   8.298  18.557  0.00  0.00    +0.000 A 
ATOM      5  C   UNL     1       2.383   6.999  19.005  0.00  0.00    +0.000 A 
ATOM      6  C   UNL     1       1.901   6.607  20.254  0.00  0.00    +0.000 A 
ATOM      7  C   UNL     1       1.243   7.556  21.041  0.00  0.00    +0.000 A 
ATOM      8  C   UNL     1       1.014   8.869  20.583  0.00  0.00    +0.000 A 
BRANCH   3  10
ATOM      9  C   UNL     1       2.169  10.997  17.902  0.00  0.00    +0.000 C 
ATOM     10  O   UNL     1       1.176  10.462  18.783  0.00  0.00    +0.000 OA
ENDBRANCH   3  10
BRANCH   8  11
ATOM     11  O   UNL     1       0.338   9.619  21.506  0.00  0.00    +0.000 OA
ATOM     12  C   UNL     1      -0.486   8.966  22.458  0.00  0.00    +0.000 C 
ENDBRANCH   8  11
ENDBRANCH   2   6
ENDBRANCH   1   2
BRANCH   1  13
ATOM     13  C   UNL     1       3.149   3.490  19.489  0.00  0.00    +0.000 C 
BRANCH  13  14
ATOM     14  C   UNL     1       3.615   3.409  18.021  0.00  0.00    +0.000 C 
BRANCH  14  15
ATOM     15  O   UNL     1       2.503   3.741  17.189  0.00  0.00    +0.000 OA
ATOM     16  H   UNL     1       2.654   4.610  16.789  0.00  0.00    +0.000 HD
ENDBRANCH  14  15
BRANCH  14  17
ATOM     17  C   UNL     1       4.845   4.341  17.789  0.00  0.00    +0.000 C 
BRANCH  17  18
ATOM     18  N   UNL     1       4.803   5.258  16.623  0.00  0.00    +0.000 NA
ATOM     19  C   UNL     1       5.486   4.655  15.451  0.00  0.00    +0.000 C 
ATOM     20  C   UNL     1       7.024   4.624  15.566  0.00  0.00    +0.000 C 
ATOM     21  O   UNL     1       7.572   5.914  15.864  0.00  0.00    +0.000 OA
ATOM     22  C   UNL     1       6.960   6.478  17.034  0.00  0.00    +0.000 C 
ATOM     23  C   UNL     1       5.438   6.571  16.860  0.00  0.00    +0.000 C 
ENDBRANCH  17  18
ENDBRANCH  14  17
ENDBRANCH  13  14
ENDBRANCH   1  13
TORSDOF 9
ENDMDL
MODEL 8
REMARK VINA RESULT:      -5.7      1.056      2.176
REMARK  Name = 
REMARK  11 active torsions:
REMARK  status: ('A' for Active; 'I' for Inactive)
REMARK    1  A    between atoms: C_1  and  O_2
REMARK    2  A    between atoms: O_2  and  C_3
REMARK    3  A    between atoms: C_6  and  C_7
REMARK    4  A    between atoms: C_7  and  O_8
REMARK    5  A    between atoms: O_8  and  C_9
REMARK    6  A    between atoms: C_9  and  C_10
REMARK    7  A    between atoms: C_10  and  O_11
REMARK    8  A    between atoms: C_10  and  C_12
REMARK    9  A    between atoms: C_12  and  N_13
REMARK   10  A    between atoms: C_20  and  O_21
REMARK   11  A    between atoms: O_21  and  C_22
REMARK                            x       y       z     vdW  Elec       q    Type
REMARK                         _______ _______ _______ _____ _____    ______ ____
ROOT
ATOM      1  O   UNL     1       2.751   5.443  18.219  0.00  0.00    +0.000 OA
ENDROOT
BRANCH   1   2
ATOM      2  C   UNL     1       3.204   6.365  19.208  0.00  0.00    +0.000 C 
BRANCH   2   6
ATOM      3  C   UNL     1       0.691   9.863  18.830  0.00  0.00    +0.000 A 
ATOM      4  C   UNL     1       1.462   9.408  17.753  0.00  0.00    +0.000 A 
ATOM      5  C   UNL     1       2.258   8.279  17.866  0.00  0.00    +0.000 A 
ATOM      6  C   UNL     1       2.381   7.618  19.088  0.00  0.00    +0.000 A 
ATOM      7  C   UNL     1       1.691   8.126  20.192  0.00  0.00    +0.000 A 
ATOM      8  C   UNL     1       0.845   9.248  20.085  0.00  0.00    +0.000 A 
BRANCH   3  10
ATOM      9  C   UNL     1      -1.473  10.533  18.151  0.00  0.00    +0.000 C 
ATOM     10  O   UNL     1      -0.190  10.899  18.668  0.00  0.00    +0.000 OA
ENDBRANCH   3  10
BRANCH   8  11
ATOM     11  O   UNL     1       0.258   9.558  21.281  0.00  0.00    +0.000 OA
ATOM     12  C   UNL     1       0.944   9.258  22.486  0.00  0.00    +0.000 C 
ENDBRANCH   8  11
ENDBRANCH   2   6
ENDBRANCH   1   2
BRANCH   1  13
ATOM     13  C   UNL     1       3.775   5.012  17.346  0.00  0.00    +0.000 C 
BRANCH  13  14
ATOM     14  C   UNL     1       4.135   3.543  17.648  0.00  0.00    +0.000 C 
BRANCH  14  15
ATOM     15  O   UNL     1       5.342   3.235  16.950  0.00  0.00    +0.000 OA
ATOM     16  H   UNL     1       6.075   3.721  17.356  0.00  0.00    +0.000 HD
ENDBRANCH  14  15
BRANCH  14  17
ATOM     17  C   UNL     1       4.250   3.317  19.188  0.00  0.00    +0.000 C 
BRANCH  17  18
ATOM     18  N   UNL     1       3.522   2.163  19.770  0.00  0.00    +0.000 NA
ATOM     19  C   UNL     1       2.244   1.927  19.053  0.00  0.00    +0.000 C 
ATOM     20  C   UNL     1       1.148   2.969  19.360  0.00  0.00    +0.000 C 
ATOM     21  O   UNL     1       0.920   3.117  20.767  0.00  0.00    +0.000 OA
ATOM     22  C   UNL     1       2.143   3.408  21.460  0.00  0.00    +0.000 C 
ATOM     23  C   UNL     1       3.188   2.314  21.202  0.00  0.00    +0.000 C 
ENDBRANCH  17  18
ENDBRANCH  14  17
ENDBRANCH  13  14
ENDBRANCH   1  13
TORSDOF 9
ENDMDL
MODEL 9
REMARK VINA RESULT:      -5.7      2.113      3.785
REMARK  Name = 
REMARK  11 active torsions:
REMARK  status: ('A' for Active; 'I' for Inactive)
REMARK    1  A    between atoms: C_1  and  O_2
REMARK    2  A    between atoms: O_2  and  C_3
REMARK    3  A    between atoms: C_6  and  C_7
REMARK    4  A    between atoms: C_7  and  O_8
REMARK    5  A    between atoms: O_8  and  C_9
REMARK    6  A    between atoms: C_9  and  C_10
REMARK    7  A    between atoms: C_10  and  O_11
REMARK    8  A    between atoms: C_10  and  C_12
REMARK    9  A    between atoms: C_12  and  N_13
REMARK   10  A    between atoms: C_20  and  O_21
REMARK   11  A    between atoms: O_21  and  C_22
REMARK                            x       y       z     vdW  Elec       q    Type
REMARK                         _______ _______ _______ _____ _____    ______ ____
ROOT
ATOM      1  O   UNL     1       2.892   7.043  18.601  0.00  0.00    +0.000 OA
ENDROOT
BRANCH   1   2
ATOM      2  C   UNL     1       2.157   8.174  18.136  0.00  0.00    +0.000 C 
BRANCH   2   6
ATOM      3  C   UNL     1       0.567  10.211  21.602  0.00  0.00    +0.000 A 
ATOM      4  C   UNL     1       0.982   8.876  21.676  0.00  0.00    +0.000 A 
ATOM      5  C   UNL     1       1.506   8.223  20.571  0.00  0.00    +0.000 A 
ATOM      6  C   UNL     1       1.548   8.856  19.329  0.00  0.00    +0.000 A 
ATOM      7  C   UNL     1       1.043  10.155  19.226  0.00  0.00    +0.000 A 
ATOM      8  C   UNL     1       0.547  10.848  20.349  0.00  0.00    +0.000 A 
BRANCH   3  10
ATOM      9  C   UNL     1      -1.182  10.670  23.125  0.00  0.00    +0.000 C 
ATOM     10  O   UNL     1       0.176  10.883  22.728  0.00  0.00    +0.000 OA
ENDBRANCH   3  10
BRANCH   8  11
ATOM     11  O   UNL     1       0.124  12.108  20.022  0.00  0.00    +0.000 OA
ATOM     12  C   UNL     1      -1.223  12.304  19.624  0.00  0.00    +0.000 C 
ENDBRANCH   8  11
ENDBRANCH   2   6
ENDBRANCH   1   2
BRANCH   1  13
ATOM     13  C   UNL     1       2.410   5.816  18.093  0.00  0.00    +0.000 C 
BRANCH  13  14
ATOM     14  C   UNL     1       3.371   4.675  18.486  0.00  0.00    +0.000 C 
BRANCH  14  15
ATOM     15  O   UNL     1       2.582   3.530  18.809  0.00  0.00    +0.000 OA
ATOM     16  H   UNL     1       1.745   3.822  19.200  0.00  0.00    +0.000 HD
ENDBRANCH  14  15
BRANCH  14  17
ATOM     17  C   UNL     1       4.391   4.404  17.337  0.00  0.00    +0.000 C 
BRANCH  17  18
ATOM     18  N   UNL     1       5.197   5.549  16.848  0.00  0.00    +0.000 NA
ATOM     19  C   UNL     1       5.619   5.337  15.441  0.00  0.00    +0.000 C 
ATOM     20  C   UNL     1       6.732   4.282  15.269  0.00  0.00    +0.000 C 
ATOM     21  O   UNL     1       7.866   4.550  16.103  0.00  0.00    +0.000 OA
ATOM     22  C   UNL     1       7.474   4.693  17.477  0.00  0.00    +0.000 C 
ATOM     23  C   UNL     1       6.426   5.804  17.630  0.00  0.00    +0.000 C 
ENDBRANCH  17  18
ENDBRANCH  14  17
ENDBRANCH  13  14
ENDBRANCH   1  13
TORSDOF 9
ENDMDL
