MODEL 1
REMARK VINA RESULT:      -8.0      0.000      0.000
REMARK  Name = 
REMARK  4 active torsions:
REMARK  status: ('A' for Active; 'I' for Inactive)
REMARK    1  A    between atoms: C_13  and  C_14
REMARK    2  A    between atoms: C_13  and  C_21
REMARK    3  A    between atoms: C_14  and  C_15
REMARK    4  A    between atoms: C_21  and  C_22
REMARK                            x       y       z     vdW  Elec       q    Type
REMARK                         _______ _______ _______ _____ _____    ______ ____
ROOT
ATOM      1  C   UNL     1       2.399   4.957  20.987  0.00  0.00    +0.000 C 
ATOM      2  C   UNL     1       2.236   6.040  20.216  0.00  0.00    +0.000 C 
ATOM      3  C   UNL     1       1.431   7.259  20.603  0.00  0.00    +0.000 A 
ATOM      4  C   UNL     1       0.692   7.525  21.755  0.00  0.00    +0.000 A 
ATOM      5  C   UNL     1       0.122   8.802  21.872  0.00  0.00    +0.000 A 
ATOM      6  C   UNL     1       0.281   9.778  20.874  0.00  0.00    +0.000 A 
ATOM      7  C   UNL     1       1.023   9.491  19.717  0.00  0.00    +0.000 A 
ATOM      8  C   UNL     1       1.295  10.377  18.664  0.00  0.00    +0.000 A 
ATOM      9  C   UNL     1       2.090   9.967  17.580  0.00  0.00    +0.000 A 
ATOM     10  C   UNL     1       2.646   8.679  17.512  0.00  0.00    +0.000 A 
ATOM     11  C   UNL     1       2.372   7.820  18.578  0.00  0.00    +0.000 A 
ATOM     12  C   UNL     1       1.567   8.230  19.626  0.00  0.00    +0.000 A 
ATOM     13  C   UNL     1       2.902   6.398  18.833  0.00  0.00    +0.000 C 
ENDROOT
BRANCH  13  14
ATOM     14  C   UNL     1       4.469   6.417  18.948  0.00  0.00    +0.000 C 
BRANCH  14  15
ATOM     15  C   UNL     1       5.203   5.796  17.774  0.00  0.00    +0.000 A 
ATOM     16  C   UNL     1       4.927   6.168  16.457  0.00  0.00    +0.000 A 
ATOM     17  C   UNL     1       5.766   5.746  15.430  0.00  0.00    +0.000 A 
ATOM     18  C   UNL     1       6.842   4.936  15.751  0.00  0.00    +0.000 A 
ATOM     19  N   UNL     1       7.094   4.484  16.995  0.00  0.00    +0.000 NA
ATOM     20  C   UNL     1       6.271   4.922  17.972  0.00  0.00    +0.000 A 
ENDBRANCH  14  15
ENDBRANCH  13  14
BRANCH  13  21
ATOM     21  C   UNL     1       2.383   5.480  17.670  0.00  0.00    +0.000 C 
BRANCH  21  22
ATOM     22  C   UNL     1       2.179   4.028  18.019  0.00  0.00    +0.000 A 
ATOM     23  C   UNL     1       3.245   3.126  18.042  0.00  0.00    +0.000 A 
ATOM     24  C   UNL     1       3.053   1.849  18.556  0.00  0.00    +0.000 A 
ATOM     25  C   UNL     1       1.794   1.507  19.016  0.00  0.00    +0.000 A 
ATOM     26  N   UNL     1       0.722   2.322  18.934  0.00  0.00    +0.000 NA
ATOM     27  C   UNL     1       0.933   3.552  18.417  0.00  0.00    +0.000 A 
ENDBRANCH  21  22
ENDBRANCH  13  21
TORSDOF 4
ENDMDL
MODEL 2
REMARK VINA RESULT:      -7.4      5.299      8.243
REMARK  Name = 
REMARK  4 active torsions:
REMARK  status: ('A' for Active; 'I' for Inactive)
REMARK    1  A    between atoms: C_13  and  C_14
REMARK    2  A    between atoms: C_13  and  C_21
REMARK    3  A    between atoms: C_14  and  C_15
REMARK    4  A    between atoms: C_21  and  C_22
REMARK                            x       y       z     vdW  Elec       q    Type
REMARK                         _______ _______ _______ _____ _____    ______ ____
ROOT
ATOM      1  C   UNL     1       2.056  11.161  18.163  0.00  0.00    +0.000 C 
ATOM      2  C   UNL     1       1.216  11.352  19.189  0.00  0.00    +0.000 C 
ATOM      3  C   UNL     1       0.798  10.280  20.169  0.00  0.00    +0.000 A 
ATOM      4  C   UNL     1       1.132   8.927  20.226  0.00  0.00    +0.000 A 
ATOM      5  C   UNL     1       0.657   8.193  21.323  0.00  0.00    +0.000 A 
ATOM      6  C   UNL     1      -0.124   8.787  22.329  0.00  0.00    +0.000 A 
ATOM      7  C   UNL     1      -0.455  10.149  22.253  0.00  0.00    +0.000 A 
ATOM      8  C   UNL     1      -1.191  10.879  23.200  0.00  0.00    +0.000 A 
ATOM      9  C   UNL     1      -1.416  12.254  23.017  0.00  0.00    +0.000 A 
ATOM     10  C   UNL     1      -0.913  12.946  21.903  0.00  0.00    +0.000 A 
ATOM     11  C   UNL     1      -0.174  12.202  20.983  0.00  0.00    +0.000 A 
ATOM     12  C   UNL     1       0.018  10.844  21.164  0.00  0.00    +0.000 A 
ATOM     13  C   UNL     1       0.572  12.687  19.726  0.00  0.00    +0.000 C 
ENDROOT
BRANCH  13  14
ATOM     14  C   UNL     1       1.679  13.729  20.122  0.00  0.00    +0.000 C 
BRANCH  14  15
ATOM     15  C   UNL     1       1.994  14.760  19.054  0.00  0.00    +0.000 A 
ATOM     16  C   UNL     1       1.386  16.017  19.045  0.00  0.00    +0.000 A 
ATOM     17  C   UNL     1       1.861  17.007  18.190  0.00  0.00    +0.000 A 
ATOM     18  C   UNL     1       2.913  16.698  17.344  0.00  0.00    +0.000 A 
ATOM     19  N   UNL     1       3.471  15.474  17.260  0.00  0.00    +0.000 NA
ATOM     20  C   UNL     1       2.999  14.538  18.112  0.00  0.00    +0.000 A 
ENDBRANCH  14  15
ENDBRANCH  13  14
BRANCH  13  21
ATOM     21  C   UNL     1      -0.495  13.270  18.733  0.00  0.00    +0.000 C 
BRANCH  21  22
ATOM     22  C   UNL     1      -1.630  12.347  18.370  0.00  0.00    +0.000 A 
ATOM     23  C   UNL     1      -2.813  12.321  19.109  0.00  0.00    +0.000 A 
ATOM     24  C   UNL     1      -3.906  11.605  18.631  0.00  0.00    +0.000 A 
ATOM     25  C   UNL     1      -3.773  10.922  17.436  0.00  0.00    +0.000 A 
ATOM     26  N   UNL     1      -2.621  10.857  16.737  0.00  0.00    +0.000 NA
ATOM     27  C   UNL     1      -1.572  11.550  17.230  0.00  0.00    +0.000 A 
ENDBRANCH  21  22
ENDBRANCH  13  21
TORSDOF 4
ENDMDL
MODEL 3
REMARK VINA RESULT:      -7.4      2.596      5.474
REMARK  Name = 
REMARK  4 active torsions:
REMARK  status: ('A' for Active; 'I' for Inactive)
REMARK    1  A    between atoms: C_13  and  C_14
REMARK    2  A    between atoms: C_13  and  C_21
REMARK    3  A    between atoms: C_14  and  C_15
REMARK    4  A    between atoms: C_21  and  C_22
REMARK                            x       y       z     vdW  Elec       q    Type
REMARK                         _______ _______ _______ _____ _____    ______ ____
ROOT
ATOM      1  C   UNL     1       4.887   7.126  16.295  0.00  0.00    +0.000 C 
ATOM      2  C   UNL     1       4.574   5.955  16.864  0.00  0.00    +0.000 C 
ATOM      3  C   UNL     1       3.611   5.788  18.017  0.00  0.00    +0.000 A 
ATOM      4  C   UNL     1       2.889   6.739  18.737  0.00  0.00    +0.000 A 
ATOM      5  C   UNL     1       1.990   6.267  19.705  0.00  0.00    +0.000 A 
ATOM      6  C   UNL     1       1.818   4.894  19.948  0.00  0.00    +0.000 A 
ATOM      7  C   UNL     1       2.557   3.950  19.218  0.00  0.00    +0.000 A 
ATOM      8  C   UNL     1       2.459   2.554  19.327  0.00  0.00    +0.000 A 
ATOM      9  C   UNL     1       3.234   1.721  18.502  0.00  0.00    +0.000 A 
ATOM     10  C   UNL     1       4.116   2.243  17.541  0.00  0.00    +0.000 A 
ATOM     11  C   UNL     1       4.186   3.633  17.442  0.00  0.00    +0.000 A 
ATOM     12  C   UNL     1       3.435   4.439  18.279  0.00  0.00    +0.000 A 
ATOM     13  C   UNL     1       4.980   4.491  16.441  0.00  0.00    +0.000 C 
ENDROOT
BRANCH  13  14
ATOM     14  C   UNL     1       4.516   4.179  14.972  0.00  0.00    +0.000 C 
BRANCH  14  15
ATOM     15  C   UNL     1       5.632   4.144  13.945  0.00  0.00    +0.000 A 
ATOM     16  C   UNL     1       5.578   3.307  12.830  0.00  0.00    +0.000 A 
ATOM     17  C   UNL     1       6.504   3.463  11.803  0.00  0.00    +0.000 A 
ATOM     18  C   UNL     1       7.480   4.437  11.940  0.00  0.00    +0.000 A 
ATOM     19  N   UNL     1       7.621   5.207  13.036  0.00  0.00    +0.000 NA
ATOM     20  C   UNL     1       6.698   5.042  14.009  0.00  0.00    +0.000 A 
ENDBRANCH  14  15
ENDBRANCH  13  14
BRANCH  13  21
ATOM     21  C   UNL     1       6.507   4.209  16.675  0.00  0.00    +0.000 C 
BRANCH  21  22
ATOM     22  C   UNL     1       7.181   5.064  17.717  0.00  0.00    +0.000 A 
ATOM     23  C   UNL     1       7.688   6.327  17.408  0.00  0.00    +0.000 A 
ATOM     24  C   UNL     1       8.124   7.162  18.432  0.00  0.00    +0.000 A 
ATOM     25  C   UNL     1       8.055   6.699  19.732  0.00  0.00    +0.000 A 
ATOM     26  N   UNL     1       7.649   5.456  20.062  0.00  0.00    +0.000 NA
ATOM     27  C   UNL     1       7.245   4.660  19.048  0.00  0.00    +0.000 A 
ENDBRANCH  21  22
ENDBRANCH  13  21
TORSDOF 4
ENDMDL
MODEL 4
REMARK VINA RESULT:      -7.3      5.288      8.453
REMARK  Name = 
REMARK  4 active torsions:
REMARK  status: ('A' for Active; 'I' for Inactive)
REMARK    1  A    between atoms: C_13  and  C_14
REMARK    2  A    between atoms: C_13  and  C_21
REMARK    3  A    between atoms: C_14  and  C_15
REMARK    4  A    between atoms: C_21  and  C_22
REMARK                            x       y       z     vdW  Elec       q    Type
REMARK                         _______ _______ _______ _____ _____    ______ ____
ROOT
ATOM      1  C   UNL     1       1.959  10.791  18.238  0.00  0.00    +0.000 C 
ATOM      2  C   UNL     1       1.077  11.120  19.191  0.00  0.00    +0.000 C 
ATOM      3  C   UNL     1       0.674  10.222  20.338  0.00  0.00    +0.000 A 
ATOM      4  C   UNL     1       1.066   8.920  20.647  0.00  0.00    +0.000 A 
ATOM      5  C   UNL     1       0.588   8.372  21.847  0.00  0.00    +0.000 A 
ATOM      6  C   UNL     1      -0.254   9.097  22.707  0.00  0.00    +0.000 A 
ATOM      7  C   UNL     1      -0.644  10.405  22.378  0.00  0.00    +0.000 A 
ATOM      8  C   UNL     1      -1.444  11.254  23.158  0.00  0.00    +0.000 A 
ATOM      9  C   UNL     1      -1.724  12.561  22.723  0.00  0.00    +0.000 A 
ATOM     10  C   UNL     1      -1.214  13.066  21.515  0.00  0.00    +0.000 A 
ATOM     11  C   UNL     1      -0.411  12.207  20.764  0.00  0.00    +0.000 A 
ATOM     12  C   UNL     1      -0.165  10.916  21.194  0.00  0.00    +0.000 A 
ATOM     13  C   UNL     1       0.355  12.495  19.461  0.00  0.00    +0.000 C 
ENDROOT
BRANCH  13  14
ATOM     14  C   UNL     1       1.400  13.647  19.689  0.00  0.00    +0.000 C 
BRANCH  14  15
ATOM     15  C   UNL     1       1.064  14.957  19.001  0.00  0.00    +0.000 A 
ATOM     16  C   UNL     1      -0.209  15.523  19.080  0.00  0.00    +0.000 A 
ATOM     17  C   UNL     1      -0.416  16.823  18.629  0.00  0.00    +0.000 A 
ATOM     18  C   UNL     1       0.655  17.508  18.081  0.00  0.00    +0.000 A 
ATOM     19  N   UNL     1       1.878  16.969  17.907  0.00  0.00    +0.000 NA
ATOM     20  C   UNL     1       2.052  15.711  18.368  0.00  0.00    +0.000 A 
ENDBRANCH  14  15
ENDBRANCH  13  14
BRANCH  13  21
ATOM     21  C   UNL     1      -0.702  12.836  18.351  0.00  0.00    +0.000 C 
BRANCH  21  22
ATOM     22  C   UNL     1      -1.813  11.834  18.171  0.00  0.00    +0.000 A 
ATOM     23  C   UNL     1      -3.093  12.064  18.678  0.00  0.00    +0.000 A 
ATOM     24  C   UNL     1      -4.135  11.213  18.324  0.00  0.00    +0.000 A 
ATOM     25  C   UNL     1      -3.859  10.148  17.488  0.00  0.00    +0.000 A 
ATOM     26  N   UNL     1      -2.622   9.846  17.045  0.00  0.00    +0.000 NA
ATOM     27  C   UNL     1      -1.625  10.680  17.415  0.00  0.00    +0.000 A 
ENDBRANCH  21  22
ENDBRANCH  13  21
TORSDOF 4
ENDMDL
MODEL 5
REMARK VINA RESULT:      -7.3      5.673      8.436
REMARK  Name = 
REMARK  4 active torsions:
REMARK  status: ('A' for Active; 'I' for Inactive)
REMARK    1  A    between atoms: C_13  and  C_14
REMARK    2  A    between atoms: C_13  and  C_21
REMARK    3  A    between atoms: C_14  and  C_15
REMARK    4  A    between atoms: C_21  and  C_22
REMARK                            x       y       z     vdW  Elec       q    Type
REMARK                         _______ _______ _______ _____ _____    ______ ____
ROOT
ATOM      1  C   UNL     1      -1.107  13.016  18.083  0.00  0.00    +0.000 C 
ATOM      2  C   UNL     1      -0.712  12.143  19.019  0.00  0.00    +0.000 C 
ATOM      3  C   UNL     1      -1.178  12.154  20.456  0.00  0.00    +0.000 A 
ATOM      4  C   UNL     1      -2.042  13.024  21.120  0.00  0.00    +0.000 A 
ATOM      5  C   UNL     1      -2.364  12.720  22.452  0.00  0.00    +0.000 A 
ATOM      6  C   UNL     1      -1.840  11.589  23.099  0.00  0.00    +0.000 A 
ATOM      7  C   UNL     1      -0.966  10.727  22.418  0.00  0.00    +0.000 A 
ATOM      8  C   UNL     1      -0.402   9.546  22.926  0.00  0.00    +0.000 A 
ATOM      9  C   UNL     1       0.429   8.752  22.116  0.00  0.00    +0.000 A 
ATOM     10  C   UNL     1       0.715   9.096  20.785  0.00  0.00    +0.000 A 
ATOM     11  C   UNL     1       0.132  10.267  20.299  0.00  0.00    +0.000 A 
ATOM     12  C   UNL     1      -0.663  11.050  21.116  0.00  0.00    +0.000 A 
ATOM     13  C   UNL     1       0.182  10.852  18.877  0.00  0.00    +0.000 C 
ENDROOT
BRANCH  13  14
ATOM     14  C   UNL     1      -0.445   9.840  17.851  0.00  0.00    +0.000 C 
BRANCH  14  15
ATOM     15  C   UNL     1      -1.877  10.143  17.452  0.00  0.00    +0.000 A 
ATOM     16  C   UNL     1      -2.934  10.011  18.353  0.00  0.00    +0.000 A 
ATOM     17  C   UNL     1      -4.191  10.508  18.021  0.00  0.00    +0.000 A 
ATOM     18  C   UNL     1      -4.359  11.094  16.778  0.00  0.00    +0.000 A 
ATOM     19  N   UNL     1      -3.389  11.164  15.846  0.00  0.00    +0.000 NA
ATOM     20  C   UNL     1      -2.177  10.687  16.203  0.00  0.00    +0.000 A 
ENDBRANCH  14  15
ENDBRANCH  13  14
BRANCH  13  21
ATOM     21  C   UNL     1       1.679  11.202  18.558  0.00  0.00    +0.000 C 
BRANCH  21  22
ATOM     22  C   UNL     1       2.131  12.585  18.953  0.00  0.00    +0.000 A 
ATOM     23  C   UNL     1       2.296  12.943  20.292  0.00  0.00    +0.000 A 
ATOM     24  C   UNL     1       2.899  14.156  20.608  0.00  0.00    +0.000 A 
ATOM     25  C   UNL     1       3.301  14.981  19.574  0.00  0.00    +0.000 A 
ATOM     26  N   UNL     1       3.084  14.706  18.272  0.00  0.00    +0.000 NA
ATOM     27  C   UNL     1       2.484  13.528  17.992  0.00  0.00    +0.000 A 
ENDBRANCH  21  22
ENDBRANCH  13  21
TORSDOF 4
ENDMDL
MODEL 6
REMARK VINA RESULT:      -7.2      5.461      8.421
REMARK  Name = 
REMARK  4 active torsions:
REMARK  status: ('A' for Active; 'I' for Inactive)
REMARK    1  A    between atoms: C_13  and  C_14
REMARK    2  A    between atoms: C_13  and  C_21
REMARK    3  A    between atoms: C_14  and  C_15
REMARK    4  A    between atoms: C_21  and  C_22
REMARK                            x       y       z     vdW  Elec       q    Type
REMARK                         _______ _______ _______ _____ _____    ______ ____
ROOT
ATOM      1  C   UNL     1       2.043  10.950  18.201  0.00  0.00    +0.000 C 
ATOM      2  C   UNL     1       1.167  11.197  19.184  0.00  0.00    +0.000 C 
ATOM      3  C   UNL     1       0.741  10.194  20.230  0.00  0.00    +0.000 A 
ATOM      4  C   UNL     1       1.101   8.857  20.401  0.00  0.00    +0.000 A 
ATOM      5  C   UNL     1       0.608   8.198  21.537  0.00  0.00    +0.000 A 
ATOM      6  C   UNL     1      -0.218   8.848  22.469  0.00  0.00    +0.000 A 
ATOM      7  C   UNL     1      -0.576  10.192  22.279  0.00  0.00    +0.000 A 
ATOM      8  C   UNL     1      -1.358  10.973  23.145  0.00  0.00    +0.000 A 
ATOM      9  C   UNL     1      -1.606  12.325  22.850  0.00  0.00    +0.000 A 
ATOM     10  C   UNL     1      -1.083  12.942  21.702  0.00  0.00    +0.000 A 
ATOM     11  C   UNL     1      -0.299  12.148  20.864  0.00  0.00    +0.000 A 
ATOM     12  C   UNL     1      -0.084  10.813  21.155  0.00  0.00    +0.000 A 
ATOM     13  C   UNL     1       0.477  12.553  19.598  0.00  0.00    +0.000 C 
ENDROOT
BRANCH  13  14
ATOM     14  C   UNL     1       1.548  13.650  19.945  0.00  0.00    +0.000 C 
BRANCH  14  15
ATOM     15  C   UNL     1       1.252  15.029  19.386  0.00  0.00    +0.000 A 
ATOM     16  C   UNL     1       0.245  15.836  19.919  0.00  0.00    +0.000 A 
ATOM     17  C   UNL     1       0.153  17.170  19.531  0.00  0.00    +0.000 A 
ATOM     18  C   UNL     1       1.055  17.647  18.595  0.00  0.00    +0.000 A 
ATOM     19  N   UNL     1       1.985  16.881  17.993  0.00  0.00    +0.000 NA
ATOM     20  C   UNL     1       2.060  15.595  18.400  0.00  0.00    +0.000 A 
ENDBRANCH  14  15
ENDBRANCH  13  14
BRANCH  13  21
ATOM     21  C   UNL     1      -0.570  13.034  18.531  0.00  0.00    +0.000 C 
BRANCH  21  22
ATOM     22  C   UNL     1      -1.641  12.038  18.165  0.00  0.00    +0.000 A 
ATOM     23  C   UNL     1      -1.358  10.915  17.386  0.00  0.00    +0.000 A 
ATOM     24  C   UNL     1      -2.321   9.923  17.235  0.00  0.00    +0.000 A 
ATOM     25  C   UNL     1      -3.545  10.096  17.854  0.00  0.00    +0.000 A 
ATOM     26  N   UNL     1      -3.884  11.204  18.545  0.00  0.00    +0.000 NA
ATOM     27  C   UNL     1      -2.935  12.158  18.664  0.00  0.00    +0.000 A 
ENDBRANCH  21  22
ENDBRANCH  13  21
TORSDOF 4
ENDMDL
MODEL 7
REMARK VINA RESULT:      -7.2      5.125      9.054
REMARK  Name = 
REMARK  4 active torsions:
REMARK  status: ('A' for Active; 'I' for Inactive)
REMARK    1  A    between atoms: C_13  and  C_14
REMARK    2  A    between atoms: C_13  and  C_21
REMARK    3  A    between atoms: C_14  and  C_15
REMARK    4  A    between atoms: C_21  and  C_22
REMARK                            x       y       z     vdW  Elec       q    Type
REMARK                         _______ _______ _______ _____ _____    ______ ____
ROOT
ATOM      1  C   UNL     1      -0.678  13.490  22.378  0.00  0.00    +0.000 C 
ATOM      2  C   UNL     1      -0.053  12.666  21.527  0.00  0.00    +0.000 C 
ATOM      3  C   UNL     1      -0.001  11.162  21.669  0.00  0.00    +0.000 A 
ATOM      4  C   UNL     1      -0.523  10.328  22.657  0.00  0.00    +0.000 A 
ATOM      5  C   UNL     1      -0.394   8.944  22.465  0.00  0.00    +0.000 A 
ATOM      6  C   UNL     1       0.235   8.410  21.329  0.00  0.00    +0.000 A 
ATOM      7  C   UNL     1       0.761   9.264  20.346  0.00  0.00    +0.000 A 
ATOM      8  C   UNL     1       1.378   8.871  19.148  0.00  0.00    +0.000 A 
ATOM      9  C   UNL     1       1.825   9.837  18.230  0.00  0.00    +0.000 A 
ATOM     10  C   UNL     1       1.666  11.213  18.465  0.00  0.00    +0.000 A 
ATOM     11  C   UNL     1       1.038  11.578  19.656  0.00  0.00    +0.000 A 
ATOM     12  C   UNL     1       0.626  10.616  20.561  0.00  0.00    +0.000 A 
ATOM     13  C   UNL     1       0.645  12.982  20.149  0.00  0.00    +0.000 C 
ENDROOT
BRANCH  13  14
ATOM     14  C   UNL     1      -0.364  13.646  19.144  0.00  0.00    +0.000 C 
BRANCH  14  15
ATOM     15  C   UNL     1      -1.532  12.767  18.739  0.00  0.00    +0.000 A 
ATOM     16  C   UNL     1      -1.456  11.902  17.647  0.00  0.00    +0.000 A 
ATOM     17  C   UNL     1      -2.457  10.957  17.443  0.00  0.00    +0.000 A 
ATOM     18  C   UNL     1      -3.524  10.928  18.325  0.00  0.00    +0.000 A 
ATOM     19  N   UNL     1      -3.680  11.800  19.340  0.00  0.00    +0.000 NA
ATOM     20  C   UNL     1      -2.685  12.696  19.521  0.00  0.00    +0.000 A 
ENDBRANCH  14  15
ENDBRANCH  13  14
BRANCH  13  21
ATOM     21  C   UNL     1       1.966  13.811  20.331  0.00  0.00    +0.000 C 
BRANCH  21  22
ATOM     22  C   UNL     1       2.249  14.840  19.266  0.00  0.00    +0.000 A 
ATOM     23  C   UNL     1       1.747  16.139  19.355  0.00  0.00    +0.000 A 
ATOM     24  C   UNL     1       2.190  17.109  18.461  0.00  0.00    +0.000 A 
ATOM     25  C   UNL     1       3.107  16.742  17.494  0.00  0.00    +0.000 A 
ATOM     26  N   UNL     1       3.551  15.480  17.325  0.00  0.00    +0.000 NA
ATOM     27  C   UNL     1       3.095  14.555  18.198  0.00  0.00    +0.000 A 
ENDBRANCH  21  22
ENDBRANCH  13  21
TORSDOF 4
ENDMDL
MODEL 8
REMARK VINA RESULT:      -7.1      5.989      9.128
REMARK  Name = 
REMARK  4 active torsions:
REMARK  status: ('A' for Active; 'I' for Inactive)
REMARK    1  A    between atoms: C_13  and  C_14
REMARK    2  A    between atoms: C_13  and  C_21
REMARK    3  A    between atoms: C_14  and  C_15
REMARK    4  A    between atoms: C_21  and  C_22
REMARK                            x       y       z     vdW  Elec       q    Type
REMARK                         _______ _______ _______ _____ _____    ______ ____
ROOT
ATOM      1  C   UNL     1       1.827  11.868  18.882  0.00  0.00    +0.000 C 
ATOM      2  C   UNL     1       0.772  11.988  19.698  0.00  0.00    +0.000 C 
ATOM      3  C   UNL     1       0.463  11.056  20.847  0.00  0.00    +0.000 A 
ATOM      4  C   UNL     1       1.129   9.913  21.289  0.00  0.00    +0.000 A 
ATOM      5  C   UNL     1       0.651   9.302  22.458  0.00  0.00    +0.000 A 
ATOM      6  C   UNL     1      -0.453   9.810  23.161  0.00  0.00    +0.000 A 
ATOM      7  C   UNL     1      -1.117  10.958  22.699  0.00  0.00    +0.000 A 
ATOM      8  C   UNL     1      -2.203  11.596  23.318  0.00  0.00    +0.000 A 
ATOM      9  C   UNL     1      -2.748  12.768  22.765  0.00  0.00    +0.000 A 
ATOM     10  C   UNL     1      -2.228  13.346  21.595  0.00  0.00    +0.000 A 
ATOM     11  C   UNL     1      -1.140  12.702  21.005  0.00  0.00    +0.000 A 
ATOM     12  C   UNL     1      -0.631  11.535  21.548  0.00  0.00    +0.000 A 
ATOM     13  C   UNL     1      -0.306  13.135  19.786  0.00  0.00    +0.000 C 
ENDROOT
BRANCH  13  14
ATOM     14  C   UNL     1       0.370  14.527  20.058  0.00  0.00    +0.000 C 
BRANCH  14  15
ATOM     15  C   UNL     1      -0.338  15.713  19.431  0.00  0.00    +0.000 A 
ATOM     16  C   UNL     1      -1.460  16.295  20.023  0.00  0.00    +0.000 A 
ATOM     17  C   UNL     1      -1.943  17.508  19.542  0.00  0.00    +0.000 A 
ATOM     18  C   UNL     1      -1.305  18.087  18.458  0.00  0.00    +0.000 A 
ATOM     19  N   UNL     1      -0.275  17.517  17.803  0.00  0.00    +0.000 NA
ATOM     20  C   UNL     1       0.181  16.348  18.303  0.00  0.00    +0.000 A 
ENDBRANCH  14  15
ENDBRANCH  13  14
BRANCH  13  21
ATOM     21  C   UNL     1      -1.259  13.148  18.538  0.00  0.00    +0.000 C 
BRANCH  21  22
ATOM     22  C   UNL     1      -1.999  11.865  18.261  0.00  0.00    +0.000 A 
ATOM     23  C   UNL     1      -3.350  11.719  18.577  0.00  0.00    +0.000 A 
ATOM     24  C   UNL     1      -4.044  10.599  18.130  0.00  0.00    +0.000 A 
ATOM     25  C   UNL     1      -3.357   9.650  17.395  0.00  0.00    +0.000 A 
ATOM     26  N   UNL     1      -2.034   9.716  17.142  0.00  0.00    +0.000 NA
ATOM     27  C   UNL     1      -1.381  10.807  17.599  0.00  0.00    +0.000 A 
ENDBRANCH  21  22
ENDBRANCH  13  21
TORSDOF 4
ENDMDL
MODEL 9
REMARK VINA RESULT:      -7.1      2.834      5.539
REMARK  Name = 
REMARK  4 active torsions:
REMARK  status: ('A' for Active; 'I' for Inactive)
REMARK    1  A    between atoms: C_13  and  C_14
REMARK    2  A    between atoms: C_13  and  C_21
REMARK    3  A    between atoms: C_14  and  C_15
REMARK    4  A    between atoms: C_21  and  C_22
REMARK                            x       y       z     vdW  Elec       q    Type
REMARK                         _______ _______ _______ _____ _____    ______ ____
ROOT
ATOM      1  C   UNL     1       4.473   7.171  16.771  0.00  0.00    +0.000 C 
ATOM      2  C   UNL     1       4.283   5.933  17.245  0.00  0.00    +0.000 C 
ATOM      3  C   UNL     1       3.345   5.577  18.374  0.00  0.00    +0.000 A 
ATOM      4  C   UNL     1       2.530   6.390  19.162  0.00  0.00    +0.000 A 
ATOM      5  C   UNL     1       1.685   5.753  20.084  0.00  0.00    +0.000 A 
ATOM      6  C   UNL     1       1.656   4.355  20.217  0.00  0.00    +0.000 A 
ATOM      7  C   UNL     1       2.487   3.552  19.421  0.00  0.00    +0.000 A 
ATOM      8  C   UNL     1       2.534   2.149  19.420  0.00  0.00    +0.000 A 
ATOM      9  C   UNL     1       3.389   1.468  18.536  0.00  0.00    +0.000 A 
ATOM     10  C   UNL     1       4.211   2.152  17.625  0.00  0.00    +0.000 A 
ATOM     11  C   UNL     1       4.137   3.545  17.636  0.00  0.00    +0.000 A 
ATOM     12  C   UNL     1       3.309   4.202  18.529  0.00  0.00    +0.000 A 
ATOM     13  C   UNL     1       4.837   4.557  16.710  0.00  0.00    +0.000 C 
ENDROOT
BRANCH  13  14
ATOM     14  C   UNL     1       4.405   4.315  15.219  0.00  0.00    +0.000 C 
BRANCH  14  15
ATOM     15  C   UNL     1       5.550   4.262  14.224  0.00  0.00    +0.000 A 
ATOM     16  C   UNL     1       5.538   3.386  13.138  0.00  0.00    +0.000 A 
ATOM     17  C   UNL     1       6.491   3.521  12.132  0.00  0.00    +0.000 A 
ATOM     18  C   UNL     1       7.449   4.513  12.262  0.00  0.00    +0.000 A 
ATOM     19  N   UNL     1       7.548   5.322  13.334  0.00  0.00    +0.000 NA
ATOM     20  C   UNL     1       6.601   5.176  14.287  0.00  0.00    +0.000 A 
ENDBRANCH  14  15
ENDBRANCH  13  14
BRANCH  13  21
ATOM     21  C   UNL     1       6.385   4.415  16.932  0.00  0.00    +0.000 C 
BRANCH  21  22
ATOM     22  C   UNL     1       7.026   5.473  17.794  0.00  0.00    +0.000 A 
ATOM     23  C   UNL     1       7.370   5.221  19.123  0.00  0.00    +0.000 A 
ATOM     24  C   UNL     1       8.133   6.149  19.823  0.00  0.00    +0.000 A 
ATOM     25  C   UNL     1       8.512   7.311  19.175  0.00  0.00    +0.000 A 
ATOM     26  N   UNL     1       8.129   7.626  17.921  0.00  0.00    +0.000 NA
ATOM     27  C   UNL     1       7.376   6.713  17.269  0.00  0.00    +0.000 A 
ENDBRANCH  21  22
ENDBRANCH  13  21
TORSDOF 4
ENDMDL
