MODEL 1
REMARK VINA RESULT:      -6.9      0.000      0.000
REMARK  Name = 
REMARK  2 active torsions:
REMARK  status: ('A' for Active; 'I' for Inactive)
REMARK    1  A    between atoms: C_4  and  C_5
REMARK    2  A    between atoms: C_14  and  C_15
REMARK                            x       y       z     vdW  Elec       q    Type
REMARK                         _______ _______ _______ _____ _____    ______ ____
ROOT
ATOM      1  O   UNL     1       2.751   8.133  17.052  0.00  0.00    +0.000 OA
ATOM      2  C   UNL     1       2.275   8.244  18.179  0.00  0.00    +0.000 C 
ATOM      3  C   UNL     1       1.565   9.496  18.539  0.00  0.00    +0.000 C 
ATOM      4  C   UNL     1       0.962   9.694  19.724  0.00  0.00    +0.000 C 
ATOM      5  C   UNL     1       1.094   8.609  20.749  0.00  0.00    +0.000 C 
ATOM      6  O   UNL     1       0.582   8.690  21.860  0.00  0.00    +0.000 OA
ATOM      7  C   UNL     1       1.814   7.365  20.390  0.00  0.00    +0.000 C 
ATOM      8  C   UNL     1       2.344   7.135  19.182  0.00  0.00    +0.000 C 
ENDROOT
BRANCH   4   9
ATOM      9  C   UNL     1       0.013  10.848  20.077  0.00  0.00    +0.000 C 
ATOM     10  C   UNL     1       0.724  12.196  20.328  0.00  0.00    +0.000 C 
ATOM     11  C   UNL     1       0.799  13.110  19.114  0.00  0.00    +0.000 C 
ATOM     12  C   UNL     1      -0.594  13.386  18.579  0.00  0.00    +0.000 C 
ATOM     13  C   UNL     1      -1.235  12.086  18.121  0.00  0.00    +0.000 C 
ATOM     14  C   UNL     1      -1.277  11.027  19.226  0.00  0.00    +0.000 C 
ENDBRANCH   4   9
BRANCH   8  15
ATOM     15  C   UNL     1       2.886   5.793  18.673  0.00  0.00    +0.000 C 
ATOM     16  C   UNL     1       3.689   5.008  19.735  0.00  0.00    +0.000 C 
ATOM     17  C   UNL     1       2.958   3.843  20.391  0.00  0.00    +0.000 C 
ATOM     18  C   UNL     1       2.346   2.924  19.350  0.00  0.00    +0.000 C 
ATOM     19  C   UNL     1       1.311   3.695  18.547  0.00  0.00    +0.000 C 
ATOM     20  C   UNL     1       1.922   4.902  17.839  0.00  0.00    +0.000 C 
ENDBRANCH   8  15
TORSDOF 2
ENDMDL
MODEL 2
REMARK VINA RESULT:      -6.9      0.125      6.982
REMARK  Name = 
REMARK  2 active torsions:
REMARK  status: ('A' for Active; 'I' for Inactive)
REMARK    1  A    between atoms: C_4  and  C_5
REMARK    2  A    between atoms: C_14  and  C_15
REMARK                            x       y       z     vdW  Elec       q    Type
REMARK                         _______ _______ _______ _____ _____    ______ ____
ROOT
ATOM      1  O   UNL     1       0.575   8.673  21.884  0.00  0.00    +0.000 OA
ATOM      2  C   UNL     1       1.088   8.599  20.771  0.00  0.00    +0.000 C 
ATOM      3  C   UNL     1       1.817   7.362  20.395  0.00  0.00    +0.000 C 
ATOM      4  C   UNL     1       2.364   7.160  19.184  0.00  0.00    +0.000 C 
ATOM      5  C   UNL     1       2.290   8.291  18.203  0.00  0.00    +0.000 C 
ATOM      6  O   UNL     1       2.758   8.210  17.072  0.00  0.00    +0.000 OA
ATOM      7  C   UNL     1       1.573   9.529  18.585  0.00  0.00    +0.000 C 
ATOM      8  C   UNL     1       0.957   9.698  19.762  0.00  0.00    +0.000 C 
ENDROOT
BRANCH   4   9
ATOM      9  C   UNL     1       2.914   5.831  18.647  0.00  0.00    +0.000 C 
ATOM     10  C   UNL     1       3.735   5.025  19.678  0.00  0.00    +0.000 C 
ATOM     11  C   UNL     1       2.942   3.973  20.438  0.00  0.00    +0.000 C 
ATOM     12  C   UNL     1       2.292   3.004  19.468  0.00  0.00    +0.000 C 
ATOM     13  C   UNL     1       1.308   3.749  18.579  0.00  0.00    +0.000 C 
ATOM     14  C   UNL     1       1.957   4.916  17.830  0.00  0.00    +0.000 C 
ENDBRANCH   4   9
BRANCH   8  15
ATOM     15  C   UNL     1       0.004  10.844  20.128  0.00  0.00    +0.000 C 
ATOM     16  C   UNL     1       0.730  12.165  20.468  0.00  0.00    +0.000 C 
ATOM     17  C   UNL     1       0.714  13.229  19.376  0.00  0.00    +0.000 C 
ATOM     18  C   UNL     1      -0.695  13.471  18.866  0.00  0.00    +0.000 C 
ATOM     19  C   UNL     1      -1.227  12.192  18.240  0.00  0.00    +0.000 C 
ATOM     20  C   UNL     1      -1.257  11.037  19.238  0.00  0.00    +0.000 C 
ENDBRANCH   8  15
TORSDOF 2
ENDMDL
MODEL 3
REMARK VINA RESULT:      -6.7      0.877      7.039
REMARK  Name = 
REMARK  2 active torsions:
REMARK  status: ('A' for Active; 'I' for Inactive)
REMARK    1  A    between atoms: C_4  and  C_5
REMARK    2  A    between atoms: C_14  and  C_15
REMARK                            x       y       z     vdW  Elec       q    Type
REMARK                         _______ _______ _______ _____ _____    ______ ____
ROOT
ATOM      1  O   UNL     1       0.887   8.300  21.508  0.00  0.00    +0.000 OA
ATOM      2  C   UNL     1       1.383   8.322  20.385  0.00  0.00    +0.000 C 
ATOM      3  C   UNL     1       2.133   7.134  19.907  0.00  0.00    +0.000 C 
ATOM      4  C   UNL     1       2.665   7.036  18.676  0.00  0.00    +0.000 C 
ATOM      5  C   UNL     1       2.547   8.235  17.783  0.00  0.00    +0.000 C 
ATOM      6  O   UNL     1       2.997   8.249  16.643  0.00  0.00    +0.000 OA
ATOM      7  C   UNL     1       1.808   9.423  18.268  0.00  0.00    +0.000 C 
ATOM      8  C   UNL     1       1.209   9.489  19.463  0.00  0.00    +0.000 C 
ENDROOT
BRANCH   4   9
ATOM      9  C   UNL     1       3.236   5.765  18.033  0.00  0.00    +0.000 C 
ATOM     10  C   UNL     1       4.770   5.635  18.146  0.00  0.00    +0.000 C 
ATOM     11  C   UNL     1       5.252   4.814  19.333  0.00  0.00    +0.000 C 
ATOM     12  C   UNL     1       4.647   3.423  19.290  0.00  0.00    +0.000 C 
ATOM     13  C   UNL     1       3.133   3.518  19.397  0.00  0.00    +0.000 C 
ATOM     14  C   UNL     1       2.520   4.412  18.316  0.00  0.00    +0.000 C 
ENDBRANCH   4   9
BRANCH   8  15
ATOM     15  C   UNL     1       0.236  10.581  19.928  0.00  0.00    +0.000 C 
ATOM     16  C   UNL     1       0.907  11.958  20.136  0.00  0.00    +0.000 C 
ATOM     17  C   UNL     1       0.671  12.982  19.032  0.00  0.00    +0.000 C 
ATOM     18  C   UNL     1      -0.807  13.114  18.713  0.00  0.00    +0.000 C 
ATOM     19  C   UNL     1      -1.328  11.783  18.194  0.00  0.00    +0.000 C 
ATOM     20  C   UNL     1      -1.144  10.662  19.215  0.00  0.00    +0.000 C 
ENDBRANCH   8  15
TORSDOF 2
ENDMDL
MODEL 4
REMARK VINA RESULT:      -6.5      1.823      6.790
REMARK  Name = 
REMARK  2 active torsions:
REMARK  status: ('A' for Active; 'I' for Inactive)
REMARK    1  A    between atoms: C_4  and  C_5
REMARK    2  A    between atoms: C_14  and  C_15
REMARK                            x       y       z     vdW  Elec       q    Type
REMARK                         _______ _______ _______ _____ _____    ______ ____
ROOT
ATOM      1  O   UNL     1       2.358   9.586  17.236  0.00  0.00    +0.000 OA
ATOM      2  C   UNL     1       2.247   8.716  18.096  0.00  0.00    +0.000 C 
ATOM      3  C   UNL     1       2.911   7.406  17.883  0.00  0.00    +0.000 C 
ATOM      4  C   UNL     1       2.896   6.410  18.787  0.00  0.00    +0.000 C 
ATOM      5  C   UNL     1       2.095   6.630  20.034  0.00  0.00    +0.000 C 
ATOM      6  O   UNL     1       2.017   5.786  20.920  0.00  0.00    +0.000 OA
ATOM      7  C   UNL     1       1.424   7.935  20.237  0.00  0.00    +0.000 C 
ATOM      8  C   UNL     1       1.506   8.955  19.375  0.00  0.00    +0.000 C 
ENDROOT
BRANCH   4   9
ATOM      9  C   UNL     1       3.750   5.135  18.745  0.00  0.00    +0.000 C 
ATOM     10  C   UNL     1       3.699   4.384  17.396  0.00  0.00    +0.000 C 
ATOM     11  C   UNL     1       4.823   4.734  16.432  0.00  0.00    +0.000 C 
ATOM     12  C   UNL     1       6.170   4.477  17.081  0.00  0.00    +0.000 C 
ATOM     13  C   UNL     1       6.332   5.372  18.299  0.00  0.00    +0.000 C 
ATOM     14  C   UNL     1       5.198   5.200  19.313  0.00  0.00    +0.000 C 
ENDBRANCH   4   9
BRANCH   8  15
ATOM     15  C   UNL     1       1.042  10.395  19.630  0.00  0.00    +0.000 C 
ATOM     16  C   UNL     1      -0.093  10.855  18.688  0.00  0.00    +0.000 C 
ATOM     17  C   UNL     1      -1.490  10.876  19.295  0.00  0.00    +0.000 C 
ATOM     18  C   UNL     1      -1.505  11.632  20.611  0.00  0.00    +0.000 C 
ATOM     19  C   UNL     1      -0.604  10.920  21.608  0.00  0.00    +0.000 C 
ATOM     20  C   UNL     1       0.836  10.828  21.110  0.00  0.00    +0.000 C 
ENDBRANCH   8  15
TORSDOF 2
ENDMDL
MODEL 5
REMARK VINA RESULT:      -6.5      1.452      2.828
REMARK  Name = 
REMARK  2 active torsions:
REMARK  status: ('A' for Active; 'I' for Inactive)
REMARK    1  A    between atoms: C_4  and  C_5
REMARK    2  A    between atoms: C_14  and  C_15
REMARK                            x       y       z     vdW  Elec       q    Type
REMARK                         _______ _______ _______ _____ _____    ______ ____
ROOT
ATOM      1  O   UNL     1       1.516   6.495  21.248  0.00  0.00    +0.000 OA
ATOM      2  C   UNL     1       1.670   7.257  20.297  0.00  0.00    +0.000 C 
ATOM      3  C   UNL     1       1.089   8.620  20.365  0.00  0.00    +0.000 C 
ATOM      4  C   UNL     1       1.249   9.546  19.403  0.00  0.00    +0.000 C 
ATOM      5  C   UNL     1       1.991   9.129  18.170  0.00  0.00    +0.000 C 
ATOM      6  O   UNL     1       2.192   9.896  17.235  0.00  0.00    +0.000 OA
ATOM      7  C   UNL     1       2.560   7.763  18.100  0.00  0.00    +0.000 C 
ATOM      8  C   UNL     1       2.470   6.869  19.092  0.00  0.00    +0.000 C 
ENDROOT
BRANCH   4   9
ATOM      9  C   UNL     1       0.890  11.035  19.509  0.00  0.00    +0.000 C 
ATOM     10  C   UNL     1      -0.402  11.427  18.760  0.00  0.00    +0.000 C 
ATOM     11  C   UNL     1      -1.656  11.437  19.621  0.00  0.00    +0.000 C 
ATOM     12  C   UNL     1      -1.475  12.372  20.803  0.00  0.00    +0.000 C 
ATOM     13  C   UNL     1      -0.335  11.876  21.679  0.00  0.00    +0.000 C 
ATOM     14  C   UNL     1       0.977  11.715  20.906  0.00  0.00    +0.000 C 
ENDBRANCH   4   9
BRANCH   8  15
ATOM     15  C   UNL     1       3.231   5.539  19.183  0.00  0.00    +0.000 C 
ATOM     16  C   UNL     1       2.385   4.314  18.768  0.00  0.00    +0.000 C 
ATOM     17  C   UNL     1       2.667   3.754  17.379  0.00  0.00    +0.000 C 
ATOM     18  C   UNL     1       4.152   3.512  17.177  0.00  0.00    +0.000 C 
ATOM     19  C   UNL     1       4.893   4.836  17.275  0.00  0.00    +0.000 C 
ATOM     20  C   UNL     1       4.685   5.507  18.631  0.00  0.00    +0.000 C 
ENDBRANCH   8  15
TORSDOF 2
ENDMDL
MODEL 6
REMARK VINA RESULT:      -6.5      1.463      6.822
REMARK  Name = 
REMARK  2 active torsions:
REMARK  status: ('A' for Active; 'I' for Inactive)
REMARK    1  A    between atoms: C_4  and  C_5
REMARK    2  A    between atoms: C_14  and  C_15
REMARK                            x       y       z     vdW  Elec       q    Type
REMARK                         _______ _______ _______ _____ _____    ______ ____
ROOT
ATOM      1  O   UNL     1       2.184   9.797  17.207  0.00  0.00    +0.000 OA
ATOM      2  C   UNL     1       2.007   9.038  18.156  0.00  0.00    +0.000 C 
ATOM      3  C   UNL     1       2.607   7.682  18.114  0.00  0.00    +0.000 C 
ATOM      4  C   UNL     1       2.519   6.798  19.123  0.00  0.00    +0.000 C 
ATOM      5  C   UNL     1       1.700   7.198  20.312  0.00  0.00    +0.000 C 
ATOM      6  O   UNL     1       1.556   6.466  21.286  0.00  0.00    +0.000 OA
ATOM      7  C   UNL     1       1.092   8.549  20.347  0.00  0.00    +0.000 C 
ATOM      8  C   UNL     1       1.249   9.458  19.377  0.00  0.00    +0.000 C 
ENDROOT
BRANCH   4   9
ATOM      9  C   UNL     1       3.307   5.487  19.252  0.00  0.00    +0.000 C 
ATOM     10  C   UNL     1       2.520   4.232  18.813  0.00  0.00    +0.000 C 
ATOM     11  C   UNL     1       2.755   3.808  17.371  0.00  0.00    +0.000 C 
ATOM     12  C   UNL     1       4.233   3.566  17.129  0.00  0.00    +0.000 C 
ATOM     13  C   UNL     1       5.007   4.856  17.347  0.00  0.00    +0.000 C 
ATOM     14  C   UNL     1       4.775   5.457  18.736  0.00  0.00    +0.000 C 
ENDBRANCH   4   9
BRANCH   8  15
ATOM     15  C   UNL     1       0.854  10.939  19.454  0.00  0.00    +0.000 C 
ATOM     16  C   UNL     1      -0.459  11.267  18.707  0.00  0.00    +0.000 C 
ATOM     17  C   UNL     1      -1.691  11.457  19.584  0.00  0.00    +0.000 C 
ATOM     18  C   UNL     1      -1.417  12.439  20.709  0.00  0.00    +0.000 C 
ATOM     19  C   UNL     1      -0.321  11.882  21.604  0.00  0.00    +0.000 C 
ATOM     20  C   UNL     1       0.976  11.641  20.836  0.00  0.00    +0.000 C 
ENDBRANCH   8  15
TORSDOF 2
ENDMDL
MODEL 7
REMARK VINA RESULT:      -6.5      1.778      3.213
REMARK  Name = 
REMARK  2 active torsions:
REMARK  status: ('A' for Active; 'I' for Inactive)
REMARK    1  A    between atoms: C_4  and  C_5
REMARK    2  A    between atoms: C_14  and  C_15
REMARK                            x       y       z     vdW  Elec       q    Type
REMARK                         _______ _______ _______ _____ _____    ______ ____
ROOT
ATOM      1  O   UNL     1       1.933   5.912  20.904  0.00  0.00    +0.000 OA
ATOM      2  C   UNL     1       2.022   6.769  20.029  0.00  0.00    +0.000 C 
ATOM      3  C   UNL     1       1.381   8.089  20.248  0.00  0.00    +0.000 C 
ATOM      4  C   UNL     1       1.467   9.111  19.379  0.00  0.00    +0.000 C 
ATOM      5  C   UNL     1       2.188   8.854  18.091  0.00  0.00    +0.000 C 
ATOM      6  O   UNL     1       2.323   9.718  17.231  0.00  0.00    +0.000 OA
ATOM      7  C   UNL     1       2.816   7.531  17.869  0.00  0.00    +0.000 C 
ATOM      8  C   UNL     1       2.800   6.541  18.771  0.00  0.00    +0.000 C 
ENDROOT
BRANCH   4   9
ATOM      9  C   UNL     1       1.043  10.563  19.642  0.00  0.00    +0.000 C 
ATOM     10  C   UNL     1      -0.110  11.058  18.740  0.00  0.00    +0.000 C 
ATOM     11  C   UNL     1      -1.496  10.925  19.353  0.00  0.00    +0.000 C 
ATOM     12  C   UNL     1      -1.559  11.667  20.675  0.00  0.00    +0.000 C 
ATOM     13  C   UNL     1      -0.576  11.050  21.657  0.00  0.00    +0.000 C 
ATOM     14  C   UNL     1       0.857  11.020  21.118  0.00  0.00    +0.000 C 
ENDBRANCH   4   9
BRANCH   8  15
ATOM     15  C   UNL     1       3.624   5.248  18.708  0.00  0.00    +0.000 C 
ATOM     16  C   UNL     1       3.577   4.552  17.328  0.00  0.00    +0.000 C 
ATOM     17  C   UNL     1       4.809   4.735  16.452  0.00  0.00    +0.000 C 
ATOM     18  C   UNL     1       6.078   4.398  17.213  0.00  0.00    +0.000 C 
ATOM     19  C   UNL     1       6.228   5.355  18.385  0.00  0.00    +0.000 C 
ATOM     20  C   UNL     1       5.043   5.272  19.344  0.00  0.00    +0.000 C 
ENDBRANCH   8  15
TORSDOF 2
ENDMDL
MODEL 8
REMARK VINA RESULT:      -6.4      1.108      6.869
REMARK  Name = 
REMARK  2 active torsions:
REMARK  status: ('A' for Active; 'I' for Inactive)
REMARK    1  A    between atoms: C_4  and  C_5
REMARK    2  A    between atoms: C_14  and  C_15
REMARK                            x       y       z     vdW  Elec       q    Type
REMARK                         _______ _______ _______ _____ _____    ______ ____
ROOT
ATOM      1  O   UNL     1       0.617   9.008  20.800  0.00  0.00    +0.000 OA
ATOM      2  C   UNL     1       1.352   8.461  19.983  0.00  0.00    +0.000 C 
ATOM      3  C   UNL     1       1.851   7.092  20.266  0.00  0.00    +0.000 C 
ATOM      4  C   UNL     1       2.613   6.387  19.412  0.00  0.00    +0.000 C 
ATOM      5  C   UNL     1       3.033   7.071  18.146  0.00  0.00    +0.000 C 
ATOM      6  O   UNL     1       3.728   6.517  17.301  0.00  0.00    +0.000 OA
ATOM      7  C   UNL     1       2.544   8.442  17.872  0.00  0.00    +0.000 C 
ATOM      8  C   UNL     1       1.718   9.112  18.685  0.00  0.00    +0.000 C 
ENDROOT
BRANCH   4   9
ATOM      9  C   UNL     1       2.960   4.896  19.525  0.00  0.00    +0.000 C 
ATOM     10  C   UNL     1       2.528   4.247  20.858  0.00  0.00    +0.000 C 
ATOM     11  C   UNL     1       1.173   3.555  20.817  0.00  0.00    +0.000 C 
ATOM     12  C   UNL     1       1.157   2.496  19.731  0.00  0.00    +0.000 C 
ATOM     13  C   UNL     1       1.367   3.149  18.374  0.00  0.00    +0.000 C 
ATOM     14  C   UNL     1       2.655   3.975  18.309  0.00  0.00    +0.000 C 
ENDBRANCH   4   9
BRANCH   8  15
ATOM     15  C   UNL     1       0.990  10.422  18.354  0.00  0.00    +0.000 C 
ATOM     16  C   UNL     1      -0.495  10.223  17.975  0.00  0.00    +0.000 C 
ATOM     17  C   UNL     1      -1.508  10.572  19.060  0.00  0.00    +0.000 C 
ATOM     18  C   UNL     1      -1.247  11.954  19.629  0.00  0.00    +0.000 C 
ATOM     19  C   UNL     1       0.124  11.976  20.286  0.00  0.00    +0.000 C 
ATOM     20  C   UNL     1       1.235  11.635  19.296  0.00  0.00    +0.000 C 
ENDBRANCH   8  15
TORSDOF 2
ENDMDL
MODEL 9
REMARK VINA RESULT:      -6.4      2.551      4.260
REMARK  Name = 
REMARK  2 active torsions:
REMARK  status: ('A' for Active; 'I' for Inactive)
REMARK    1  A    between atoms: C_4  and  C_5
REMARK    2  A    between atoms: C_14  and  C_15
REMARK                            x       y       z     vdW  Elec       q    Type
REMARK                         _______ _______ _______ _____ _____    ______ ____
ROOT
ATOM      1  O   UNL     1       3.039   4.527  20.358  0.00  0.00    +0.000 OA
ATOM      2  C   UNL     1       2.887   5.554  19.702  0.00  0.00    +0.000 C 
ATOM      3  C   UNL     1       2.059   6.650  20.264  0.00  0.00    +0.000 C 
ATOM      4  C   UNL     1       1.877   7.833  19.652  0.00  0.00    +0.000 C 
ATOM      5  C   UNL     1       2.489   8.002  18.295  0.00  0.00    +0.000 C 
ATOM      6  O   UNL     1       2.383   9.041  17.653  0.00  0.00    +0.000 OA
ATOM      7  C   UNL     1       3.305   6.902  17.731  0.00  0.00    +0.000 C 
ATOM      8  C   UNL     1       3.553   5.756  18.377  0.00  0.00    +0.000 C 
ENDROOT
BRANCH   4   9
ATOM      9  C   UNL     1       1.244   9.087  20.272  0.00  0.00    +0.000 C 
ATOM     10  C   UNL     1      -0.296   9.029  20.382  0.00  0.00    +0.000 C 
ATOM     11  C   UNL     1      -0.818   8.543  21.726  0.00  0.00    +0.000 C 
ATOM     12  C   UNL     1      -0.283   9.418  22.845  0.00  0.00    +0.000 C 
ATOM     13  C   UNL     1       1.234   9.318  22.892  0.00  0.00    +0.000 C 
ATOM     14  C   UNL     1       1.892   9.679  21.557  0.00  0.00    +0.000 C 
ENDBRANCH   4   9
BRANCH   8  15
ATOM     15  C   UNL     1       4.573   4.687  17.961  0.00  0.00    +0.000 C 
ATOM     16  C   UNL     1       4.509   4.323  16.460  0.00  0.00    +0.000 C 
ATOM     17  C   UNL     1       5.602   4.925  15.586  0.00  0.00    +0.000 C 
ATOM     18  C   UNL     1       6.977   4.668  16.173  0.00  0.00    +0.000 C 
ATOM     19  C   UNL     1       7.078   5.347  17.530  0.00  0.00    +0.000 C 
ATOM     20  C   UNL     1       6.023   4.830  18.505  0.00  0.00    +0.000 C 
ENDBRANCH   8  15
TORSDOF 2
ENDMDL
