MODEL 1
REMARK VINA RESULT:      -6.1      0.000      0.000
REMARK  Name = 
REMARK  5 active torsions:
REMARK  status: ('A' for Active; 'I' for Inactive)
REMARK    1  A    between atoms: C_1  and  N_2
REMARK    2  A    between atoms: N_2  and  C_3
REMARK    3  A    between atoms: C_3  and  C_4
REMARK    4  A    between atoms: N_6  and  C_7
REMARK    5  A    between atoms: C_10  and  N_11
REMARK                            x       y       z     vdW  Elec       q    Type
REMARK                         _______ _______ _______ _____ _____    ______ ____
ROOT
ATOM      1  C   UNL     1       5.673   6.668  17.093  0.00  0.00    +0.000 A 
ATOM      2  C   UNL     1       5.963   5.387  16.627  0.00  0.00    +0.000 A 
ATOM      3  C   UNL     1       5.026   4.359  16.714  0.00  0.00    +0.000 A 
ATOM      4  C   UNL     1       3.762   4.566  17.264  0.00  0.00    +0.000 A 
ATOM      5  C   UNL     1       3.476   5.860  17.731  0.00  0.00    +0.000 A 
ATOM      6  C   UNL     1       4.426   6.899  17.669  0.00  0.00    +0.000 A 
ENDROOT
BRANCH   4   7
ATOM      7  N   UNL     1       2.844   3.537  17.394  0.00  0.00    +0.000 N 
ATOM      8  C   UNL     1       1.454   3.796  17.809  0.00  0.00    +0.000 C 
ATOM      9  C   UNL     1       1.175   3.275  19.225  0.00  0.00    +0.000 C 
ATOM     10  O   UNL     1       1.549   1.896  19.362  0.00  0.00    +0.000 OA
ATOM     11  C   UNL     1       2.955   1.746  19.107  0.00  0.00    +0.000 C 
ATOM     12  C   UNL     1       3.329   2.176  17.677  0.00  0.00    +0.000 C 
ENDBRANCH   4   7
BRANCH   1  15
ATOM     13  C   UNL     1       7.728   7.849  17.844  0.00  0.00    +0.000 C 
ATOM     14  O   UNL     1       8.142   7.027  18.657  0.00  0.00    +0.000 OA
ATOM     15  N   UNL     1       6.621   7.711  17.017  0.00  0.00    +0.000 N 
ATOM     16  H   UNL     1       6.491   8.417  16.306  0.00  0.00    +0.000 HD
BRANCH  13  17
ATOM     17  C   UNL     1       8.481   9.165  17.653  0.00  0.00    +0.000 C 
BRANCH  17  19
ATOM     18  C   UNL     1       9.525  11.062  18.746  0.00  0.00    +0.000 C 
ATOM     19  N   UNL     1       8.936   9.734  18.936  0.00  0.00    +0.000 NA
ATOM     20  H   UNL     1       8.114   9.842  19.532  0.00  0.00    +0.000 HD
ENDBRANCH  17  19
ENDBRANCH  13  17
ENDBRANCH   1  15
TORSDOF 4
ENDMDL
MODEL 2
REMARK VINA RESULT:      -6.0      0.112      1.130
REMARK  Name = 
REMARK  5 active torsions:
REMARK  status: ('A' for Active; 'I' for Inactive)
REMARK    1  A    between atoms: C_1  and  N_2
REMARK    2  A    between atoms: N_2  and  C_3
REMARK    3  A    between atoms: C_3  and  C_4
REMARK    4  A    between atoms: N_6  and  C_7
REMARK    5  A    between atoms: C_10  and  N_11
REMARK                            x       y       z     vdW  Elec       q    Type
REMARK                         _______ _______ _______ _____ _____    ______ ____
ROOT
ATOM      1  C   UNL     1       5.678   6.735  17.153  0.00  0.00    +0.000 A 
ATOM      2  C   UNL     1       4.459   6.912  17.805  0.00  0.00    +0.000 A 
ATOM      3  C   UNL     1       3.532   5.876  17.892  0.00  0.00    +0.000 A 
ATOM      4  C   UNL     1       3.783   4.621  17.340  0.00  0.00    +0.000 A 
ATOM      5  C   UNL     1       5.014   4.449  16.686  0.00  0.00    +0.000 A 
ATOM      6  C   UNL     1       5.947   5.498  16.571  0.00  0.00    +0.000 A 
ENDROOT
BRANCH   4   7
ATOM      7  N   UNL     1       2.846   3.602  17.386  0.00  0.00    +0.000 N 
ATOM      8  C   UNL     1       1.450   3.861  17.786  0.00  0.00    +0.000 C 
ATOM      9  C   UNL     1       1.129   3.258  19.160  0.00  0.00    +0.000 C 
ATOM     10  O   UNL     1       1.478   1.867  19.219  0.00  0.00    +0.000 OA
ATOM     11  C   UNL     1       2.886   1.707  18.986  0.00  0.00    +0.000 C 
ATOM     12  C   UNL     1       3.301   2.218  17.594  0.00  0.00    +0.000 C 
ENDBRANCH   4   7
BRANCH   1  15
ATOM     13  C   UNL     1       7.741   7.934  17.854  0.00  0.00    +0.000 C 
ATOM     14  O   UNL     1       8.176   7.119  18.664  0.00  0.00    +0.000 OA
ATOM     15  N   UNL     1       6.618   7.784  17.051  0.00  0.00    +0.000 N 
ATOM     16  H   UNL     1       6.469   8.485  16.338  0.00  0.00    +0.000 HD
BRANCH  13  17
ATOM     17  C   UNL     1       8.481   9.253  17.640  0.00  0.00    +0.000 C 
BRANCH  17  19
ATOM     18  C   UNL     1       9.470  11.182  18.728  0.00  0.00    +0.000 C 
ATOM     19  N   UNL     1       9.010   9.802  18.903  0.00  0.00    +0.000 NA
ATOM     20  H   UNL     1       8.244   9.813  19.578  0.00  0.00    +0.000 HD
ENDBRANCH  17  19
ENDBRANCH  13  17
ENDBRANCH   1  15
TORSDOF 4
ENDMDL
MODEL 3
REMARK VINA RESULT:      -6.0      4.786      7.176
REMARK  Name = 
REMARK  5 active torsions:
REMARK  status: ('A' for Active; 'I' for Inactive)
REMARK    1  A    between atoms: C_1  and  N_2
REMARK    2  A    between atoms: N_2  and  C_3
REMARK    3  A    between atoms: C_3  and  C_4
REMARK    4  A    between atoms: N_6  and  C_7
REMARK    5  A    between atoms: C_10  and  N_11
REMARK                            x       y       z     vdW  Elec       q    Type
REMARK                         _______ _______ _______ _____ _____    ______ ____
ROOT
ATOM      1  C   UNL     1       2.920   6.887  18.574  0.00  0.00    +0.000 A 
ATOM      2  C   UNL     1       2.724   7.927  17.668  0.00  0.00    +0.000 A 
ATOM      3  C   UNL     1       1.970   9.048  18.010  0.00  0.00    +0.000 A 
ATOM      4  C   UNL     1       1.387   9.181  19.270  0.00  0.00    +0.000 A 
ATOM      5  C   UNL     1       1.590   8.130  20.179  0.00  0.00    +0.000 A 
ATOM      6  C   UNL     1       2.330   6.981  19.833  0.00  0.00    +0.000 A 
ENDROOT
BRANCH   4   7
ATOM      7  N   UNL     1       0.600  10.272  19.599  0.00  0.00    +0.000 N 
ATOM      8  C   UNL     1       1.070  11.652  19.377  0.00  0.00    +0.000 C 
ATOM      9  C   UNL     1       1.376  12.370  20.698  0.00  0.00    +0.000 C 
ATOM     10  O   UNL     1       0.266  12.298  21.606  0.00  0.00    +0.000 OA
ATOM     11  C   UNL     1      -0.027  10.924  21.909  0.00  0.00    +0.000 C 
ATOM     12  C   UNL     1      -0.420  10.129  20.650  0.00  0.00    +0.000 C 
ENDBRANCH   4   7
BRANCH   1  15
ATOM     13  C   UNL     1       3.143   4.521  17.842  0.00  0.00    +0.000 C 
ATOM     14  O   UNL     1       1.964   4.281  17.591  0.00  0.00    +0.000 OA
ATOM     15  N   UNL     1       3.674   5.744  18.230  0.00  0.00    +0.000 N 
ATOM     16  H   UNL     1       4.682   5.813  18.265  0.00  0.00    +0.000 HD
BRANCH  13  17
ATOM     17  C   UNL     1       4.184   3.412  17.702  0.00  0.00    +0.000 C 
BRANCH  17  19
ATOM     18  C   UNL     1       4.324   2.426  19.914  0.00  0.00    +0.000 C 
ATOM     19  N   UNL     1       5.002   3.264  18.921  0.00  0.00    +0.000 NA
ATOM     20  H   UNL     1       5.867   2.791  18.655  0.00  0.00    +0.000 HD
ENDBRANCH  17  19
ENDBRANCH  13  17
ENDBRANCH   1  15
TORSDOF 4
ENDMDL
MODEL 4
REMARK VINA RESULT:      -5.9      4.924      7.271
REMARK  Name = 
REMARK  5 active torsions:
REMARK  status: ('A' for Active; 'I' for Inactive)
REMARK    1  A    between atoms: C_1  and  N_2
REMARK    2  A    between atoms: N_2  and  C_3
REMARK    3  A    between atoms: C_3  and  C_4
REMARK    4  A    between atoms: N_6  and  C_7
REMARK    5  A    between atoms: C_10  and  N_11
REMARK                            x       y       z     vdW  Elec       q    Type
REMARK                         _______ _______ _______ _____ _____    ______ ____
ROOT
ATOM      1  C   UNL     1       2.866   7.031  18.659  0.00  0.00    +0.000 A 
ATOM      2  C   UNL     1       2.283   7.138  19.920  0.00  0.00    +0.000 A 
ATOM      3  C   UNL     1       1.476   8.226  20.250  0.00  0.00    +0.000 A 
ATOM      4  C   UNL     1       1.212   9.245  19.337  0.00  0.00    +0.000 A 
ATOM      5  C   UNL     1       1.802   9.129  18.067  0.00  0.00    +0.000 A 
ATOM      6  C   UNL     1       2.639   8.046  17.733  0.00  0.00    +0.000 A 
ENDROOT
BRANCH   4   7
ATOM      7  N   UNL     1       0.448  10.349  19.675  0.00  0.00    +0.000 N 
ATOM      8  C   UNL     1      -0.984  10.427  19.331  0.00  0.00    +0.000 C 
ATOM      9  C   UNL     1      -1.251  11.463  18.231  0.00  0.00    +0.000 C 
ATOM     10  O   UNL     1      -0.688  12.741  18.564  0.00  0.00    +0.000 OA
ATOM     11  C   UNL     1       0.735  12.620  18.718  0.00  0.00    +0.000 C 
ATOM     12  C   UNL     1       1.110  11.652  19.855  0.00  0.00    +0.000 C 
ENDBRANCH   4   7
BRANCH   1  15
ATOM     13  C   UNL     1       3.242   4.685  17.923  0.00  0.00    +0.000 C 
ATOM     14  O   UNL     1       2.084   4.374  17.657  0.00  0.00    +0.000 OA
ATOM     15  N   UNL     1       3.692   5.937  18.321  0.00  0.00    +0.000 N 
ATOM     16  H   UNL     1       4.694   6.068  18.369  0.00  0.00    +0.000 HD
BRANCH  13  17
ATOM     17  C   UNL     1       4.352   3.643  17.793  0.00  0.00    +0.000 C 
BRANCH  17  19
ATOM     18  C   UNL     1       4.341   2.441  19.900  0.00  0.00    +0.000 C 
ATOM     19  N   UNL     1       5.052   3.418  19.072  0.00  0.00    +0.000 NA
ATOM     20  H   UNL     1       5.971   3.029  18.855  0.00  0.00    +0.000 HD
ENDBRANCH  17  19
ENDBRANCH  13  17
ENDBRANCH   1  15
TORSDOF 4
ENDMDL
MODEL 5
REMARK VINA RESULT:      -5.9      5.290      6.516
REMARK  Name = 
REMARK  5 active torsions:
REMARK  status: ('A' for Active; 'I' for Inactive)
REMARK    1  A    between atoms: C_1  and  N_2
REMARK    2  A    between atoms: N_2  and  C_3
REMARK    3  A    between atoms: C_3  and  C_4
REMARK    4  A    between atoms: N_6  and  C_7
REMARK    5  A    between atoms: C_10  and  N_11
REMARK                            x       y       z     vdW  Elec       q    Type
REMARK                         _______ _______ _______ _____ _____    ______ ____
ROOT
ATOM      1  C   UNL     1       0.988   9.503  19.081  0.00  0.00    +0.000 A 
ATOM      2  C   UNL     1       1.701   9.107  17.951  0.00  0.00    +0.000 A 
ATOM      3  C   UNL     1       2.511   7.973  17.970  0.00  0.00    +0.000 A 
ATOM      4  C   UNL     1       2.639   7.185  19.113  0.00  0.00    +0.000 A 
ATOM      5  C   UNL     1       1.916   7.588  20.248  0.00  0.00    +0.000 A 
ATOM      6  C   UNL     1       1.114   8.747  20.244  0.00  0.00    +0.000 A 
ENDROOT
BRANCH   4   7
ATOM      7  N   UNL     1       3.477   6.083  19.150  0.00  0.00    +0.000 N 
ATOM      8  C   UNL     1       4.467   5.836  18.086  0.00  0.00    +0.000 C 
ATOM      9  C   UNL     1       4.085   4.628  17.220  0.00  0.00    +0.000 C 
ATOM     10  O   UNL     1       3.827   3.466  18.022  0.00  0.00    +0.000 OA
ATOM     11  C   UNL     1       2.736   3.727  18.920  0.00  0.00    +0.000 C 
ATOM     12  C   UNL     1       3.051   4.882  19.887  0.00  0.00    +0.000 C 
ENDBRANCH   4   7
BRANCH   1  15
ATOM     13  C   UNL     1      -1.037  10.776  18.402  0.00  0.00    +0.000 C 
ATOM     14  O   UNL     1      -1.660   9.874  17.849  0.00  0.00    +0.000 OA
ATOM     15  N   UNL     1       0.174  10.656  19.071  0.00  0.00    +0.000 N 
ATOM     16  H   UNL     1       0.490  11.463  19.591  0.00  0.00    +0.000 HD
BRANCH  13  17
ATOM     17  C   UNL     1      -1.613  12.191  18.418  0.00  0.00    +0.000 C 
BRANCH  17  19
ATOM     18  C   UNL     1      -0.223  14.166  18.643  0.00  0.00    +0.000 C 
ATOM     19  N   UNL     1      -0.740  13.152  17.719  0.00  0.00    +0.000 NA
ATOM     20  H   UNL     1       0.059  12.632  17.352  0.00  0.00    +0.000 HD
ENDBRANCH  17  19
ENDBRANCH  13  17
ENDBRANCH   1  15
TORSDOF 4
ENDMDL
MODEL 6
REMARK VINA RESULT:      -5.9      5.245      6.488
REMARK  Name = 
REMARK  5 active torsions:
REMARK  status: ('A' for Active; 'I' for Inactive)
REMARK    1  A    between atoms: C_1  and  N_2
REMARK    2  A    between atoms: N_2  and  C_3
REMARK    3  A    between atoms: C_3  and  C_4
REMARK    4  A    between atoms: N_6  and  C_7
REMARK    5  A    between atoms: C_10  and  N_11
REMARK                            x       y       z     vdW  Elec       q    Type
REMARK                         _______ _______ _______ _____ _____    ______ ____
ROOT
ATOM      1  C   UNL     1       1.279   9.147  19.510  0.00  0.00    +0.000 A 
ATOM      2  C   UNL     1       1.810   9.111  18.222  0.00  0.00    +0.000 A 
ATOM      3  C   UNL     1       2.551   8.017  17.778  0.00  0.00    +0.000 A 
ATOM      4  C   UNL     1       2.789   6.915  18.597  0.00  0.00    +0.000 A 
ATOM      5  C   UNL     1       2.250   6.957  19.894  0.00  0.00    +0.000 A 
ATOM      6  C   UNL     1       1.520   8.069  20.359  0.00  0.00    +0.000 A 
ENDROOT
BRANCH   4   7
ATOM      7  N   UNL     1       3.563   5.846  18.176  0.00  0.00    +0.000 N 
ATOM      8  C   UNL     1       3.137   4.453  18.404  0.00  0.00    +0.000 C 
ATOM      9  C   UNL     1       4.008   3.755  19.457  0.00  0.00    +0.000 C 
ATOM     10  O   UNL     1       5.405   3.867  19.143  0.00  0.00    +0.000 OA
ATOM     11  C   UNL     1       5.786   5.252  19.105  0.00  0.00    +0.000 C 
ATOM     12  C   UNL     1       5.016   6.030  18.022  0.00  0.00    +0.000 C 
ENDBRANCH   4   7
BRANCH   1  15
ATOM     13  C   UNL     1      -0.715  10.632  19.498  0.00  0.00    +0.000 C 
ATOM     14  O   UNL     1      -1.432   9.993  18.733  0.00  0.00    +0.000 OA
ATOM     15  N   UNL     1       0.536  10.256  19.969  0.00  0.00    +0.000 N 
ATOM     16  H   UNL     1       0.939  10.826  20.700  0.00  0.00    +0.000 HD
BRANCH  13  17
ATOM     17  C   UNL     1      -1.205  11.972  20.048  0.00  0.00    +0.000 C 
BRANCH  17  19
ATOM     18  C   UNL     1      -0.321  13.401  18.299  0.00  0.00    +0.000 C 
ATOM     19  N   UNL     1      -1.533  12.925  18.971  0.00  0.00    +0.000 NA
ATOM     20  H   UNL     1      -2.095  12.426  18.280  0.00  0.00    +0.000 HD
ENDBRANCH  17  19
ENDBRANCH  13  17
ENDBRANCH   1  15
TORSDOF 4
ENDMDL
MODEL 7
REMARK VINA RESULT:      -5.9      4.771      7.256
REMARK  Name = 
REMARK  5 active torsions:
REMARK  status: ('A' for Active; 'I' for Inactive)
REMARK    1  A    between atoms: C_1  and  N_2
REMARK    2  A    between atoms: N_2  and  C_3
REMARK    3  A    between atoms: C_3  and  C_4
REMARK    4  A    between atoms: N_6  and  C_7
REMARK    5  A    between atoms: C_10  and  N_11
REMARK                            x       y       z     vdW  Elec       q    Type
REMARK                         _______ _______ _______ _____ _____    ______ ____
ROOT
ATOM      1  C   UNL     1       2.630   6.594  18.662  0.00  0.00    +0.000 A 
ATOM      2  C   UNL     1       2.539   7.603  17.704  0.00  0.00    +0.000 A 
ATOM      3  C   UNL     1       2.008   8.852  18.022  0.00  0.00    +0.000 A 
ATOM      4  C   UNL     1       1.552   9.148  19.305  0.00  0.00    +0.000 A 
ATOM      5  C   UNL     1       1.648   8.127  20.266  0.00  0.00    +0.000 A 
ATOM      6  C   UNL     1       2.160   6.854  19.947  0.00  0.00    +0.000 A 
ENDROOT
BRANCH   4   7
ATOM      7  N   UNL     1       0.982  10.372  19.613  0.00  0.00    +0.000 N 
ATOM      8  C   UNL     1       0.846  10.826  21.010  0.00  0.00    +0.000 C 
ATOM      9  C   UNL     1      -0.618  10.826  21.469  0.00  0.00    +0.000 C 
ATOM     10  O   UNL     1      -1.454  11.559  20.561  0.00  0.00    +0.000 OA
ATOM     11  C   UNL     1      -1.403  10.956  19.258  0.00  0.00    +0.000 C 
ATOM     12  C   UNL     1       0.021  10.973  18.673  0.00  0.00    +0.000 C 
ENDBRANCH   4   7
BRANCH   1  15
ATOM     13  C   UNL     1       2.426   4.256  17.842  0.00  0.00    +0.000 C 
ATOM     14  O   UNL     1       1.260   4.284  17.455  0.00  0.00    +0.000 OA
ATOM     15  N   UNL     1       3.157   5.324  18.344  0.00  0.00    +0.000 N 
ATOM     16  H   UNL     1       4.146   5.171  18.491  0.00  0.00    +0.000 HD
BRANCH  13  17
ATOM     17  C   UNL     1       3.216   2.950  17.759  0.00  0.00    +0.000 C 
BRANCH  17  19
ATOM     18  C   UNL     1       4.304   2.261  19.815  0.00  0.00    +0.000 C 
ATOM     19  N   UNL     1       4.454   3.002  18.559  0.00  0.00    +0.000 NA
ATOM     20  H   UNL     1       5.190   2.546  18.017  0.00  0.00    +0.000 HD
ENDBRANCH  17  19
ENDBRANCH  13  17
ENDBRANCH   1  15
TORSDOF 4
ENDMDL
MODEL 8
REMARK VINA RESULT:      -5.9      4.923      7.254
REMARK  Name = 
REMARK  5 active torsions:
REMARK  status: ('A' for Active; 'I' for Inactive)
REMARK    1  A    between atoms: C_1  and  N_2
REMARK    2  A    between atoms: N_2  and  C_3
REMARK    3  A    between atoms: C_3  and  C_4
REMARK    4  A    between atoms: N_6  and  C_7
REMARK    5  A    between atoms: C_10  and  N_11
REMARK                            x       y       z     vdW  Elec       q    Type
REMARK                         _______ _______ _______ _____ _____    ______ ____
ROOT
ATOM      1  C   UNL     1       2.843   6.969  18.698  0.00  0.00    +0.000 A 
ATOM      2  C   UNL     1       2.523   8.033  17.857  0.00  0.00    +0.000 A 
ATOM      3  C   UNL     1       1.705   9.074  18.292  0.00  0.00    +0.000 A 
ATOM      4  C   UNL     1       1.178   9.100  19.582  0.00  0.00    +0.000 A 
ATOM      5  C   UNL     1       1.505   8.025  20.425  0.00  0.00    +0.000 A 
ATOM      6  C   UNL     1       2.312   6.956  19.985  0.00  0.00    +0.000 A 
ENDROOT
BRANCH   4   7
ATOM      7  N   UNL     1       0.328  10.109  20.003  0.00  0.00    +0.000 N 
ATOM      8  C   UNL     1      -0.827  10.530  19.188  0.00  0.00    +0.000 C 
ATOM      9  C   UNL     1      -0.620  11.925  18.582  0.00  0.00    +0.000 C 
ATOM     10  O   UNL     1      -0.267  12.887  19.587  0.00  0.00    +0.000 OA
ATOM     11  C   UNL     1       0.961  12.498  20.223  0.00  0.00    +0.000 C 
ATOM     12  C   UNL     1       0.836  11.135  20.929  0.00  0.00    +0.000 C 
ENDBRANCH   4   7
BRANCH   1  15
ATOM     13  C   UNL     1       3.211   4.650  17.879  0.00  0.00    +0.000 C 
ATOM     14  O   UNL     1       2.041   4.312  17.715  0.00  0.00    +0.000 OA
ATOM     15  N   UNL     1       3.663   5.906  18.261  0.00  0.00    +0.000 N 
ATOM     16  H   UNL     1       4.661   6.064  18.218  0.00  0.00    +0.000 HD
BRANCH  13  17
ATOM     17  C   UNL     1       4.330   3.642  17.623  0.00  0.00    +0.000 C 
BRANCH  17  19
ATOM     18  C   UNL     1       4.348   2.555  19.791  0.00  0.00    +0.000 C 
ATOM     19  N   UNL     1       5.115   3.365  18.841  0.00  0.00    +0.000 NA
ATOM     20  H   UNL     1       5.934   2.824  18.562  0.00  0.00    +0.000 HD
ENDBRANCH  17  19
ENDBRANCH  13  17
ENDBRANCH   1  15
TORSDOF 4
ENDMDL
MODEL 9
REMARK VINA RESULT:      -5.8      5.273      6.527
REMARK  Name = 
REMARK  5 active torsions:
REMARK  status: ('A' for Active; 'I' for Inactive)
REMARK    1  A    between atoms: C_1  and  N_2
REMARK    2  A    between atoms: N_2  and  C_3
REMARK    3  A    between atoms: C_3  and  C_4
REMARK    4  A    between atoms: N_6  and  C_7
REMARK    5  A    between atoms: C_10  and  N_11
REMARK                            x       y       z     vdW  Elec       q    Type
REMARK                         _______ _______ _______ _____ _____    ______ ____
ROOT
ATOM      1  C   UNL     1       1.232   9.175  19.535  0.00  0.00    +0.000 A 
ATOM      2  C   UNL     1       1.476   8.093  20.379  0.00  0.00    +0.000 A 
ATOM      3  C   UNL     1       2.239   7.006  19.954  0.00  0.00    +0.000 A 
ATOM      4  C   UNL     1       2.793   6.956  18.676  0.00  0.00    +0.000 A 
ATOM      5  C   UNL     1       2.543   8.051  17.831  0.00  0.00    +0.000 A 
ATOM      6  C   UNL     1       1.753   9.142  18.244  0.00  0.00    +0.000 A 
ENDROOT
BRANCH   4   7
ATOM      7  N   UNL     1       3.513   5.859  18.235  0.00  0.00    +0.000 N 
ATOM      8  C   UNL     1       3.045   4.483  18.484  0.00  0.00    +0.000 C 
ATOM      9  C   UNL     1       3.924   3.757  19.511  0.00  0.00    +0.000 C 
ATOM     10  O   UNL     1       5.312   3.817  19.149  0.00  0.00    +0.000 OA
ATOM     11  C   UNL     1       5.742   5.186  19.091  0.00  0.00    +0.000 C 
ATOM     12  C   UNL     1       4.965   5.988  18.031  0.00  0.00    +0.000 C 
ENDBRANCH   4   7
BRANCH   1  15
ATOM     13  C   UNL     1      -0.786  10.624  19.433  0.00  0.00    +0.000 C 
ATOM     14  O   UNL     1      -1.462   9.965  18.647  0.00  0.00    +0.000 OA
ATOM     15  N   UNL     1       0.452  10.274  19.956  0.00  0.00    +0.000 N 
ATOM     16  H   UNL     1       0.816  10.857  20.697  0.00  0.00    +0.000 HD
BRANCH  13  17
ATOM     17  C   UNL     1      -1.320  11.959  19.952  0.00  0.00    +0.000 C 
BRANCH  17  19
ATOM     18  C   UNL     1      -0.292  13.468  18.356  0.00  0.00    +0.000 C 
ATOM     19  N   UNL     1      -1.555  12.922  18.860  0.00  0.00    +0.000 NA
ATOM     20  H   UNL     1      -2.001  12.415  18.093  0.00  0.00    +0.000 HD
ENDBRANCH  17  19
ENDBRANCH  13  17
ENDBRANCH   1  15
TORSDOF 4
ENDMDL
