MODEL 1
REMARK VINA RESULT:      -7.6      0.000      0.000
REMARK  Name = 
REMARK  6 active torsions:
REMARK  status: ('A' for Active; 'I' for Inactive)
REMARK    1  A    between atoms: C_1  and  O_2
REMARK    2  A    between atoms: O_2  and  C_3
REMARK    3  A    between atoms: C_6  and  C_7
REMARK    4  A    between atoms: C_7  and  O_8
REMARK    5  A    between atoms: O_8  and  C_9
REMARK    6  A    between atoms: C_9  and  C_10
REMARK                            x       y       z     vdW  Elec       q    Type
REMARK                         _______ _______ _______ _____ _____    ______ ____
ROOT
ATOM      1  C   UNL     1       4.175   5.659  17.818  0.00  0.00    +0.000 C 
ATOM      2  S   UNL     1       2.963   6.970  17.339  0.00  0.00    +0.000 S 
ATOM      3  C   UNL     1       2.299   7.268  18.966  0.00  0.00    +0.000 A 
ATOM      4  C   UNL     1       1.974   8.588  19.303  0.00  0.00    +0.000 A 
ATOM      5  C   UNL     1       1.382   8.867  20.531  0.00  0.00    +0.000 A 
ATOM      6  C   UNL     1       1.081   7.823  21.401  0.00  0.00    +0.000 A 
ATOM      7  C   UNL     1       1.413   6.503  21.067  0.00  0.00    +0.000 A 
ATOM      8  C   UNL     1       2.067   6.208  19.863  0.00  0.00    +0.000 A 
ATOM      9  N   UNL     1       2.484   4.898  19.525  0.00  0.00    +0.000 N 
ATOM     10  C   UNL     1       3.373   4.576  18.562  0.00  0.00    +0.000 A 
ATOM     11  N   UNL     1       3.545   3.299  18.421  0.00  0.00    +0.000 NA
ATOM     12  O   UNL     1       2.723   2.697  19.413  0.00  0.00    +0.000 OA
ATOM     13  C   UNL     1       2.133   3.727  20.112  0.00  0.00    +0.000 A 
ATOM     14  O   UNL     1       1.418   3.536  21.086  0.00  0.00    +0.000 OA
ENDROOT
BRANCH   1  18
ATOM     15  C   UNL     1       6.197   4.152  14.249  0.00  0.00    +0.000 A 
ATOM     16  C   UNL     1       6.150   5.517  14.524  0.00  0.00    +0.000 A 
ATOM     17  C   UNL     1       5.577   5.986  15.708  0.00  0.00    +0.000 A 
ATOM     18  C   UNL     1       4.968   5.106  16.622  0.00  0.00    +0.000 A 
ATOM     19  C   UNL     1       5.110   3.728  16.372  0.00  0.00    +0.000 A 
ATOM     20  C   UNL     1       5.705   3.256  15.192  0.00  0.00    +0.000 A 
BRANCH  15  22
ATOM     21  C   UNL     1       5.851   3.129  12.138  0.00  0.00    +0.000 C 
ATOM     22  O   UNL     1       6.713   3.831  13.025  0.00  0.00    +0.000 OA
ENDBRANCH  15  22
ENDBRANCH   1  18
BRANCH   1  23
ATOM     23  O   UNL     1       5.068   6.143  18.861  0.00  0.00    +0.000 OA
BRANCH  23  24
ATOM     24  C   UNL     1       6.077   5.230  19.331  0.00  0.00    +0.000 C 
BRANCH  24  25
ATOM     25  C   UNL     1       7.484   5.634  18.879  0.00  0.00    +0.000 C 
ATOM     26  F   UNL     1       7.527   6.878  18.357  0.00  0.00    +0.000 F 
ATOM     27  F   UNL     1       8.352   5.594  19.916  0.00  0.00    +0.000 F 
ATOM     28  F   UNL     1       7.943   4.780  17.934  0.00  0.00    +0.000 F 
ENDBRANCH  24  25
ENDBRANCH  23  24
ENDBRANCH   1  23
TORSDOF 5
ENDMDL
MODEL 2
REMARK VINA RESULT:      -7.3      6.362      8.864
REMARK  Name = 
REMARK  6 active torsions:
REMARK  status: ('A' for Active; 'I' for Inactive)
REMARK    1  A    between atoms: C_1  and  O_2
REMARK    2  A    between atoms: O_2  and  C_3
REMARK    3  A    between atoms: C_6  and  C_7
REMARK    4  A    between atoms: C_7  and  O_8
REMARK    5  A    between atoms: O_8  and  C_9
REMARK    6  A    between atoms: C_9  and  C_10
REMARK                            x       y       z     vdW  Elec       q    Type
REMARK                         _______ _______ _______ _____ _____    ______ ____
ROOT
ATOM      1  C   UNL     1       0.312  11.326  19.327  0.00  0.00    +0.000 C 
ATOM      2  S   UNL     1      -0.320  11.691  21.024  0.00  0.00    +0.000 S 
ATOM      3  C   UNL     1      -0.901  13.344  20.696  0.00  0.00    +0.000 A 
ATOM      4  C   UNL     1      -2.085  13.753  21.324  0.00  0.00    +0.000 A 
ATOM      5  C   UNL     1      -2.543  15.057  21.163  0.00  0.00    +0.000 A 
ATOM      6  C   UNL     1      -1.797  15.958  20.410  0.00  0.00    +0.000 A 
ATOM      7  C   UNL     1      -0.617  15.548  19.776  0.00  0.00    +0.000 A 
ATOM      8  C   UNL     1      -0.172  14.223  19.873  0.00  0.00    +0.000 A 
ATOM      9  N   UNL     1       0.974  13.753  19.188  0.00  0.00    +0.000 N 
ATOM     10  C   UNL     1       1.292  12.458  18.974  0.00  0.00    +0.000 A 
ATOM     11  N   UNL     1       2.422  12.297  18.360  0.00  0.00    +0.000 NA
ATOM     12  O   UNL     1       2.900  13.610  18.097  0.00  0.00    +0.000 OA
ATOM     13  C   UNL     1       1.941  14.478  18.571  0.00  0.00    +0.000 A 
ATOM     14  O   UNL     1       2.022  15.691  18.429  0.00  0.00    +0.000 OA
ENDROOT
BRANCH   1  18
ATOM     15  C   UNL     1       2.345   7.463  19.109  0.00  0.00    +0.000 A 
ATOM     16  C   UNL     1       1.770   7.904  20.298  0.00  0.00    +0.000 A 
ATOM     17  C   UNL     1       1.049   9.099  20.341  0.00  0.00    +0.000 A 
ATOM     18  C   UNL     1       0.942   9.927  19.207  0.00  0.00    +0.000 A 
ATOM     19  C   UNL     1       1.448   9.419  17.996  0.00  0.00    +0.000 A 
ATOM     20  C   UNL     1       2.155   8.207  17.949  0.00  0.00    +0.000 A 
BRANCH  15  22
ATOM     21  C   UNL     1       3.884   5.970  18.095  0.00  0.00    +0.000 C 
ATOM     22  O   UNL     1       3.088   6.321  19.220  0.00  0.00    +0.000 OA
ENDBRANCH  15  22
ENDBRANCH   1  18
BRANCH   1  23
ATOM     23  O   UNL     1      -0.738  11.515  18.337  0.00  0.00    +0.000 OA
BRANCH  23  24
ATOM     24  C   UNL     1      -1.984  10.831  18.569  0.00  0.00    +0.000 C 
BRANCH  24  25
ATOM     25  C   UNL     1      -2.497  10.115  17.316  0.00  0.00    +0.000 C 
ATOM     26  F   UNL     1      -1.534   9.409  16.686  0.00  0.00    +0.000 F 
ATOM     27  F   UNL     1      -3.497   9.258  17.626  0.00  0.00    +0.000 F 
ATOM     28  F   UNL     1      -2.992  11.008  16.427  0.00  0.00    +0.000 F 
ENDBRANCH  24  25
ENDBRANCH  23  24
ENDBRANCH   1  23
TORSDOF 5
ENDMDL
MODEL 3
REMARK VINA RESULT:      -7.0      6.397      8.859
REMARK  Name = 
REMARK  6 active torsions:
REMARK  status: ('A' for Active; 'I' for Inactive)
REMARK    1  A    between atoms: C_1  and  O_2
REMARK    2  A    between atoms: O_2  and  C_3
REMARK    3  A    between atoms: C_6  and  C_7
REMARK    4  A    between atoms: C_7  and  O_8
REMARK    5  A    between atoms: O_8  and  C_9
REMARK    6  A    between atoms: C_9  and  C_10
REMARK                            x       y       z     vdW  Elec       q    Type
REMARK                         _______ _______ _______ _____ _____    ______ ____
ROOT
ATOM      1  C   UNL     1       0.371  11.443  19.400  0.00  0.00    +0.000 C 
ATOM      2  S   UNL     1      -0.331  11.741  21.083  0.00  0.00    +0.000 S 
ATOM      3  C   UNL     1      -1.012  13.357  20.759  0.00  0.00    +0.000 A 
ATOM      4  C   UNL     1      -2.237  13.677  21.358  0.00  0.00    +0.000 A 
ATOM      5  C   UNL     1      -2.776  14.950  21.200  0.00  0.00    +0.000 A 
ATOM      6  C   UNL     1      -2.072  15.910  20.480  0.00  0.00    +0.000 A 
ATOM      7  C   UNL     1      -0.850  15.588  19.875  0.00  0.00    +0.000 A 
ATOM      8  C   UNL     1      -0.320  14.294  19.968  0.00  0.00    +0.000 A 
ATOM      9  N   UNL     1       0.874  13.910  19.310  0.00  0.00    +0.000 N 
ATOM     10  C   UNL     1       1.282  12.643  19.089  0.00  0.00    +0.000 A 
ATOM     11  N   UNL     1       2.438  12.565  18.506  0.00  0.00    +0.000 NA
ATOM     12  O   UNL     1       2.833  13.911  18.272  0.00  0.00    +0.000 OA
ATOM     13  C   UNL     1       1.806  14.707  18.731  0.00  0.00    +0.000 A 
ATOM     14  O   UNL     1       1.811  15.924  18.605  0.00  0.00    +0.000 OA
ENDROOT
BRANCH   1  18
ATOM     15  C   UNL     1       2.190   7.497  18.925  0.00  0.00    +0.000 A 
ATOM     16  C   UNL     1       2.157   8.403  17.868  0.00  0.00    +0.000 A 
ATOM     17  C   UNL     1       1.651   9.692  18.049  0.00  0.00    +0.000 A 
ATOM     18  C   UNL     1       1.095  10.091  19.280  0.00  0.00    +0.000 A 
ATOM     19  C   UNL     1       1.224   9.195  20.358  0.00  0.00    +0.000 A 
ATOM     20  C   UNL     1       1.751   7.907  20.180  0.00  0.00    +0.000 A 
BRANCH  15  22
ATOM     21  C   UNL     1       3.779   6.184  17.754  0.00  0.00    +0.000 C 
ATOM     22  O   UNL     1       2.635   6.248  18.596  0.00  0.00    +0.000 OA
ENDBRANCH  15  22
ENDBRANCH   1  18
BRANCH   1  23
ATOM     23  O   UNL     1      -0.662  11.576  18.383  0.00  0.00    +0.000 OA
BRANCH  23  24
ATOM     24  C   UNL     1      -1.871  10.819  18.578  0.00  0.00    +0.000 C 
BRANCH  24  25
ATOM     25  C   UNL     1      -2.313  10.089  17.306  0.00  0.00    +0.000 C 
ATOM     26  F   UNL     1      -3.391   9.301  17.504  0.00  0.00    +0.000 F 
ATOM     27  F   UNL     1      -2.624  10.970  16.328  0.00  0.00    +0.000 F 
ATOM     28  F   UNL     1      -1.316   9.302  16.839  0.00  0.00    +0.000 F 
ENDBRANCH  24  25
ENDBRANCH  23  24
ENDBRANCH   1  23
TORSDOF 5
ENDMDL
MODEL 4
REMARK VINA RESULT:      -7.0      0.367      1.205
REMARK  Name = 
REMARK  6 active torsions:
REMARK  status: ('A' for Active; 'I' for Inactive)
REMARK    1  A    between atoms: C_1  and  O_2
REMARK    2  A    between atoms: O_2  and  C_3
REMARK    3  A    between atoms: C_6  and  C_7
REMARK    4  A    between atoms: C_7  and  O_8
REMARK    5  A    between atoms: O_8  and  C_9
REMARK    6  A    between atoms: C_9  and  C_10
REMARK                            x       y       z     vdW  Elec       q    Type
REMARK                         _______ _______ _______ _____ _____    ______ ____
ROOT
ATOM      1  C   UNL     1       3.922   5.839  17.821  0.00  0.00    +0.000 C 
ATOM      2  S   UNL     1       2.777   7.241  17.453  0.00  0.00    +0.000 S 
ATOM      3  C   UNL     1       2.156   7.465  19.109  0.00  0.00    +0.000 A 
ATOM      4  C   UNL     1       1.908   8.775  19.539  0.00  0.00    +0.000 A 
ATOM      5  C   UNL     1       1.352   9.002  20.794  0.00  0.00    +0.000 A 
ATOM      6  C   UNL     1       1.008   7.920  21.598  0.00  0.00    +0.000 A 
ATOM      7  C   UNL     1       1.262   6.610  21.172  0.00  0.00    +0.000 A 
ATOM      8  C   UNL     1       1.879   6.362  19.939  0.00  0.00    +0.000 A 
ATOM      9  N   UNL     1       2.219   5.057  19.506  0.00  0.00    +0.000 N 
ATOM     10  C   UNL     1       3.074   4.753  18.507  0.00  0.00    +0.000 A 
ATOM     11  N   UNL     1       3.173   3.481  18.279  0.00  0.00    +0.000 NA
ATOM     12  O   UNL     1       2.335   2.858  19.245  0.00  0.00    +0.000 OA
ATOM     13  C   UNL     1       1.814   3.869  20.022  0.00  0.00    +0.000 A 
ATOM     14  O   UNL     1       1.105   3.652  20.995  0.00  0.00    +0.000 OA
ENDROOT
BRANCH   1  18
ATOM     15  C   UNL     1       6.265   4.327  14.456  0.00  0.00    +0.000 A 
ATOM     16  C   UNL     1       5.650   3.455  15.351  0.00  0.00    +0.000 A 
ATOM     17  C   UNL     1       4.833   3.941  16.374  0.00  0.00    +0.000 A 
ATOM     18  C   UNL     1       4.664   5.325  16.576  0.00  0.00    +0.000 A 
ATOM     19  C   UNL     1       5.217   6.183  15.607  0.00  0.00    +0.000 A 
ATOM     20  C   UNL     1       6.020   5.692  14.567  0.00  0.00    +0.000 A 
BRANCH  15  22
ATOM     21  C   UNL     1       6.601   3.587  12.229  0.00  0.00    +0.000 C 
ATOM     22  O   UNL     1       7.098   3.729  13.553  0.00  0.00    +0.000 OA
ENDBRANCH  15  22
ENDBRANCH   1  18
BRANCH   1  23
ATOM     23  O   UNL     1       4.856   6.203  18.876  0.00  0.00    +0.000 OA
BRANCH  23  24
ATOM     24  C   UNL     1       5.849   5.224  19.235  0.00  0.00    +0.000 C 
BRANCH  24  25
ATOM     25  C   UNL     1       7.255   5.625  18.778  0.00  0.00    +0.000 C 
ATOM     26  F   UNL     1       8.143   5.662  19.794  0.00  0.00    +0.000 F 
ATOM     27  F   UNL     1       7.726   4.758  17.853  0.00  0.00    +0.000 F 
ATOM     28  F   UNL     1       7.238   6.853  18.209  0.00  0.00    +0.000 F 
ENDBRANCH  24  25
ENDBRANCH  23  24
ENDBRANCH   1  23
TORSDOF 5
ENDMDL
MODEL 5
REMARK VINA RESULT:      -7.0      6.105      8.560
REMARK  Name = 
REMARK  6 active torsions:
REMARK  status: ('A' for Active; 'I' for Inactive)
REMARK    1  A    between atoms: C_1  and  O_2
REMARK    2  A    between atoms: O_2  and  C_3
REMARK    3  A    between atoms: C_6  and  C_7
REMARK    4  A    between atoms: C_7  and  O_8
REMARK    5  A    between atoms: O_8  and  C_9
REMARK    6  A    between atoms: C_9  and  C_10
REMARK                            x       y       z     vdW  Elec       q    Type
REMARK                         _______ _______ _______ _____ _____    ______ ____
ROOT
ATOM      1  C   UNL     1       0.207  10.771  20.333  0.00  0.00    +0.000 C 
ATOM      2  S   UNL     1      -0.374  10.334  22.032  0.00  0.00    +0.000 S 
ATOM      3  C   UNL     1      -1.132  11.900  22.419  0.00  0.00    +0.000 A 
ATOM      4  C   UNL     1      -2.319  11.880  23.164  0.00  0.00    +0.000 A 
ATOM      5  C   UNL     1      -2.911  13.075  23.559  0.00  0.00    +0.000 A 
ATOM      6  C   UNL     1      -2.297  14.283  23.245  0.00  0.00    +0.000 A 
ATOM      7  C   UNL     1      -1.115  14.304  22.494  0.00  0.00    +0.000 A 
ATOM      8  C   UNL     1      -0.535  13.114  22.032  0.00  0.00    +0.000 A 
ATOM      9  N   UNL     1       0.617  13.098  21.209  0.00  0.00    +0.000 N 
ATOM     10  C   UNL     1       1.051  12.050  20.477  0.00  0.00    +0.000 A 
ATOM     11  N   UNL     1       2.160  12.281  19.848  0.00  0.00    +0.000 NA
ATOM     12  O   UNL     1       2.491  13.631  20.150  0.00  0.00    +0.000 OA
ATOM     13  C   UNL     1       1.475  14.115  20.945  0.00  0.00    +0.000 A 
ATOM     14  O   UNL     1       1.429  15.279  21.317  0.00  0.00    +0.000 OA
ENDROOT
BRANCH   1  18
ATOM     15  C   UNL     1       2.609   7.610  18.504  0.00  0.00    +0.000 A 
ATOM     16  C   UNL     1       2.161   7.501  19.818  0.00  0.00    +0.000 A 
ATOM     17  C   UNL     1       1.324   8.474  20.370  0.00  0.00    +0.000 A 
ATOM     18  C   UNL     1       0.966   9.625  19.642  0.00  0.00    +0.000 A 
ATOM     19  C   UNL     1       1.350   9.669  18.289  0.00  0.00    +0.000 A 
ATOM     20  C   UNL     1       2.174   8.681  17.729  0.00  0.00    +0.000 A 
BRANCH  15  22
ATOM     21  C   UNL     1       2.933   5.345  17.885  0.00  0.00    +0.000 C 
ATOM     22  O   UNL     1       3.483   6.636  18.112  0.00  0.00    +0.000 OA
ENDBRANCH  15  22
ENDBRANCH   1  18
BRANCH   1  23
ATOM     23  O   UNL     1      -0.904  11.232  19.514  0.00  0.00    +0.000 OA
BRANCH  23  24
ATOM     24  C   UNL     1      -1.908  10.260  19.167  0.00  0.00    +0.000 C 
BRANCH  24  25
ATOM     25  C   UNL     1      -2.272  10.304  17.681  0.00  0.00    +0.000 C 
ATOM     26  F   UNL     1      -1.470   9.527  16.923  0.00  0.00    +0.000 F 
ATOM     27  F   UNL     1      -3.546   9.890  17.485  0.00  0.00    +0.000 F 
ATOM     28  F   UNL     1      -2.180  11.568  17.205  0.00  0.00    +0.000 F 
ENDBRANCH  24  25
ENDBRANCH  23  24
ENDBRANCH   1  23
TORSDOF 5
ENDMDL
MODEL 6
REMARK VINA RESULT:      -7.0      6.521      8.952
REMARK  Name = 
REMARK  6 active torsions:
REMARK  status: ('A' for Active; 'I' for Inactive)
REMARK    1  A    between atoms: C_1  and  O_2
REMARK    2  A    between atoms: O_2  and  C_3
REMARK    3  A    between atoms: C_6  and  C_7
REMARK    4  A    between atoms: C_7  and  O_8
REMARK    5  A    between atoms: O_8  and  C_9
REMARK    6  A    between atoms: C_9  and  C_10
REMARK                            x       y       z     vdW  Elec       q    Type
REMARK                         _______ _______ _______ _____ _____    ______ ____
ROOT
ATOM      1  C   UNL     1       0.287  11.125  19.303  0.00  0.00    +0.000 C 
ATOM      2  S   UNL     1      -0.373  11.416  21.004  0.00  0.00    +0.000 S 
ATOM      3  C   UNL     1      -1.006  13.059  20.722  0.00  0.00    +0.000 A 
ATOM      4  C   UNL     1      -2.208  13.408  21.350  0.00  0.00    +0.000 A 
ATOM      5  C   UNL     1      -2.708  14.701  21.225  0.00  0.00    +0.000 A 
ATOM      6  C   UNL     1      -1.985  15.650  20.508  0.00  0.00    +0.000 A 
ATOM      7  C   UNL     1      -0.786  15.299  19.874  0.00  0.00    +0.000 A 
ATOM      8  C   UNL     1      -0.298  13.987  19.935  0.00  0.00    +0.000 A 
ATOM      9  N   UNL     1       0.870  13.576  19.247  0.00  0.00    +0.000 N 
ATOM     10  C   UNL     1       1.232  12.300  18.996  0.00  0.00    +0.000 A 
ATOM     11  N   UNL     1       2.373  12.195  18.390  0.00  0.00    +0.000 NA
ATOM     12  O   UNL     1       2.809  13.531  18.172  0.00  0.00    +0.000 OA
ATOM     13  C   UNL     1       1.817  14.352  18.664  0.00  0.00    +0.000 A 
ATOM     14  O   UNL     1       1.860  15.570  18.559  0.00  0.00    +0.000 OA
ENDROOT
BRANCH   1  18
ATOM     15  C   UNL     1       2.452   7.343  18.978  0.00  0.00    +0.000 A 
ATOM     16  C   UNL     1       1.883   7.741  20.185  0.00  0.00    +0.000 A 
ATOM     17  C   UNL     1       1.121   8.909  20.263  0.00  0.00    +0.000 A 
ATOM     18  C   UNL     1       0.964   9.753  19.146  0.00  0.00    +0.000 A 
ATOM     19  C   UNL     1       1.466   9.285  17.917  0.00  0.00    +0.000 A 
ATOM     20  C   UNL     1       2.214   8.100  17.836  0.00  0.00    +0.000 A 
BRANCH  15  22
ATOM     21  C   UNL     1       4.157   6.023  17.990  0.00  0.00    +0.000 C 
ATOM     22  O   UNL     1       3.237   6.227  19.055  0.00  0.00    +0.000 OA
ENDBRANCH  15  22
ENDBRANCH   1  18
BRANCH   1  23
ATOM     23  O   UNL     1      -0.760  11.311  18.309  0.00  0.00    +0.000 OA
BRANCH  23  24
ATOM     24  C   UNL     1      -1.846  10.365  18.320  0.00  0.00    +0.000 C 
BRANCH  24  25
ATOM     25  C   UNL     1      -3.178  11.004  17.919  0.00  0.00    +0.000 C 
ATOM     26  F   UNL     1      -3.530  12.028  18.725  0.00  0.00    +0.000 F 
ATOM     27  F   UNL     1      -3.123  11.480  16.653  0.00  0.00    +0.000 F 
ATOM     28  F   UNL     1      -4.177  10.091  17.964  0.00  0.00    +0.000 F 
ENDBRANCH  24  25
ENDBRANCH  23  24
ENDBRANCH   1  23
TORSDOF 5
ENDMDL
MODEL 7
REMARK VINA RESULT:      -6.9      6.960     10.571
REMARK  Name = 
REMARK  6 active torsions:
REMARK  status: ('A' for Active; 'I' for Inactive)
REMARK    1  A    between atoms: C_1  and  O_2
REMARK    2  A    between atoms: O_2  and  C_3
REMARK    3  A    between atoms: C_6  and  C_7
REMARK    4  A    between atoms: C_7  and  O_8
REMARK    5  A    between atoms: O_8  and  C_9
REMARK    6  A    between atoms: C_9  and  C_10
REMARK                            x       y       z     vdW  Elec       q    Type
REMARK                         _______ _______ _______ _____ _____    ______ ____
ROOT
ATOM      1  C   UNL     1      -0.888  12.198  19.972  0.00  0.00    +0.000 C 
ATOM      2  S   UNL     1       0.685  12.333  19.013  0.00  0.00    +0.000 S 
ATOM      3  C   UNL     1       1.126  10.607  19.061  0.00  0.00    +0.000 A 
ATOM      4  C   UNL     1       1.726  10.057  17.920  0.00  0.00    +0.000 A 
ATOM      5  C   UNL     1       2.158   8.735  17.931  0.00  0.00    +0.000 A 
ATOM      6  C   UNL     1       2.029   7.980  19.092  0.00  0.00    +0.000 A 
ATOM      7  C   UNL     1       1.424   8.526  20.231  0.00  0.00    +0.000 A 
ATOM      8  C   UNL     1       0.923   9.835  20.221  0.00  0.00    +0.000 A 
ATOM      9  N   UNL     1       0.240  10.398  21.327  0.00  0.00    +0.000 N 
ATOM     10  C   UNL     1      -0.531  11.505  21.299  0.00  0.00    +0.000 A 
ATOM     11  N   UNL     1      -1.005  11.836  22.459  0.00  0.00    +0.000 NA
ATOM     12  O   UNL     1      -0.543  10.832  23.355  0.00  0.00    +0.000 OA
ATOM     13  C   UNL     1       0.171   9.930  22.598  0.00  0.00    +0.000 A 
ATOM     14  O   UNL     1       0.641   8.903  23.068  0.00  0.00    +0.000 OA
ENDROOT
BRANCH   1  18
ATOM     15  C   UNL     1      -2.726  16.080  20.787  0.00  0.00    +0.000 A 
ATOM     16  C   UNL     1      -1.458  15.992  20.216  0.00  0.00    +0.000 A 
ATOM     17  C   UNL     1      -0.911  14.752  19.880  0.00  0.00    +0.000 A 
ATOM     18  C   UNL     1      -1.590  13.552  20.172  0.00  0.00    +0.000 A 
ATOM     19  C   UNL     1      -2.905  13.667  20.660  0.00  0.00    +0.000 A 
ATOM     20  C   UNL     1      -3.462  14.915  20.978  0.00  0.00    +0.000 A 
BRANCH  15  22
ATOM     21  C   UNL     1      -2.894  18.364  20.174  0.00  0.00    +0.000 C 
ATOM     22  O   UNL     1      -3.111  17.343  21.139  0.00  0.00    +0.000 OA
ENDBRANCH  15  22
ENDBRANCH   1  18
BRANCH   1  23
ATOM     23  O   UNL     1      -1.783  11.230  19.357  0.00  0.00    +0.000 OA
BRANCH  23  24
ATOM     24  C   UNL     1      -2.178  11.480  17.995  0.00  0.00    +0.000 C 
BRANCH  24  25
ATOM     25  C   UNL     1      -2.429  10.186  17.214  0.00  0.00    +0.000 C 
ATOM     26  F   UNL     1      -2.929  10.410  15.980  0.00  0.00    +0.000 F 
ATOM     27  F   UNL     1      -1.284   9.480  17.071  0.00  0.00    +0.000 F 
ATOM     28  F   UNL     1      -3.311   9.397  17.872  0.00  0.00    +0.000 F 
ENDBRANCH  24  25
ENDBRANCH  23  24
ENDBRANCH   1  23
TORSDOF 5
ENDMDL
MODEL 8
REMARK VINA RESULT:      -6.9      5.696      7.562
REMARK  Name = 
REMARK  6 active torsions:
REMARK  status: ('A' for Active; 'I' for Inactive)
REMARK    1  A    between atoms: C_1  and  O_2
REMARK    2  A    between atoms: O_2  and  C_3
REMARK    3  A    between atoms: C_6  and  C_7
REMARK    4  A    between atoms: C_7  and  O_8
REMARK    5  A    between atoms: O_8  and  C_9
REMARK    6  A    between atoms: C_9  and  C_10
REMARK                            x       y       z     vdW  Elec       q    Type
REMARK                         _______ _______ _______ _____ _____    ______ ____
ROOT
ATOM      1  C   UNL     1       0.477  10.177  19.523  0.00  0.00    +0.000 C 
ATOM      2  S   UNL     1       1.253  11.841  19.723  0.00  0.00    +0.000 S 
ATOM      3  C   UNL     1      -0.225  12.724  20.185  0.00  0.00    +0.000 A 
ATOM      4  C   UNL     1      -0.105  13.731  21.152  0.00  0.00    +0.000 A 
ATOM      5  C   UNL     1      -1.211  14.501  21.495  0.00  0.00    +0.000 A 
ATOM      6  C   UNL     1      -2.423  14.292  20.842  0.00  0.00    +0.000 A 
ATOM      7  C   UNL     1      -2.545  13.281  19.880  0.00  0.00    +0.000 A 
ATOM      8  C   UNL     1      -1.460  12.451  19.566  0.00  0.00    +0.000 A 
ATOM      9  N   UNL     1      -1.564  11.373  18.655  0.00  0.00    +0.000 N 
ATOM     10  C   UNL     1      -0.686  10.355  18.531  0.00  0.00    +0.000 A 
ATOM     11  N   UNL     1      -0.990   9.521  17.587  0.00  0.00    +0.000 NA
ATOM     12  O   UNL     1      -2.216   9.996  17.043  0.00  0.00    +0.000 OA
ATOM     13  C   UNL     1      -2.564  11.109  17.777  0.00  0.00    +0.000 A 
ATOM     14  O   UNL     1      -3.615  11.710  17.602  0.00  0.00    +0.000 OA
ENDROOT
BRANCH   1  18
ATOM     15  C   UNL     1       3.118   7.002  18.092  0.00  0.00    +0.000 A 
ATOM     16  C   UNL     1       2.954   8.179  17.366  0.00  0.00    +0.000 A 
ATOM     17  C   UNL     1       2.176   9.224  17.869  0.00  0.00    +0.000 A 
ATOM     18  C   UNL     1       1.478   9.094  19.086  0.00  0.00    +0.000 A 
ATOM     19  C   UNL     1       1.733   7.937  19.846  0.00  0.00    +0.000 A 
ATOM     20  C   UNL     1       2.532   6.896  19.349  0.00  0.00    +0.000 A 
BRANCH  15  22
ATOM     21  C   UNL     1       4.923   6.470  16.649  0.00  0.00    +0.000 C 
ATOM     22  O   UNL     1       3.837   6.030  17.454  0.00  0.00    +0.000 OA
ENDBRANCH  15  22
ENDBRANCH   1  18
BRANCH   1  23
ATOM     23  O   UNL     1      -0.220   9.786  20.739  0.00  0.00    +0.000 OA
BRANCH  23  24
ATOM     24  C   UNL     1       0.415  10.114  21.989  0.00  0.00    +0.000 C 
BRANCH  24  25
ATOM     25  C   UNL     1      -0.393   9.630  23.197  0.00  0.00    +0.000 C 
ATOM     26  F   UNL     1       0.382   9.352  24.266  0.00  0.00    +0.000 F 
ATOM     27  F   UNL     1      -1.295  10.564  23.578  0.00  0.00    +0.000 F 
ATOM     28  F   UNL     1      -1.081   8.505  22.890  0.00  0.00    +0.000 F 
ENDBRANCH  24  25
ENDBRANCH  23  24
ENDBRANCH   1  23
TORSDOF 5
ENDMDL
MODEL 9
REMARK VINA RESULT:      -6.8      5.866      8.089
REMARK  Name = 
REMARK  6 active torsions:
REMARK  status: ('A' for Active; 'I' for Inactive)
REMARK    1  A    between atoms: C_1  and  O_2
REMARK    2  A    between atoms: O_2  and  C_3
REMARK    3  A    between atoms: C_6  and  C_7
REMARK    4  A    between atoms: C_7  and  O_8
REMARK    5  A    between atoms: O_8  and  C_9
REMARK    6  A    between atoms: C_9  and  C_10
REMARK                            x       y       z     vdW  Elec       q    Type
REMARK                         _______ _______ _______ _____ _____    ______ ____
ROOT
ATOM      1  C   UNL     1       0.487  10.106  19.976  0.00  0.00    +0.000 C 
ATOM      2  S   UNL     1       0.338  10.122  21.817  0.00  0.00    +0.000 S 
ATOM      3  C   UNL     1      -0.745  11.532  21.943  0.00  0.00    +0.000 A 
ATOM      4  C   UNL     1      -1.740  11.502  22.928  0.00  0.00    +0.000 A 
ATOM      5  C   UNL     1      -2.563  12.607  23.119  0.00  0.00    +0.000 A 
ATOM      6  C   UNL     1      -2.364  13.752  22.355  0.00  0.00    +0.000 A 
ATOM      7  C   UNL     1      -1.373  13.781  21.364  0.00  0.00    +0.000 A 
ATOM      8  C   UNL     1      -0.576  12.657  21.112  0.00  0.00    +0.000 A 
ATOM      9  N   UNL     1       0.384  12.621  20.072  0.00  0.00    +0.000 N 
ATOM     10  C   UNL     1       0.960  11.511  19.565  0.00  0.00    +0.000 A 
ATOM     11  N   UNL     1       1.844  11.757  18.649  0.00  0.00    +0.000 NA
ATOM     12  O   UNL     1       1.838  13.171  18.490  0.00  0.00    +0.000 OA
ATOM     13  C   UNL     1       0.875  13.658  19.347  0.00  0.00    +0.000 A 
ATOM     14  O   UNL     1       0.574  14.842  19.393  0.00  0.00    +0.000 OA
ENDROOT
BRANCH   1  18
ATOM     15  C   UNL     1       2.868   6.826  18.339  0.00  0.00    +0.000 A 
ATOM     16  C   UNL     1       2.637   7.983  17.599  0.00  0.00    +0.000 A 
ATOM     17  C   UNL     1       1.948   9.062  18.158  0.00  0.00    +0.000 A 
ATOM     18  C   UNL     1       1.405   8.986  19.456  0.00  0.00    +0.000 A 
ATOM     19  C   UNL     1       1.730   7.849  20.218  0.00  0.00    +0.000 A 
ATOM     20  C   UNL     1       2.441   6.774  19.662  0.00  0.00    +0.000 A 
BRANCH  15  22
ATOM     21  C   UNL     1       2.882   4.534  17.734  0.00  0.00    +0.000 C 
ATOM     22  O   UNL     1       3.484   5.819  17.651  0.00  0.00    +0.000 OA
ENDBRANCH  15  22
ENDBRANCH   1  18
BRANCH   1  23
ATOM     23  O   UNL     1      -0.828  10.036  19.356  0.00  0.00    +0.000 OA
BRANCH  23  24
ATOM     24  C   UNL     1      -0.887  10.221  17.929  0.00  0.00    +0.000 C 
BRANCH  24  25
ATOM     25  C   UNL     1      -2.317  10.129  17.388  0.00  0.00    +0.000 C 
ATOM     26  F   UNL     1      -3.062   9.207  18.036  0.00  0.00    +0.000 F 
ATOM     27  F   UNL     1      -2.952  11.319  17.498  0.00  0.00    +0.000 F 
ATOM     28  F   UNL     1      -2.309   9.795  16.076  0.00  0.00    +0.000 F 
ENDBRANCH  24  25
ENDBRANCH  23  24
ENDBRANCH   1  23
TORSDOF 5
ENDMDL
