MODEL 1
REMARK VINA RESULT:      -7.6      0.000      0.000
REMARK  Name = 
REMARK  6 active torsions:
REMARK  status: ('A' for Active; 'I' for Inactive)
REMARK    1  A    between atoms: C_2  and  C_3
REMARK    2  A    between atoms: C_3  and  C_4
REMARK    3  A    between atoms: C_3  and  C_7
REMARK    4  A    between atoms: C_4  and  O_6
REMARK    5  A    between atoms: N_10  and  C_11
REMARK    6  A    between atoms: C_11  and  C_12
REMARK                            x       y       z     vdW  Elec       q    Type
REMARK                         _______ _______ _______ _____ _____    ______ ____
ROOT
ATOM      1  C   UNL     1       3.472   4.608  17.155  0.00  0.00    +0.000 C 
ATOM      2  C   UNL     1       3.681   5.982  17.816  0.00  0.00    +0.000 C 
ATOM      3  O   UNL     1       4.447   6.837  17.397  0.00  0.00    +0.000 OA
ATOM      4  N   UNL     1       2.877   6.031  18.955  0.00  0.00    +0.000 N 
ATOM      5  C   UNL     1       2.165   4.834  19.120  0.00  0.00    +0.000 A 
ATOM      6  C   UNL     1       1.314   4.455  20.140  0.00  0.00    +0.000 A 
ATOM      7  C   UNL     1       0.755   3.174  20.088  0.00  0.00    +0.000 A 
ATOM      8  C   UNL     1       1.037   2.309  19.020  0.00  0.00    +0.000 A 
ATOM      9  C   UNL     1       1.890   2.705  17.992  0.00  0.00    +0.000 A 
ATOM     10  C   UNL     1       2.466   3.964  18.070  0.00  0.00    +0.000 A 
ENDROOT
BRANCH   1  11
ATOM     11  C   UNL     1       4.819   3.888  17.011  0.00  0.00    +0.000 C 
BRANCH  11  13
ATOM     12  N   UNL     1       6.017   4.516  14.751  0.00  0.00    +0.000 NA
ATOM     13  C   UNL     1       5.473   4.210  15.729  0.00  0.00    +0.000 C 
ENDBRANCH  11  13
BRANCH  11  14
ATOM     14  C   UNL     1       5.745   4.206  18.165  0.00  0.00    +0.000 C 
ATOM     15  O   UNL     1       5.594   3.832  19.319  0.00  0.00    +0.000 OA
BRANCH  14  16
ATOM     16  O   UNL     1       6.813   4.971  17.830  0.00  0.00    +0.000 OA
ATOM     17  H   UNL     1       6.759   5.930  17.998  0.00  0.00    +0.000 HD
ENDBRANCH  14  16
ENDBRANCH  11  14
ENDBRANCH   1  11
BRANCH   4  18
ATOM     18  C   UNL     1       2.879   7.133  19.894  0.00  0.00    +0.000 C 
BRANCH  18  19
ATOM     19  C   UNL     1       1.834   8.184  19.585  0.00  0.00    +0.000 A 
ATOM     20  C   UNL     1       1.702   8.711  18.290  0.00  0.00    +0.000 A 
ATOM     21  C   UNL     1       0.746   9.694  18.018  0.00  0.00    +0.000 A 
ATOM     22  C   UNL     1      -0.081  10.148  19.038  0.00  0.00    +0.000 A 
ATOM     23  F   UNL     1      -0.989  11.099  18.779  0.00  0.00    +0.000 F 
ATOM     24  C   UNL     1       0.022   9.631  20.323  0.00  0.00    +0.000 A 
ATOM     25  C   UNL     1       0.980   8.653  20.598  0.00  0.00    +0.000 A 
ENDBRANCH  18  19
ENDBRANCH   4  18
TORSDOF 6
ENDMDL
MODEL 2
REMARK VINA RESULT:      -7.5      2.207      3.865
REMARK  Name = 
REMARK  6 active torsions:
REMARK  status: ('A' for Active; 'I' for Inactive)
REMARK    1  A    between atoms: C_2  and  C_3
REMARK    2  A    between atoms: C_3  and  C_4
REMARK    3  A    between atoms: C_3  and  C_7
REMARK    4  A    between atoms: C_4  and  O_6
REMARK    5  A    between atoms: N_10  and  C_11
REMARK    6  A    between atoms: C_11  and  C_12
REMARK                            x       y       z     vdW  Elec       q    Type
REMARK                         _______ _______ _______ _____ _____    ______ ____
ROOT
ATOM      1  C   UNL     1       5.317   3.801  16.354  0.00  0.00    +0.000 C 
ATOM      2  C   UNL     1       3.939   3.776  17.040  0.00  0.00    +0.000 C 
ATOM      3  O   UNL     1       2.911   3.385  16.507  0.00  0.00    +0.000 OA
ATOM      4  N   UNL     1       4.097   4.298  18.325  0.00  0.00    +0.000 N 
ATOM      5  C   UNL     1       5.429   4.671  18.556  0.00  0.00    +0.000 A 
ATOM      6  C   UNL     1       5.989   5.275  19.665  0.00  0.00    +0.000 A 
ATOM      7  C   UNL     1       7.353   5.582  19.627  0.00  0.00    +0.000 A 
ATOM      8  C   UNL     1       8.131   5.266  18.503  0.00  0.00    +0.000 A 
ATOM      9  C   UNL     1       7.557   4.648  17.394  0.00  0.00    +0.000 A 
ATOM     10  C   UNL     1       6.197   4.379  17.427  0.00  0.00    +0.000 A 
ENDROOT
BRANCH   1  11
ATOM     11  C   UNL     1       5.232   4.594  15.044  0.00  0.00    +0.000 C 
BRANCH  11  13
ATOM     12  N   UNL     1       5.102   7.186  15.500  0.00  0.00    +0.000 NA
ATOM     13  C   UNL     1       5.122   6.044  15.292  0.00  0.00    +0.000 C 
ENDBRANCH  11  13
BRANCH  11  14
ATOM     14  C   UNL     1       6.413   4.306  14.142  0.00  0.00    +0.000 C 
ATOM     15  O   UNL     1       7.372   5.044  13.973  0.00  0.00    +0.000 OA
BRANCH  14  16
ATOM     16  O   UNL     1       6.345   3.116  13.495  0.00  0.00    +0.000 OA
ATOM     17  H   UNL     1       7.175   2.624  13.353  0.00  0.00    +0.000 HD
ENDBRANCH  14  16
ENDBRANCH  11  14
ENDBRANCH   1  11
BRANCH   4  18
ATOM     18  C   UNL     1       2.999   4.526  19.241  0.00  0.00    +0.000 C 
BRANCH  18  19
ATOM     19  C   UNL     1       2.532   5.966  19.266  0.00  0.00    +0.000 A 
ATOM     20  C   UNL     1       2.628   6.776  18.123  0.00  0.00    +0.000 A 
ATOM     21  C   UNL     1       2.211   8.110  18.161  0.00  0.00    +0.000 A 
ATOM     22  C   UNL     1       1.696   8.635  19.339  0.00  0.00    +0.000 A 
ATOM     23  F   UNL     1       1.308   9.917  19.378  0.00  0.00    +0.000 F 
ATOM     24  C   UNL     1       1.578   7.849  20.479  0.00  0.00    +0.000 A 
ATOM     25  C   UNL     1       1.999   6.518  20.444  0.00  0.00    +0.000 A 
ENDBRANCH  18  19
ENDBRANCH   4  18
TORSDOF 6
ENDMDL
MODEL 3
REMARK VINA RESULT:      -7.4      0.310      1.204
REMARK  Name = 
REMARK  6 active torsions:
REMARK  status: ('A' for Active; 'I' for Inactive)
REMARK    1  A    between atoms: C_2  and  C_3
REMARK    2  A    between atoms: C_3  and  C_4
REMARK    3  A    between atoms: C_3  and  C_7
REMARK    4  A    between atoms: C_4  and  O_6
REMARK    5  A    between atoms: N_10  and  C_11
REMARK    6  A    between atoms: C_11  and  C_12
REMARK                            x       y       z     vdW  Elec       q    Type
REMARK                         _______ _______ _______ _____ _____    ______ ____
ROOT
ATOM      1  C   UNL     1       3.484   4.633  17.216  0.00  0.00    +0.000 C 
ATOM      2  C   UNL     1       3.680   5.993  17.910  0.00  0.00    +0.000 C 
ATOM      3  O   UNL     1       4.458   6.855  17.527  0.00  0.00    +0.000 OA
ATOM      4  N   UNL     1       2.849   6.021  19.030  0.00  0.00    +0.000 N 
ATOM      5  C   UNL     1       2.131   4.822  19.153  0.00  0.00    +0.000 A 
ATOM      6  C   UNL     1       1.254   4.425  20.144  0.00  0.00    +0.000 A 
ATOM      7  C   UNL     1       0.695   3.146  20.052  0.00  0.00    +0.000 A 
ATOM      8  C   UNL     1       1.001   2.302  18.974  0.00  0.00    +0.000 A 
ATOM      9  C   UNL     1       1.880   2.718  17.975  0.00  0.00    +0.000 A 
ATOM     10  C   UNL     1       2.456   3.973  18.093  0.00  0.00    +0.000 A 
ENDROOT
BRANCH   1  11
ATOM     11  C   UNL     1       4.833   3.913  17.090  0.00  0.00    +0.000 C 
BRANCH  11  13
ATOM     12  N   UNL     1       6.264   4.964  15.144  0.00  0.00    +0.000 NA
ATOM     13  C   UNL     1       5.643   4.467  15.989  0.00  0.00    +0.000 C 
ENDBRANCH  11  13
BRANCH  11  14
ATOM     14  C   UNL     1       5.612   3.961  18.387  0.00  0.00    +0.000 C 
ATOM     15  O   UNL     1       6.552   4.705  18.622  0.00  0.00    +0.000 OA
BRANCH  14  16
ATOM     16  O   UNL     1       5.184   3.083  19.329  0.00  0.00    +0.000 OA
ATOM     17  H   UNL     1       4.853   3.442  20.172  0.00  0.00    +0.000 HD
ENDBRANCH  14  16
ENDBRANCH  11  14
ENDBRANCH   1  11
BRANCH   4  18
ATOM     18  C   UNL     1       2.830   7.103  19.991  0.00  0.00    +0.000 C 
BRANCH  18  19
ATOM     19  C   UNL     1       1.813   8.176  19.663  0.00  0.00    +0.000 A 
ATOM     20  C   UNL     1       0.943   8.672  20.647  0.00  0.00    +0.000 A 
ATOM     21  C   UNL     1      -0.005   9.649  20.330  0.00  0.00    +0.000 A 
ATOM     22  C   UNL     1      -0.082  10.134  19.030  0.00  0.00    +0.000 A 
ATOM     23  F   UNL     1      -1.000  11.061  18.725  0.00  0.00    +0.000 F 
ATOM     24  C   UNL     1       0.777   9.669  18.043  0.00  0.00    +0.000 A 
ATOM     25  C   UNL     1       1.721   8.689  18.357  0.00  0.00    +0.000 A 
ENDBRANCH  18  19
ENDBRANCH   4  18
TORSDOF 6
ENDMDL
MODEL 4
REMARK VINA RESULT:      -7.3      3.342      5.541
REMARK  Name = 
REMARK  6 active torsions:
REMARK  status: ('A' for Active; 'I' for Inactive)
REMARK    1  A    between atoms: C_2  and  C_3
REMARK    2  A    between atoms: C_3  and  C_4
REMARK    3  A    between atoms: C_3  and  C_7
REMARK    4  A    between atoms: C_4  and  O_6
REMARK    5  A    between atoms: N_10  and  C_11
REMARK    6  A    between atoms: C_11  and  C_12
REMARK                            x       y       z     vdW  Elec       q    Type
REMARK                         _______ _______ _______ _____ _____    ______ ____
ROOT
ATOM      1  C   UNL     1       1.997   3.277  18.961  0.00  0.00    +0.000 C 
ATOM      2  C   UNL     1       2.988   3.234  17.784  0.00  0.00    +0.000 C 
ATOM      3  O   UNL     1       3.316   2.213  17.198  0.00  0.00    +0.000 OA
ATOM      4  N   UNL     1       3.435   4.537  17.560  0.00  0.00    +0.000 N 
ATOM      5  C   UNL     1       2.851   5.432  18.467  0.00  0.00    +0.000 A 
ATOM      6  C   UNL     1       3.068   6.788  18.621  0.00  0.00    +0.000 A 
ATOM      7  C   UNL     1       2.379   7.451  19.642  0.00  0.00    +0.000 A 
ATOM      8  C   UNL     1       1.479   6.762  20.469  0.00  0.00    +0.000 A 
ATOM      9  C   UNL     1       1.262   5.396  20.298  0.00  0.00    +0.000 A 
ATOM     10  C   UNL     1       1.975   4.740  19.307  0.00  0.00    +0.000 A 
ENDROOT
BRANCH   1  11
ATOM     11  C   UNL     1       2.461   2.323  20.069  0.00  0.00    +0.000 C 
BRANCH  11  13
ATOM     12  N   UNL     1       5.082   2.255  20.327  0.00  0.00    +0.000 NA
ATOM     13  C   UNL     1       3.930   2.321  20.203  0.00  0.00    +0.000 C 
ENDBRANCH  11  13
BRANCH  11  14
ATOM     14  C   UNL     1       1.815   2.657  21.396  0.00  0.00    +0.000 C 
ATOM     15  O   UNL     1       2.406   3.029  22.399  0.00  0.00    +0.000 OA
BRANCH  14  16
ATOM     16  O   UNL     1       0.466   2.513  21.413  0.00  0.00    +0.000 OA
ATOM     17  H   UNL     1       0.090   1.788  21.946  0.00  0.00    +0.000 HD
ENDBRANCH  14  16
ENDBRANCH  11  14
ENDBRANCH   1  11
BRANCH   4  18
ATOM     18  C   UNL     1       4.457   4.881  16.592  0.00  0.00    +0.000 C 
BRANCH  18  19
ATOM     19  C   UNL     1       5.653   5.574  17.209  0.00  0.00    +0.000 A 
ATOM     20  C   UNL     1       6.397   4.961  18.230  0.00  0.00    +0.000 A 
ATOM     21  C   UNL     1       7.489   5.617  18.805  0.00  0.00    +0.000 A 
ATOM     22  C   UNL     1       7.840   6.885  18.360  0.00  0.00    +0.000 A 
ATOM     23  F   UNL     1       8.880   7.518  18.921  0.00  0.00    +0.000 F 
ATOM     24  C   UNL     1       7.128   7.506  17.342  0.00  0.00    +0.000 A 
ATOM     25  C   UNL     1       6.034   6.854  16.769  0.00  0.00    +0.000 A 
ENDBRANCH  18  19
ENDBRANCH   4  18
TORSDOF 6
ENDMDL
MODEL 5
REMARK VINA RESULT:      -7.1      3.648      5.576
REMARK  Name = 
REMARK  6 active torsions:
REMARK  status: ('A' for Active; 'I' for Inactive)
REMARK    1  A    between atoms: C_2  and  C_3
REMARK    2  A    between atoms: C_3  and  C_4
REMARK    3  A    between atoms: C_3  and  C_7
REMARK    4  A    between atoms: C_4  and  O_6
REMARK    5  A    between atoms: N_10  and  C_11
REMARK    6  A    between atoms: C_11  and  C_12
REMARK                            x       y       z     vdW  Elec       q    Type
REMARK                         _______ _______ _______ _____ _____    ______ ____
ROOT
ATOM      1  C   UNL     1       5.771   6.344  17.013  0.00  0.00    +0.000 C 
ATOM      2  C   UNL     1       4.472   5.706  17.539  0.00  0.00    +0.000 C 
ATOM      3  O   UNL     1       3.903   6.049  18.564  0.00  0.00    +0.000 OA
ATOM      4  N   UNL     1       4.117   4.684  16.658  0.00  0.00    +0.000 N 
ATOM      5  C   UNL     1       5.045   4.574  15.613  0.00  0.00    +0.000 A 
ATOM      6  C   UNL     1       5.094   3.663  14.576  0.00  0.00    +0.000 A 
ATOM      7  C   UNL     1       6.162   3.747  13.677  0.00  0.00    +0.000 A 
ATOM      8  C   UNL     1       7.142   4.741  13.814  0.00  0.00    +0.000 A 
ATOM      9  C   UNL     1       7.078   5.661  14.859  0.00  0.00    +0.000 A 
ATOM     10  C   UNL     1       6.035   5.549  15.765  0.00  0.00    +0.000 A 
ENDROOT
BRANCH   1  11
ATOM     11  C   UNL     1       6.854   6.289  18.098  0.00  0.00    +0.000 C 
BRANCH  11  13
ATOM     12  N   UNL     1       8.328   4.110  17.941  0.00  0.00    +0.000 NA
ATOM     13  C   UNL     1       7.648   5.048  18.010  0.00  0.00    +0.000 C 
ENDBRANCH  11  13
BRANCH  11  14
ATOM     14  C   UNL     1       7.764   7.497  18.037  0.00  0.00    +0.000 C 
ATOM     15  O   UNL     1       7.733   8.365  17.177  0.00  0.00    +0.000 OA
BRANCH  14  16
ATOM     16  O   UNL     1       8.668   7.568  19.046  0.00  0.00    +0.000 OA
ATOM     17  H   UNL     1       8.361   7.368  19.949  0.00  0.00    +0.000 HD
ENDBRANCH  14  16
ENDBRANCH  11  14
ENDBRANCH   1  11
BRANCH   4  18
ATOM     18  C   UNL     1       3.000   3.788  16.874  0.00  0.00    +0.000 C 
BRANCH  18  19
ATOM     19  C   UNL     1       2.722   3.524  18.339  0.00  0.00    +0.000 A 
ATOM     20  C   UNL     1       3.643   2.825  19.135  0.00  0.00    +0.000 A 
ATOM     21  C   UNL     1       3.369   2.570  20.482  0.00  0.00    +0.000 A 
ATOM     22  C   UNL     1       2.176   3.017  21.035  0.00  0.00    +0.000 A 
ATOM     23  F   UNL     1       1.909   2.761  22.323  0.00  0.00    +0.000 F 
ATOM     24  C   UNL     1       1.255   3.722  20.272  0.00  0.00    +0.000 A 
ATOM     25  C   UNL     1       1.525   3.973  18.925  0.00  0.00    +0.000 A 
ENDBRANCH  18  19
ENDBRANCH   4  18
TORSDOF 6
ENDMDL
MODEL 6
REMARK VINA RESULT:      -6.9      3.603      6.753
REMARK  Name = 
REMARK  6 active torsions:
REMARK  status: ('A' for Active; 'I' for Inactive)
REMARK    1  A    between atoms: C_2  and  C_3
REMARK    2  A    between atoms: C_3  and  C_4
REMARK    3  A    between atoms: C_3  and  C_7
REMARK    4  A    between atoms: C_4  and  O_6
REMARK    5  A    between atoms: N_10  and  C_11
REMARK    6  A    between atoms: C_11  and  C_12
REMARK                            x       y       z     vdW  Elec       q    Type
REMARK                         _______ _______ _______ _____ _____    ______ ____
ROOT
ATOM      1  C   UNL     1       2.665   3.730  17.811  0.00  0.00    +0.000 C 
ATOM      2  C   UNL     1       4.060   3.234  17.389  0.00  0.00    +0.000 C 
ATOM      3  O   UNL     1       4.383   2.057  17.328  0.00  0.00    +0.000 OA
ATOM      4  N   UNL     1       4.849   4.357  17.135  0.00  0.00    +0.000 N 
ATOM      5  C   UNL     1       4.126   5.539  17.351  0.00  0.00    +0.000 A 
ATOM      6  C   UNL     1       4.549   6.851  17.269  0.00  0.00    +0.000 A 
ATOM      7  C   UNL     1       3.629   7.859  17.577  0.00  0.00    +0.000 A 
ATOM      8  C   UNL     1       2.309   7.543  17.936  0.00  0.00    +0.000 A 
ATOM      9  C   UNL     1       1.891   6.216  18.006  0.00  0.00    +0.000 A 
ATOM     10  C   UNL     1       2.820   5.223  17.733  0.00  0.00    +0.000 A 
ENDROOT
BRANCH   1  11
ATOM     11  C   UNL     1       2.301   3.154  19.185  0.00  0.00    +0.000 C 
BRANCH  11  13
ATOM     12  N   UNL     1       2.745   4.918  21.091  0.00  0.00    +0.000 NA
ATOM     13  C   UNL     1       2.574   4.118  20.268  0.00  0.00    +0.000 C 
ENDBRANCH  11  13
BRANCH  11  14
ATOM     14  C   UNL     1       0.856   2.708  19.235  0.00  0.00    +0.000 C 
ATOM     15  O   UNL     1       0.277   2.079  18.362  0.00  0.00    +0.000 OA
BRANCH  14  16
ATOM     16  O   UNL     1       0.199   3.064  20.368  0.00  0.00    +0.000 OA
ATOM     17  H   UNL     1       0.070   4.014  20.542  0.00  0.00    +0.000 HD
ENDBRANCH  14  16
ENDBRANCH  11  14
ENDBRANCH   1  11
BRANCH   4  18
ATOM     18  C   UNL     1       6.258   4.292  16.808  0.00  0.00    +0.000 C 
BRANCH  18  19
ATOM     19  C   UNL     1       6.529   4.358  15.320  0.00  0.00    +0.000 A 
ATOM     20  C   UNL     1       7.531   5.195  14.804  0.00  0.00    +0.000 A 
ATOM     21  C   UNL     1       7.762   5.262  13.427  0.00  0.00    +0.000 A 
ATOM     22  C   UNL     1       6.993   4.491  12.564  0.00  0.00    +0.000 A 
ATOM     23  F   UNL     1       7.206   4.566  11.243  0.00  0.00    +0.000 F 
ATOM     24  C   UNL     1       6.005   3.645  13.052  0.00  0.00    +0.000 A 
ATOM     25  C   UNL     1       5.770   3.581  14.427  0.00  0.00    +0.000 A 
ENDBRANCH  18  19
ENDBRANCH   4  18
TORSDOF 6
ENDMDL
MODEL 7
REMARK VINA RESULT:      -6.9      1.461      2.022
REMARK  Name = 
REMARK  6 active torsions:
REMARK  status: ('A' for Active; 'I' for Inactive)
REMARK    1  A    between atoms: C_2  and  C_3
REMARK    2  A    between atoms: C_3  and  C_4
REMARK    3  A    between atoms: C_3  and  C_7
REMARK    4  A    between atoms: C_4  and  O_6
REMARK    5  A    between atoms: N_10  and  C_11
REMARK    6  A    between atoms: C_11  and  C_12
REMARK                            x       y       z     vdW  Elec       q    Type
REMARK                         _______ _______ _______ _____ _____    ______ ____
ROOT
ATOM      1  C   UNL     1       3.484   5.521  17.292  0.00  0.00    +0.000 C 
ATOM      2  C   UNL     1       3.379   6.817  18.115  0.00  0.00    +0.000 C 
ATOM      3  O   UNL     1       3.989   7.846  17.860  0.00  0.00    +0.000 OA
ATOM      4  N   UNL     1       2.509   6.575  19.179  0.00  0.00    +0.000 N 
ATOM      5  C   UNL     1       2.036   5.255  19.150  0.00  0.00    +0.000 A 
ATOM      6  C   UNL     1       1.211   4.601  20.044  0.00  0.00    +0.000 A 
ATOM      7  C   UNL     1       0.918   3.255  19.804  0.00  0.00    +0.000 A 
ATOM      8  C   UNL     1       1.430   2.596  18.676  0.00  0.00    +0.000 A 
ATOM      9  C   UNL     1       2.254   3.269  17.775  0.00  0.00    +0.000 A 
ATOM     10  C   UNL     1       2.567   4.593  18.040  0.00  0.00    +0.000 A 
ENDROOT
BRANCH   1  11
ATOM     11  C   UNL     1       4.952   5.088  17.188  0.00  0.00    +0.000 C 
BRANCH  11  13
ATOM     12  N   UNL     1       5.713   3.902  19.414  0.00  0.00    +0.000 NA
ATOM     13  C   UNL     1       5.407   4.409  18.416  0.00  0.00    +0.000 C 
ENDBRANCH  11  13
BRANCH  11  14
ATOM     14  C   UNL     1       5.185   4.201  15.983  0.00  0.00    +0.000 C 
ATOM     15  O   UNL     1       5.088   4.551  14.816  0.00  0.00    +0.000 OA
BRANCH  14  16
ATOM     16  O   UNL     1       5.527   2.924  16.286  0.00  0.00    +0.000 OA
ATOM     17  H   UNL     1       6.261   2.517  15.790  0.00  0.00    +0.000 HD
ENDBRANCH  14  16
ENDBRANCH  11  14
ENDBRANCH   1  11
BRANCH   4  18
ATOM     18  C   UNL     1       2.236   7.533  20.230  0.00  0.00    +0.000 C 
BRANCH  18  19
ATOM     19  C   UNL     1       1.230   8.590  19.827  0.00  0.00    +0.000 A 
ATOM     20  C   UNL     1       0.394   9.192  20.781  0.00  0.00    +0.000 A 
ATOM     21  C   UNL     1      -0.544  10.154  20.397  0.00  0.00    +0.000 A 
ATOM     22  C   UNL     1      -0.647  10.517  19.060  0.00  0.00    +0.000 A 
ATOM     23  F   UNL     1      -1.555  11.430  18.691  0.00  0.00    +0.000 F 
ATOM     24  C   UNL     1       0.179   9.946  18.100  0.00  0.00    +0.000 A 
ATOM     25  C   UNL     1       1.113   8.981  18.481  0.00  0.00    +0.000 A 
ENDBRANCH  18  19
ENDBRANCH   4  18
TORSDOF 6
ENDMDL
MODEL 8
REMARK VINA RESULT:      -6.6      1.619      1.975
REMARK  Name = 
REMARK  6 active torsions:
REMARK  status: ('A' for Active; 'I' for Inactive)
REMARK    1  A    between atoms: C_2  and  C_3
REMARK    2  A    between atoms: C_3  and  C_4
REMARK    3  A    between atoms: C_3  and  C_7
REMARK    4  A    between atoms: C_4  and  O_6
REMARK    5  A    between atoms: N_10  and  C_11
REMARK    6  A    between atoms: C_11  and  C_12
REMARK                            x       y       z     vdW  Elec       q    Type
REMARK                         _______ _______ _______ _____ _____    ______ ____
ROOT
ATOM      1  C   UNL     1       4.649   4.271  15.987  0.00  0.00    +0.000 C 
ATOM      2  C   UNL     1       4.780   5.724  16.476  0.00  0.00    +0.000 C 
ATOM      3  O   UNL     1       5.231   6.639  15.802  0.00  0.00    +0.000 OA
ATOM      4  N   UNL     1       4.329   5.770  17.795  0.00  0.00    +0.000 N 
ATOM      5  C   UNL     1       3.921   4.501  18.231  0.00  0.00    +0.000 A 
ATOM      6  C   UNL     1       3.469   4.105  19.475  0.00  0.00    +0.000 A 
ATOM      7  C   UNL     1       3.161   2.755  19.664  0.00  0.00    +0.000 A 
ATOM      8  C   UNL     1       3.287   1.833  18.613  0.00  0.00    +0.000 A 
ATOM      9  C   UNL     1       3.735   2.245  17.359  0.00  0.00    +0.000 A 
ATOM     10  C   UNL     1       4.071   3.580  17.191  0.00  0.00    +0.000 A 
ENDROOT
BRANCH   1  11
ATOM     11  C   UNL     1       6.010   3.760  15.498  0.00  0.00    +0.000 C 
BRANCH  11  13
ATOM     12  N   UNL     1       6.102   3.759  12.865  0.00  0.00    +0.000 NA
ATOM     13  C   UNL     1       6.097   3.771  14.025  0.00  0.00    +0.000 C 
ENDBRANCH  11  13
BRANCH  11  14
ATOM     14  C   UNL     1       7.149   4.557  16.095  0.00  0.00    +0.000 C 
ATOM     15  O   UNL     1       7.582   4.433  17.232  0.00  0.00    +0.000 OA
BRANCH  14  16
ATOM     16  O   UNL     1       7.697   5.468  15.253  0.00  0.00    +0.000 OA
ATOM     17  H   UNL     1       7.136   6.205  14.949  0.00  0.00    +0.000 HD
ENDBRANCH  14  16
ENDBRANCH  11  14
ENDBRANCH   1  11
BRANCH   4  18
ATOM     18  C   UNL     1       4.392   6.953  18.627  0.00  0.00    +0.000 C 
BRANCH  18  19
ATOM     19  C   UNL     1       3.078   7.702  18.699  0.00  0.00    +0.000 A 
ATOM     20  C   UNL     1       2.637   8.492  17.625  0.00  0.00    +0.000 A 
ATOM     21  C   UNL     1       1.431   9.194  17.708  0.00  0.00    +0.000 A 
ATOM     22  C   UNL     1       0.664   9.106  18.863  0.00  0.00    +0.000 A 
ATOM     23  F   UNL     1      -0.486   9.790  18.946  0.00  0.00    +0.000 F 
ATOM     24  C   UNL     1       1.072   8.320  19.933  0.00  0.00    +0.000 A 
ATOM     25  C   UNL     1       2.279   7.622  19.853  0.00  0.00    +0.000 A 
ENDBRANCH  18  19
ENDBRANCH   4  18
TORSDOF 6
ENDMDL
MODEL 9
REMARK VINA RESULT:      -6.6      3.476      6.572
REMARK  Name = 
REMARK  6 active torsions:
REMARK  status: ('A' for Active; 'I' for Inactive)
REMARK    1  A    between atoms: C_2  and  C_3
REMARK    2  A    between atoms: C_3  and  C_4
REMARK    3  A    between atoms: C_3  and  C_7
REMARK    4  A    between atoms: C_4  and  O_6
REMARK    5  A    between atoms: N_10  and  C_11
REMARK    6  A    between atoms: C_11  and  C_12
REMARK                            x       y       z     vdW  Elec       q    Type
REMARK                         _______ _______ _______ _____ _____    ______ ____
ROOT
ATOM      1  C   UNL     1       2.052   4.430  17.793  0.00  0.00    +0.000 C 
ATOM      2  C   UNL     1       3.303   3.597  17.459  0.00  0.00    +0.000 C 
ATOM      3  O   UNL     1       3.330   2.376  17.435  0.00  0.00    +0.000 OA
ATOM      4  N   UNL     1       4.354   4.486  17.231  0.00  0.00    +0.000 N 
ATOM      5  C   UNL     1       3.933   5.814  17.387  0.00  0.00    +0.000 A 
ATOM      6  C   UNL     1       4.667   6.981  17.308  0.00  0.00    +0.000 A 
ATOM      7  C   UNL     1       4.008   8.191  17.547  0.00  0.00    +0.000 A 
ATOM      8  C   UNL     1       2.635   8.217  17.837  0.00  0.00    +0.000 A 
ATOM      9  C   UNL     1       1.901   7.034  17.905  0.00  0.00    +0.000 A 
ATOM     10  C   UNL     1       2.572   5.838  17.701  0.00  0.00    +0.000 A 
ENDROOT
BRANCH   1  11
ATOM     11  C   UNL     1       1.489   4.001  19.154  0.00  0.00    +0.000 C 
BRANCH  11  13
ATOM     12  N   UNL     1       0.209   1.705  18.966  0.00  0.00    +0.000 NA
ATOM     13  C   UNL     1       0.799   2.700  19.071  0.00  0.00    +0.000 C 
ENDBRANCH  11  13
BRANCH  11  14
ATOM     14  C   UNL     1       2.570   3.952  20.212  0.00  0.00    +0.000 C 
ATOM     15  O   UNL     1       3.076   4.923  20.754  0.00  0.00    +0.000 OA
BRANCH  14  16
ATOM     16  O   UNL     1       2.971   2.699  20.545  0.00  0.00    +0.000 OA
ATOM     17  H   UNL     1       2.295   1.997  20.581  0.00  0.00    +0.000 HD
ENDBRANCH  14  16
ENDBRANCH  11  14
ENDBRANCH   1  11
BRANCH   4  18
ATOM     18  C   UNL     1       5.719   4.071  16.985  0.00  0.00    +0.000 C 
BRANCH  18  19
ATOM     19  C   UNL     1       6.135   4.214  15.536  0.00  0.00    +0.000 A 
ATOM     20  C   UNL     1       5.452   3.529  14.518  0.00  0.00    +0.000 A 
ATOM     21  C   UNL     1       5.854   3.654  13.185  0.00  0.00    +0.000 A 
ATOM     22  C   UNL     1       6.937   4.465  12.868  0.00  0.00    +0.000 A 
ATOM     23  F   UNL     1       7.329   4.573  11.591  0.00  0.00    +0.000 F 
ATOM     24  C   UNL     1       7.619   5.163  13.856  0.00  0.00    +0.000 A 
ATOM     25  C   UNL     1       7.222   5.035  15.189  0.00  0.00    +0.000 A 
ENDBRANCH  18  19
ENDBRANCH   4  18
TORSDOF 6
ENDMDL
