MODEL 1
REMARK VINA RESULT:      -8.3      0.000      0.000
REMARK  Name = 
REMARK  10 active torsions:
REMARK  status: ('A' for Active; 'I' for Inactive)
REMARK    1  A    between atoms: C_1  and  C_2
REMARK    2  A    between atoms: C_5  and  C_6
REMARK    3  A    between atoms: C_6  and  C_7
REMARK    4  A    between atoms: C_7  and  C_8
REMARK    5  A    between atoms: C_12  and  C_13
REMARK    6  A    between atoms: C_15  and  C_16
REMARK    7  A    between atoms: C_16  and  O_17
REMARK    8  A    between atoms: C_18  and  O_19
REMARK    9  A    between atoms: C_20  and  O_21
REMARK   10  A    between atoms: C_22  and  O_23
REMARK                            x       y       z     vdW  Elec       q    Type
REMARK                         _______ _______ _______ _____ _____    ______ ____
ROOT
ATOM      1  C   UNL     1       1.895   5.664  20.359  0.00  0.00    +0.000 A 
ATOM      2  C   UNL     1       1.327   4.381  20.336  0.00  0.00    +0.000 A 
ATOM      3  C   UNL     1       1.900   3.363  19.579  0.00  0.00    +0.000 A 
ATOM      4  C   UNL     1       3.047   3.612  18.831  0.00  0.00    +0.000 A 
ATOM      5  C   UNL     1       3.651   4.878  18.849  0.00  0.00    +0.000 A 
ATOM      6  C   UNL     1       3.084   5.884  19.647  0.00  0.00    +0.000 A 
ENDROOT
BRANCH   5   7
ATOM      7  C   UNL     1       4.803   5.178  17.908  0.00  0.00    +0.000 C 
ATOM      8  O   UNL     1       4.533   4.637  16.605  0.00  0.00    +0.000 OA
ATOM      9  C   UNL     1       5.564   4.960  15.663  0.00  0.00    +0.000 C 
ATOM     10  C   UNL     1       6.889   4.318  16.076  0.00  0.00    +0.000 C 
ATOM     11  C   UNL     1       7.266   4.775  17.493  0.00  0.00    +0.000 C 
ATOM     12  C   UNL     1       6.116   4.594  18.488  0.00  0.00    +0.000 C 
BRANCH  10  13
ATOM     13  O   UNL     1       7.927   4.692  15.159  0.00  0.00    +0.000 OA
ATOM     14  H   UNL     1       7.496   4.950  14.318  0.00  0.00    +0.000 HD
ENDBRANCH  10  13
BRANCH  11  15
ATOM     15  O   UNL     1       8.451   4.072  17.896  0.00  0.00    +0.000 OA
ATOM     16  H   UNL     1       8.263   3.615  18.738  0.00  0.00    +0.000 HD
ENDBRANCH  11  15
BRANCH  12  17
ATOM     17  O   UNL     1       6.491   5.215  19.728  0.00  0.00    +0.000 OA
ATOM     18  H   UNL     1       5.690   5.367  20.255  0.00  0.00    +0.000 HD
ENDBRANCH  12  17
BRANCH   9  19
ATOM     19  C   UNL     1       5.149   4.496  14.256  0.00  0.00    +0.000 C 
BRANCH  19  20
ATOM     20  O   UNL     1       5.981   3.447  13.764  0.00  0.00    +0.000 OA
ATOM     21  H   UNL     1       5.775   3.338  12.811  0.00  0.00    +0.000 HD
ENDBRANCH  19  20
ENDBRANCH   9  19
ENDBRANCH   5   7
BRANCH   1  22
ATOM     22  C   UNL     1       1.205   6.747  21.154  0.00  0.00    +0.000 C 
BRANCH  22  23
ATOM     23  C   UNL     1       1.402   8.197  20.684  0.00  0.00    +0.000 C 
BRANCH  23  28
ATOM     24  C   UNL     1      -1.225  12.775  23.075  0.00  0.00    +0.000 C 
ATOM     25  C   UNL     1      -0.774  11.532  22.363  0.00  0.00    +0.000 A 
ATOM     26  C   UNL     1      -0.816  10.289  23.008  0.00  0.00    +0.000 A 
ATOM     27  C   UNL     1      -0.196   9.172  22.440  0.00  0.00    +0.000 A 
ATOM     28  C   UNL     1       0.486   9.276  21.222  0.00  0.00    +0.000 A 
ATOM     29  C   UNL     1       0.435  10.500  20.535  0.00  0.00    +0.000 A 
ATOM     30  C   UNL     1      -0.185  11.616  21.101  0.00  0.00    +0.000 A 
ENDBRANCH  23  28
ENDBRANCH  22  23
ENDBRANCH   1  22
TORSDOF 9
ENDMDL
MODEL 2
REMARK VINA RESULT:      -8.2      1.365      2.482
REMARK  Name = 
REMARK  10 active torsions:
REMARK  status: ('A' for Active; 'I' for Inactive)
REMARK    1  A    between atoms: C_1  and  C_2
REMARK    2  A    between atoms: C_5  and  C_6
REMARK    3  A    between atoms: C_6  and  C_7
REMARK    4  A    between atoms: C_7  and  C_8
REMARK    5  A    between atoms: C_12  and  C_13
REMARK    6  A    between atoms: C_15  and  C_16
REMARK    7  A    between atoms: C_16  and  O_17
REMARK    8  A    between atoms: C_18  and  O_19
REMARK    9  A    between atoms: C_20  and  O_21
REMARK   10  A    between atoms: C_22  and  O_23
REMARK                            x       y       z     vdW  Elec       q    Type
REMARK                         _______ _______ _______ _____ _____    ______ ____
ROOT
ATOM      1  C   UNL     1       2.091   5.225  20.587  0.00  0.00    +0.000 A 
ATOM      2  C   UNL     1       1.810   3.989  21.191  0.00  0.00    +0.000 A 
ATOM      3  C   UNL     1       2.645   2.893  20.991  0.00  0.00    +0.000 A 
ATOM      4  C   UNL     1       3.772   3.014  20.182  0.00  0.00    +0.000 A 
ATOM      5  C   UNL     1       4.092   4.241  19.582  0.00  0.00    +0.000 A 
ATOM      6  C   UNL     1       3.262   5.347  19.824  0.00  0.00    +0.000 A 
ENDROOT
BRANCH   5   7
ATOM      7  C   UNL     1       5.229   4.317  18.580  0.00  0.00    +0.000 C 
ATOM      8  O   UNL     1       5.868   5.602  18.651  0.00  0.00    +0.000 OA
ATOM      9  C   UNL     1       6.995   5.693  17.771  0.00  0.00    +0.000 C 
ATOM     10  C   UNL     1       6.550   5.569  16.313  0.00  0.00    +0.000 C 
ATOM     11  C   UNL     1       5.792   4.248  16.114  0.00  0.00    +0.000 C 
ATOM     12  C   UNL     1       4.685   4.049  17.153  0.00  0.00    +0.000 C 
BRANCH  10  13
ATOM     13  O   UNL     1       7.689   5.606  15.443  0.00  0.00    +0.000 OA
ATOM     14  H   UNL     1       8.420   6.033  15.935  0.00  0.00    +0.000 HD
ENDBRANCH  10  13
BRANCH  11  15
ATOM     15  O   UNL     1       5.290   4.211  14.769  0.00  0.00    +0.000 OA
ATOM     16  H   UNL     1       5.071   5.123  14.500  0.00  0.00    +0.000 HD
ENDBRANCH  11  15
BRANCH  12  17
ATOM     17  O   UNL     1       4.164   2.719  17.007  0.00  0.00    +0.000 OA
ATOM     18  H   UNL     1       4.428   2.194  17.781  0.00  0.00    +0.000 HD
ENDBRANCH  12  17
BRANCH   9  19
ATOM     19  C   UNL     1       7.733   7.024  18.004  0.00  0.00    +0.000 C 
BRANCH  19  20
ATOM     20  O   UNL     1       7.455   7.982  16.985  0.00  0.00    +0.000 OA
ATOM     21  H   UNL     1       7.743   8.857  17.325  0.00  0.00    +0.000 HD
ENDBRANCH  19  20
ENDBRANCH   9  19
ENDBRANCH   5   7
BRANCH   1  22
ATOM     22  C   UNL     1       1.125   6.367  20.795  0.00  0.00    +0.000 C 
BRANCH  22  23
ATOM     23  C   UNL     1       1.635   7.782  20.478  0.00  0.00    +0.000 C 
BRANCH  23  28
ATOM     24  C   UNL     1      -1.851  11.702  22.939  0.00  0.00    +0.000 C 
ATOM     25  C   UNL     1      -0.765  10.859  22.337  0.00  0.00    +0.000 A 
ATOM     26  C   UNL     1      -0.471  10.948  20.970  0.00  0.00    +0.000 A 
ATOM     27  C   UNL     1       0.376  10.016  20.363  0.00  0.00    +0.000 A 
ATOM     28  C   UNL     1       0.939   8.972  21.106  0.00  0.00    +0.000 A 
ATOM     29  C   UNL     1       0.721   8.952  22.492  0.00  0.00    +0.000 A 
ATOM     30  C   UNL     1      -0.125   9.882  23.101  0.00  0.00    +0.000 A 
ENDBRANCH  23  28
ENDBRANCH  22  23
ENDBRANCH   1  22
TORSDOF 9
ENDMDL
MODEL 3
REMARK VINA RESULT:      -8.0      1.683      2.943
REMARK  Name = 
REMARK  10 active torsions:
REMARK  status: ('A' for Active; 'I' for Inactive)
REMARK    1  A    between atoms: C_1  and  C_2
REMARK    2  A    between atoms: C_5  and  C_6
REMARK    3  A    between atoms: C_6  and  C_7
REMARK    4  A    between atoms: C_7  and  C_8
REMARK    5  A    between atoms: C_12  and  C_13
REMARK    6  A    between atoms: C_15  and  C_16
REMARK    7  A    between atoms: C_16  and  O_17
REMARK    8  A    between atoms: C_18  and  O_19
REMARK    9  A    between atoms: C_20  and  O_21
REMARK   10  A    between atoms: C_22  and  O_23
REMARK                            x       y       z     vdW  Elec       q    Type
REMARK                         _______ _______ _______ _____ _____    ______ ____
ROOT
ATOM      1  C   UNL     1       2.121   5.133  20.609  0.00  0.00    +0.000 A 
ATOM      2  C   UNL     1       1.845   3.889  21.197  0.00  0.00    +0.000 A 
ATOM      3  C   UNL     1       2.682   2.797  20.979  0.00  0.00    +0.000 A 
ATOM      4  C   UNL     1       3.806   2.932  20.169  0.00  0.00    +0.000 A 
ATOM      5  C   UNL     1       4.122   4.168  19.585  0.00  0.00    +0.000 A 
ATOM      6  C   UNL     1       3.290   5.268  19.844  0.00  0.00    +0.000 A 
ENDROOT
BRANCH   5   7
ATOM      7  C   UNL     1       5.255   4.260  18.580  0.00  0.00    +0.000 C 
ATOM      8  O   UNL     1       5.882   5.551  18.657  0.00  0.00    +0.000 OA
ATOM      9  C   UNL     1       7.006   5.657  17.775  0.00  0.00    +0.000 C 
ATOM     10  C   UNL     1       6.559   5.537  16.318  0.00  0.00    +0.000 C 
ATOM     11  C   UNL     1       5.814   4.209  16.113  0.00  0.00    +0.000 C 
ATOM     12  C   UNL     1       4.711   3.994  17.154  0.00  0.00    +0.000 C 
BRANCH  10  13
ATOM     13  O   UNL     1       7.696   5.589  15.445  0.00  0.00    +0.000 OA
ATOM     14  H   UNL     1       7.653   6.439  14.960  0.00  0.00    +0.000 HD
ENDBRANCH  10  13
BRANCH  11  15
ATOM     15  O   UNL     1       5.310   4.174  14.769  0.00  0.00    +0.000 OA
ATOM     16  H   UNL     1       5.671   3.382  14.329  0.00  0.00    +0.000 HD
ENDBRANCH  11  15
BRANCH  12  17
ATOM     17  O   UNL     1       4.203   2.659  17.002  0.00  0.00    +0.000 OA
ATOM     18  H   UNL     1       3.234   2.700  16.942  0.00  0.00    +0.000 HD
ENDBRANCH  12  17
BRANCH   9  19
ATOM     19  C   UNL     1       7.732   6.994  18.013  0.00  0.00    +0.000 C 
BRANCH  19  20
ATOM     20  O   UNL     1       7.402   7.972  17.029  0.00  0.00    +0.000 OA
ATOM     21  H   UNL     1       8.203   8.521  16.887  0.00  0.00    +0.000 HD
ENDBRANCH  19  20
ENDBRANCH   9  19
ENDBRANCH   5   7
BRANCH   1  22
ATOM     22  C   UNL     1       1.153   6.270  20.834  0.00  0.00    +0.000 C 
BRANCH  22  23
ATOM     23  C   UNL     1       1.746   7.684  20.946  0.00  0.00    +0.000 C 
BRANCH  23  28
ATOM     24  C   UNL     1      -1.538  11.372  17.914  0.00  0.00    +0.000 C 
ATOM     25  C   UNL     1      -0.527  10.612  18.723  0.00  0.00    +0.000 A 
ATOM     26  C   UNL     1       0.522   9.931  18.091  0.00  0.00    +0.000 A 
ATOM     27  C   UNL     1       1.330   9.045  18.810  0.00  0.00    +0.000 A 
ATOM     28  C   UNL     1       1.102   8.815  20.172  0.00  0.00    +0.000 A 
ATOM     29  C   UNL     1       0.116   9.577  20.817  0.00  0.00    +0.000 A 
ATOM     30  C   UNL     1      -0.692  10.463  20.100  0.00  0.00    +0.000 A 
ENDBRANCH  23  28
ENDBRANCH  22  23
ENDBRANCH   1  22
TORSDOF 9
ENDMDL
MODEL 4
REMARK VINA RESULT:      -8.0      1.178      1.878
REMARK  Name = 
REMARK  10 active torsions:
REMARK  status: ('A' for Active; 'I' for Inactive)
REMARK    1  A    between atoms: C_1  and  C_2
REMARK    2  A    between atoms: C_5  and  C_6
REMARK    3  A    between atoms: C_6  and  C_7
REMARK    4  A    between atoms: C_7  and  C_8
REMARK    5  A    between atoms: C_12  and  C_13
REMARK    6  A    between atoms: C_15  and  C_16
REMARK    7  A    between atoms: C_16  and  O_17
REMARK    8  A    between atoms: C_18  and  O_19
REMARK    9  A    between atoms: C_20  and  O_21
REMARK   10  A    between atoms: C_22  and  O_23
REMARK                            x       y       z     vdW  Elec       q    Type
REMARK                         _______ _______ _______ _____ _____    ______ ____
ROOT
ATOM      1  C   UNL     1       1.877   5.717  20.448  0.00  0.00    +0.000 A 
ATOM      2  C   UNL     1       1.482   4.380  20.610  0.00  0.00    +0.000 A 
ATOM      3  C   UNL     1       2.193   3.349  20.001  0.00  0.00    +0.000 A 
ATOM      4  C   UNL     1       3.307   3.639  19.220  0.00  0.00    +0.000 A 
ATOM      5  C   UNL     1       3.741   4.963  19.056  0.00  0.00    +0.000 A 
ATOM      6  C   UNL     1       3.037   5.988  19.706  0.00  0.00    +0.000 A 
ENDROOT
BRANCH   5   7
ATOM      7  C   UNL     1       4.857   5.276  18.076  0.00  0.00    +0.000 C 
ATOM      8  O   UNL     1       4.502   4.824  16.760  0.00  0.00    +0.000 OA
ATOM      9  C   UNL     1       5.498   5.165  15.787  0.00  0.00    +0.000 C 
ATOM     10  C   UNL     1       6.815   4.451  16.093  0.00  0.00    +0.000 C 
ATOM     11  C   UNL     1       7.279   4.808  17.514  0.00  0.00    +0.000 C 
ATOM     12  C   UNL     1       6.173   4.611  18.554  0.00  0.00    +0.000 C 
BRANCH  10  13
ATOM     13  O   UNL     1       7.821   4.840  15.148  0.00  0.00    +0.000 OA
ATOM     14  H   UNL     1       7.659   5.778  14.918  0.00  0.00    +0.000 HD
ENDBRANCH  10  13
BRANCH  11  15
ATOM     15  O   UNL     1       8.454   4.039  17.814  0.00  0.00    +0.000 OA
ATOM     16  H   UNL     1       8.381   3.181  17.357  0.00  0.00    +0.000 HD
ENDBRANCH  11  15
BRANCH  12  17
ATOM     17  O   UNL     1       6.632   5.143  19.807  0.00  0.00    +0.000 OA
ATOM     18  H   UNL     1       5.887   5.162  20.429  0.00  0.00    +0.000 HD
ENDBRANCH  12  17
BRANCH   9  19
ATOM     19  C   UNL     1       4.997   4.801  14.378  0.00  0.00    +0.000 C 
BRANCH  19  20
ATOM     20  O   UNL     1       5.700   3.692  13.823  0.00  0.00    +0.000 OA
ATOM     21  H   UNL     1       6.658   3.902  13.876  0.00  0.00    +0.000 HD
ENDBRANCH  19  20
ENDBRANCH   9  19
ENDBRANCH   5   7
BRANCH   1  22
ATOM     22  C   UNL     1       1.041   6.801  21.086  0.00  0.00    +0.000 C 
BRANCH  22  23
ATOM     23  C   UNL     1       1.599   8.233  21.046  0.00  0.00    +0.000 C 
BRANCH  23  28
ATOM     24  C   UNL     1      -1.844  11.517  17.741  0.00  0.00    +0.000 C 
ATOM     25  C   UNL     1      -0.801  10.871  18.605  0.00  0.00    +0.000 A 
ATOM     26  C   UNL     1       0.281  10.195  18.027  0.00  0.00    +0.000 A 
ATOM     27  C   UNL     1       1.128   9.406  18.812  0.00  0.00    +0.000 A 
ATOM     28  C   UNL     1       0.905   9.269  20.188  0.00  0.00    +0.000 A 
ATOM     29  C   UNL     1      -0.120  10.030  20.772  0.00  0.00    +0.000 A 
ATOM     30  C   UNL     1      -0.966  10.819  19.990  0.00  0.00    +0.000 A 
ENDBRANCH  23  28
ENDBRANCH  22  23
ENDBRANCH   1  22
TORSDOF 9
ENDMDL
MODEL 5
REMARK VINA RESULT:      -7.9      1.160      2.724
REMARK  Name = 
REMARK  10 active torsions:
REMARK  status: ('A' for Active; 'I' for Inactive)
REMARK    1  A    between atoms: C_1  and  C_2
REMARK    2  A    between atoms: C_5  and  C_6
REMARK    3  A    between atoms: C_6  and  C_7
REMARK    4  A    between atoms: C_7  and  C_8
REMARK    5  A    between atoms: C_12  and  C_13
REMARK    6  A    between atoms: C_15  and  C_16
REMARK    7  A    between atoms: C_16  and  O_17
REMARK    8  A    between atoms: C_18  and  O_19
REMARK    9  A    between atoms: C_20  and  O_21
REMARK   10  A    between atoms: C_22  and  O_23
REMARK                            x       y       z     vdW  Elec       q    Type
REMARK                         _______ _______ _______ _____ _____    ______ ____
ROOT
ATOM      1  C   UNL     1       1.687   5.082  20.614  0.00  0.00    +0.000 A 
ATOM      2  C   UNL     1       1.222   3.872  21.151  0.00  0.00    +0.000 A 
ATOM      3  C   UNL     1       1.916   2.684  20.935  0.00  0.00    +0.000 A 
ATOM      4  C   UNL     1       3.084   2.688  20.177  0.00  0.00    +0.000 A 
ATOM      5  C   UNL     1       3.586   3.885  19.645  0.00  0.00    +0.000 A 
ATOM      6  C   UNL     1       2.896   5.079  19.903  0.00  0.00    +0.000 A 
ENDROOT
BRANCH   5   7
ATOM      7  C   UNL     1       4.766   3.850  18.691  0.00  0.00    +0.000 C 
ATOM      8  O   UNL     1       5.806   4.725  19.157  0.00  0.00    +0.000 OA
ATOM      9  C   UNL     1       6.971   4.669  18.324  0.00  0.00    +0.000 C 
ATOM     10  C   UNL     1       6.650   5.174  16.916  0.00  0.00    +0.000 C 
ATOM     11  C   UNL     1       5.498   4.349  16.321  0.00  0.00    +0.000 C 
ATOM     12  C   UNL     1       4.300   4.254  17.269  0.00  0.00    +0.000 C 
BRANCH  10  13
ATOM     13  O   UNL     1       7.805   5.063  16.074  0.00  0.00    +0.000 OA
ATOM     14  H   UNL     1       7.835   4.143  15.739  0.00  0.00    +0.000 HD
ENDBRANCH  10  13
BRANCH  11  15
ATOM     15  O   UNL     1       5.145   4.914  15.050  0.00  0.00    +0.000 OA
ATOM     16  H   UNL     1       5.403   5.855  15.052  0.00  0.00    +0.000 HD
ENDBRANCH  11  15
BRANCH  12  17
ATOM     17  O   UNL     1       3.360   3.318  16.715  0.00  0.00    +0.000 OA
ATOM     18  H   UNL     1       2.515   3.411  17.183  0.00  0.00    +0.000 HD
ENDBRANCH  12  17
BRANCH   9  19
ATOM     19  C   UNL     1       8.103   5.499  18.954  0.00  0.00    +0.000 C 
BRANCH  19  20
ATOM     20  O   UNL     1       8.014   5.545  20.377  0.00  0.00    +0.000 OA
ATOM     21  H   UNL     1       7.320   4.903  20.643  0.00  0.00    +0.000 HD
ENDBRANCH  19  20
ENDBRANCH   9  19
ENDBRANCH   5   7
BRANCH   1  22
ATOM     22  C   UNL     1       0.869   6.333  20.834  0.00  0.00    +0.000 C 
BRANCH  22  23
ATOM     23  C   UNL     1       1.587   7.680  20.661  0.00  0.00    +0.000 C 
BRANCH  23  28
ATOM     24  C   UNL     1      -1.796  11.926  22.687  0.00  0.00    +0.000 C 
ATOM     25  C   UNL     1      -0.727  10.984  22.214  0.00  0.00    +0.000 A 
ATOM     26  C   UNL     1      -0.293  11.015  20.882  0.00  0.00    +0.000 A 
ATOM     27  C   UNL     1       0.532  10.003  20.380  0.00  0.00    +0.000 A 
ATOM     28  C   UNL     1       0.932   8.937  21.194  0.00  0.00    +0.000 A 
ATOM     29  C   UNL     1       0.575   8.970  22.552  0.00  0.00    +0.000 A 
ATOM     30  C   UNL     1      -0.248   9.979  23.055  0.00  0.00    +0.000 A 
ENDBRANCH  23  28
ENDBRANCH  22  23
ENDBRANCH   1  22
TORSDOF 9
ENDMDL
MODEL 6
REMARK VINA RESULT:      -7.9      3.280      7.750
REMARK  Name = 
REMARK  10 active torsions:
REMARK  status: ('A' for Active; 'I' for Inactive)
REMARK    1  A    between atoms: C_1  and  C_2
REMARK    2  A    between atoms: C_5  and  C_6
REMARK    3  A    between atoms: C_6  and  C_7
REMARK    4  A    between atoms: C_7  and  C_8
REMARK    5  A    between atoms: C_12  and  C_13
REMARK    6  A    between atoms: C_15  and  C_16
REMARK    7  A    between atoms: C_16  and  O_17
REMARK    8  A    between atoms: C_18  and  O_19
REMARK    9  A    between atoms: C_20  and  O_21
REMARK   10  A    between atoms: C_22  and  O_23
REMARK                            x       y       z     vdW  Elec       q    Type
REMARK                         _______ _______ _______ _____ _____    ______ ____
ROOT
ATOM      1  C   UNL     1       3.146   3.657  18.898  0.00  0.00    +0.000 A 
ATOM      2  C   UNL     1       2.401   2.886  19.804  0.00  0.00    +0.000 A 
ATOM      3  C   UNL     1       1.551   3.494  20.724  0.00  0.00    +0.000 A 
ATOM      4  C   UNL     1       1.434   4.880  20.755  0.00  0.00    +0.000 A 
ATOM      5  C   UNL     1       2.149   5.678  19.848  0.00  0.00    +0.000 A 
ATOM      6  C   UNL     1       2.973   5.049  18.902  0.00  0.00    +0.000 A 
ENDROOT
BRANCH   5   7
ATOM      7  C   UNL     1       2.135   7.188  19.997  0.00  0.00    +0.000 C 
ATOM      8  O   UNL     1       1.031   7.595  20.821  0.00  0.00    +0.000 OA
ATOM      9  C   UNL     1       1.021   9.010  21.048  0.00  0.00    +0.000 C 
ATOM     10  C   UNL     1       0.814   9.764  19.734  0.00  0.00    +0.000 C 
ATOM     11  C   UNL     1       1.910   9.368  18.733  0.00  0.00    +0.000 C 
ATOM     12  C   UNL     1       2.054   7.850  18.598  0.00  0.00    +0.000 C 
BRANCH  10  13
ATOM     13  O   UNL     1       0.860  11.179  19.963  0.00  0.00    +0.000 OA
ATOM     14  H   UNL     1       0.079  11.414  20.504  0.00  0.00    +0.000 HD
ENDBRANCH  10  13
BRANCH  11  15
ATOM     15  O   UNL     1       1.628  10.003  17.476  0.00  0.00    +0.000 OA
ATOM     16  H   UNL     1       0.954  10.692  17.628  0.00  0.00    +0.000 HD
ENDBRANCH  11  15
BRANCH  12  17
ATOM     17  O   UNL     1       3.214   7.577  17.796  0.00  0.00    +0.000 OA
ATOM     18  H   UNL     1       3.487   6.657  17.945  0.00  0.00    +0.000 HD
ENDBRANCH  12  17
BRANCH   9  19
ATOM     19  C   UNL     1      -0.083   9.368  22.060  0.00  0.00    +0.000 C 
BRANCH  19  20
ATOM     20  O   UNL     1       0.309  10.420  22.939  0.00  0.00    +0.000 OA
ATOM     21  H   UNL     1      -0.512  10.789  23.333  0.00  0.00    +0.000 HD
ENDBRANCH  19  20
ENDBRANCH   9  19
ENDBRANCH   5   7
BRANCH   1  22
ATOM     22  C   UNL     1       4.093   2.951  17.956  0.00  0.00    +0.000 C 
BRANCH  22  23
ATOM     23  C   UNL     1       4.597   3.748  16.742  0.00  0.00    +0.000 C 
BRANCH  23  28
ATOM     24  C   UNL     1       8.208   8.001  18.305  0.00  0.00    +0.000 C 
ATOM     25  C   UNL     1       7.456   6.833  17.737  0.00  0.00    +0.000 A 
ATOM     26  C   UNL     1       6.630   6.996  16.617  0.00  0.00    +0.000 A 
ATOM     27  C   UNL     1       5.760   5.976  16.221  0.00  0.00    +0.000 A 
ATOM     28  C   UNL     1       5.691   4.776  16.939  0.00  0.00    +0.000 A 
ATOM     29  C   UNL     1       6.594   4.584  17.996  0.00  0.00    +0.000 A 
ATOM     30  C   UNL     1       7.464   5.602  18.394  0.00  0.00    +0.000 A 
ENDBRANCH  23  28
ENDBRANCH  22  23
ENDBRANCH   1  22
TORSDOF 9
ENDMDL
MODEL 7
REMARK VINA RESULT:      -7.9      2.956      4.509
REMARK  Name = 
REMARK  10 active torsions:
REMARK  status: ('A' for Active; 'I' for Inactive)
REMARK    1  A    between atoms: C_1  and  C_2
REMARK    2  A    between atoms: C_5  and  C_6
REMARK    3  A    between atoms: C_6  and  C_7
REMARK    4  A    between atoms: C_7  and  C_8
REMARK    5  A    between atoms: C_12  and  C_13
REMARK    6  A    between atoms: C_15  and  C_16
REMARK    7  A    between atoms: C_16  and  O_17
REMARK    8  A    between atoms: C_18  and  O_19
REMARK    9  A    between atoms: C_20  and  O_21
REMARK   10  A    between atoms: C_22  and  O_23
REMARK                            x       y       z     vdW  Elec       q    Type
REMARK                         _______ _______ _______ _____ _____    ______ ____
ROOT
ATOM      1  C   UNL     1       1.512   9.112  18.918  0.00  0.00    +0.000 A 
ATOM      2  C   UNL     1       1.158   9.109  20.277  0.00  0.00    +0.000 A 
ATOM      3  C   UNL     1       1.351   7.973  21.059  0.00  0.00    +0.000 A 
ATOM      4  C   UNL     1       1.897   6.824  20.496  0.00  0.00    +0.000 A 
ATOM      5  C   UNL     1       2.281   6.802  19.147  0.00  0.00    +0.000 A 
ATOM      6  C   UNL     1       2.115   7.966  18.380  0.00  0.00    +0.000 A 
ENDROOT
BRANCH   5   7
ATOM      7  C   UNL     1       2.724   5.498  18.509  0.00  0.00    +0.000 C 
ATOM      8  O   UNL     1       1.911   4.412  18.983  0.00  0.00    +0.000 OA
ATOM      9  C   UNL     1       2.248   3.171  18.351  0.00  0.00    +0.000 C 
ATOM     10  C   UNL     1       3.678   2.759  18.703  0.00  0.00    +0.000 C 
ATOM     11  C   UNL     1       4.653   3.875  18.296  0.00  0.00    +0.000 C 
ATOM     12  C   UNL     1       4.221   5.246  18.822  0.00  0.00    +0.000 C 
BRANCH  10  13
ATOM     13  O   UNL     1       4.026   1.546  18.023  0.00  0.00    +0.000 OA
ATOM     14  H   UNL     1       4.417   1.795  17.161  0.00  0.00    +0.000 HD
ENDBRANCH  10  13
BRANCH  11  15
ATOM     15  O   UNL     1       5.970   3.511  18.739  0.00  0.00    +0.000 OA
ATOM     16  H   UNL     1       6.540   4.300  18.677  0.00  0.00    +0.000 HD
ENDBRANCH  11  15
BRANCH  12  17
ATOM     17  O   UNL     1       5.077   6.243  18.240  0.00  0.00    +0.000 OA
ATOM     18  H   UNL     1       5.676   6.578  18.927  0.00  0.00    +0.000 HD
ENDBRANCH  12  17
BRANCH   9  19
ATOM     19  C   UNL     1       1.248   2.081  18.776  0.00  0.00    +0.000 C 
BRANCH  19  20
ATOM     20  O   UNL     1       0.095   2.624  19.417  0.00  0.00    +0.000 OA
ATOM     21  H   UNL     1      -0.444   1.867  19.733  0.00  0.00    +0.000 HD
ENDBRANCH  19  20
ENDBRANCH   9  19
ENDBRANCH   5   7
BRANCH   1  22
ATOM     22  C   UNL     1       1.233  10.352  18.102  0.00  0.00    +0.000 C 
BRANCH  22  23
ATOM     23  C   UNL     1       0.303  11.406  18.722  0.00  0.00    +0.000 C 
BRANCH  23  28
ATOM     24  C   UNL     1      -5.348  11.238  17.454  0.00  0.00    +0.000 C 
ATOM     25  C   UNL     1      -3.942  11.117  17.967  0.00  0.00    +0.000 A 
ATOM     26  C   UNL     1      -3.481  11.964  18.982  0.00  0.00    +0.000 A 
ATOM     27  C   UNL     1      -2.122  12.010  19.308  0.00  0.00    +0.000 A 
ATOM     28  C   UNL     1      -1.196  11.217  18.620  0.00  0.00    +0.000 A 
ATOM     29  C   UNL     1      -1.681  10.298  17.676  0.00  0.00    +0.000 A 
ATOM     30  C   UNL     1      -3.038  10.251  17.349  0.00  0.00    +0.000 A 
ENDBRANCH  23  28
ENDBRANCH  22  23
ENDBRANCH   1  22
TORSDOF 9
ENDMDL
MODEL 8
REMARK VINA RESULT:      -7.8      1.379      2.944
REMARK  Name = 
REMARK  10 active torsions:
REMARK  status: ('A' for Active; 'I' for Inactive)
REMARK    1  A    between atoms: C_1  and  C_2
REMARK    2  A    between atoms: C_5  and  C_6
REMARK    3  A    between atoms: C_6  and  C_7
REMARK    4  A    between atoms: C_7  and  C_8
REMARK    5  A    between atoms: C_12  and  C_13
REMARK    6  A    between atoms: C_15  and  C_16
REMARK    7  A    between atoms: C_16  and  O_17
REMARK    8  A    between atoms: C_18  and  O_19
REMARK    9  A    between atoms: C_20  and  O_21
REMARK   10  A    between atoms: C_22  and  O_23
REMARK                            x       y       z     vdW  Elec       q    Type
REMARK                         _______ _______ _______ _____ _____    ______ ____
ROOT
ATOM      1  C   UNL     1       1.679   5.501  20.497  0.00  0.00    +0.000 A 
ATOM      2  C   UNL     1       0.854   4.384  20.698  0.00  0.00    +0.000 A 
ATOM      3  C   UNL     1       1.252   3.119  20.273  0.00  0.00    +0.000 A 
ATOM      4  C   UNL     1       2.480   2.952  19.638  0.00  0.00    +0.000 A 
ATOM      5  C   UNL     1       3.337   4.045  19.442  0.00  0.00    +0.000 A 
ATOM      6  C   UNL     1       2.938   5.307  19.909  0.00  0.00    +0.000 A 
ENDROOT
BRANCH   5   7
ATOM      7  C   UNL     1       4.595   3.878  18.609  0.00  0.00    +0.000 C 
ATOM      8  O   UNL     1       5.593   4.825  19.022  0.00  0.00    +0.000 OA
ATOM      9  C   UNL     1       6.825   4.655  18.311  0.00  0.00    +0.000 C 
ATOM     10  C   UNL     1       6.628   4.934  16.820  0.00  0.00    +0.000 C 
ATOM     11  C   UNL     1       5.531   4.014  16.263  0.00  0.00    +0.000 C 
ATOM     12  C   UNL     1       4.254   4.052  17.107  0.00  0.00    +0.000 C 
BRANCH  10  13
ATOM     13  O   UNL     1       7.852   4.708  16.108  0.00  0.00    +0.000 OA
ATOM     14  H   UNL     1       7.653   4.091  15.373  0.00  0.00    +0.000 HD
ENDBRANCH  10  13
BRANCH  11  15
ATOM     15  O   UNL     1       5.289   4.374  14.894  0.00  0.00    +0.000 OA
ATOM     16  H   UNL     1       6.132   4.300  14.406  0.00  0.00    +0.000 HD
ENDBRANCH  11  15
BRANCH  12  17
ATOM     17  O   UNL     1       3.364   3.033  16.626  0.00  0.00    +0.000 OA
ATOM     18  H   UNL     1       2.647   2.916  17.270  0.00  0.00    +0.000 HD
ENDBRANCH  12  17
BRANCH   9  19
ATOM     19  C   UNL     1       7.901   5.585  18.901  0.00  0.00    +0.000 C 
BRANCH  19  20
ATOM     20  O   UNL     1       7.982   5.485  20.321  0.00  0.00    +0.000 OA
ATOM     21  H   UNL     1       8.104   6.396  20.668  0.00  0.00    +0.000 HD
ENDBRANCH  19  20
ENDBRANCH   9  19
ENDBRANCH   5   7
BRANCH   1  22
ATOM     22  C   UNL     1       1.178   6.859  20.930  0.00  0.00    +0.000 C 
BRANCH  22  23
ATOM     23  C   UNL     1       1.814   8.087  20.260  0.00  0.00    +0.000 C 
BRANCH  23  28
ATOM     24  C   UNL     1      -2.313  12.023  19.232  0.00  0.00    +0.000 C 
ATOM     25  C   UNL     1      -1.082  11.198  19.476  0.00  0.00    +0.000 A 
ATOM     26  C   UNL     1      -0.395  10.613  18.405  0.00  0.00    +0.000 A 
ATOM     27  C   UNL     1       0.611   9.669  18.636  0.00  0.00    +0.000 A 
ATOM     28  C   UNL     1       0.943   9.284  19.940  0.00  0.00    +0.000 A 
ATOM     29  C   UNL     1       0.320   9.950  21.008  0.00  0.00    +0.000 A 
ATOM     30  C   UNL     1      -0.684  10.894  20.779  0.00  0.00    +0.000 A 
ENDBRANCH  23  28
ENDBRANCH  22  23
ENDBRANCH   1  22
TORSDOF 9
ENDMDL
MODEL 9
REMARK VINA RESULT:      -7.7      1.577      2.741
REMARK  Name = 
REMARK  10 active torsions:
REMARK  status: ('A' for Active; 'I' for Inactive)
REMARK    1  A    between atoms: C_1  and  C_2
REMARK    2  A    between atoms: C_5  and  C_6
REMARK    3  A    between atoms: C_6  and  C_7
REMARK    4  A    between atoms: C_7  and  C_8
REMARK    5  A    between atoms: C_12  and  C_13
REMARK    6  A    between atoms: C_15  and  C_16
REMARK    7  A    between atoms: C_16  and  O_17
REMARK    8  A    between atoms: C_18  and  O_19
REMARK    9  A    between atoms: C_20  and  O_21
REMARK   10  A    between atoms: C_22  and  O_23
REMARK                            x       y       z     vdW  Elec       q    Type
REMARK                         _______ _______ _______ _____ _____    ______ ____
ROOT
ATOM      1  C   UNL     1       2.110   5.110  20.563  0.00  0.00    +0.000 A 
ATOM      2  C   UNL     1       1.874   3.879  21.194  0.00  0.00    +0.000 A 
ATOM      3  C   UNL     1       2.747   2.809  21.016  0.00  0.00    +0.000 A 
ATOM      4  C   UNL     1       3.868   2.953  20.203  0.00  0.00    +0.000 A 
ATOM      5  C   UNL     1       4.144   4.177  19.577  0.00  0.00    +0.000 A 
ATOM      6  C   UNL     1       3.275   5.257  19.796  0.00  0.00    +0.000 A 
ENDROOT
BRANCH   5   7
ATOM      7  C   UNL     1       5.277   4.273  18.571  0.00  0.00    +0.000 C 
ATOM      8  O   UNL     1       5.899   5.566  18.646  0.00  0.00    +0.000 OA
ATOM      9  C   UNL     1       7.022   5.675  17.763  0.00  0.00    +0.000 C 
ATOM     10  C   UNL     1       6.575   5.550  16.306  0.00  0.00    +0.000 C 
ATOM     11  C   UNL     1       5.834   4.220  16.104  0.00  0.00    +0.000 C 
ATOM     12  C   UNL     1       4.733   4.002  17.145  0.00  0.00    +0.000 C 
BRANCH  10  13
ATOM     13  O   UNL     1       7.711   5.606  15.432  0.00  0.00    +0.000 OA
ATOM     14  H   UNL     1       7.767   4.743  14.971  0.00  0.00    +0.000 HD
ENDBRANCH  10  13
BRANCH  11  15
ATOM     15  O   UNL     1       5.330   4.180  14.760  0.00  0.00    +0.000 OA
ATOM     16  H   UNL     1       4.844   5.010  14.593  0.00  0.00    +0.000 HD
ENDBRANCH  11  15
BRANCH  12  17
ATOM     17  O   UNL     1       4.230   2.665  16.997  0.00  0.00    +0.000 OA
ATOM     18  H   UNL     1       4.978   2.047  17.011  0.00  0.00    +0.000 HD
ENDBRANCH  12  17
BRANCH   9  19
ATOM     19  C   UNL     1       7.743   7.015  17.998  0.00  0.00    +0.000 C 
BRANCH  19  20
ATOM     20  O   UNL     1       7.416   7.986  17.007  0.00  0.00    +0.000 OA
ATOM     21  H   UNL     1       7.639   8.867  17.380  0.00  0.00    +0.000 HD
ENDBRANCH  19  20
ENDBRANCH   9  19
ENDBRANCH   5   7
BRANCH   1  22
ATOM     22  C   UNL     1       1.104   6.222  20.747  0.00  0.00    +0.000 C 
BRANCH  22  23
ATOM     23  C   UNL     1       1.655   7.617  21.084  0.00  0.00    +0.000 C 
BRANCH  23  28
ATOM     24  C   UNL     1       0.263  12.684  18.643  0.00  0.00    +0.000 C 
ATOM     25  C   UNL     1       0.394  11.295  19.196  0.00  0.00    +0.000 A 
ATOM     26  C   UNL     1      -0.047  11.002  20.493  0.00  0.00    +0.000 A 
ATOM     27  C   UNL     1       0.272   9.779  21.093  0.00  0.00    +0.000 A 
ATOM     28  C   UNL     1       1.044   8.830  20.414  0.00  0.00    +0.000 A 
ATOM     29  C   UNL     1       1.394   9.092  19.079  0.00  0.00    +0.000 A 
ATOM     30  C   UNL     1       1.076  10.312  18.478  0.00  0.00    +0.000 A 
ENDBRANCH  23  28
ENDBRANCH  22  23
ENDBRANCH   1  22
TORSDOF 9
ENDMDL
