MODEL 1
REMARK VINA RESULT:      -8.6      0.000      0.000
REMARK  Name = 
REMARK  11 active torsions:
REMARK  status: ('A' for Active; 'I' for Inactive)
REMARK    1  A    between atoms: C_1  and  O_2
REMARK    2  A    between atoms: O_2  and  C_3
REMARK    3  A    between atoms: C_5  and  C_6
REMARK    4  A    between atoms: C_6  and  C_8
REMARK    5  A    between atoms: N_10  and  C_11
REMARK    6  A    between atoms: C_14  and  C_15
REMARK    7  A    between atoms: C_19  and  C_20
REMARK    8  A    between atoms: C_26  and  O_27
REMARK    9  A    between atoms: O_27  and  C_28
REMARK   10  A    between atoms: C_29  and  O_30
REMARK   11  A    between atoms: O_30  and  C_31
REMARK                            x       y       z     vdW  Elec       q    Type
REMARK                         _______ _______ _______ _____ _____    ______ ____
ROOT
ATOM      1  C   UNL     1       1.407   9.502  18.875  0.00  0.00    +0.000 A 
ATOM      2  C   UNL     1       2.118   8.797  17.906  0.00  0.00    +0.000 A 
ATOM      3  N   UNL     1       2.594   7.606  18.425  0.00  0.00    +0.000 N 
ATOM      4  C   UNL     1       2.177   7.555  19.737  0.00  0.00    +0.000 A 
ATOM      5  C   UNL     1       1.455   8.692  20.041  0.00  0.00    +0.000 A 
ENDROOT
BRANCH   3   6
ATOM      6  C   UNL     1       3.360   6.610  17.736  0.00  0.00    +0.000 A 
ATOM      7  C   UNL     1       3.057   5.245  17.862  0.00  0.00    +0.000 A 
ATOM      8  C   UNL     1       3.834   4.280  17.203  0.00  0.00    +0.000 A 
ATOM      9  C   UNL     1       4.925   4.656  16.416  0.00  0.00    +0.000 A 
ATOM     10  C   UNL     1       5.787   3.635  15.734  0.00  0.00    +0.000 C 
ATOM     11  C   UNL     1       5.218   6.018  16.281  0.00  0.00    +0.000 A 
ATOM     12  C   UNL     1       4.447   6.983  16.931  0.00  0.00    +0.000 A 
ENDBRANCH   3   6
BRANCH   5  13
ATOM     13  C   UNL     1       0.882   8.996  21.347  0.00  0.00    +0.000 A 
ATOM     14  C   UNL     1      -0.480   8.815  21.696  0.00  0.00    +0.000 A 
ATOM     15  C   UNL     1      -0.590   9.211  23.010  0.00  0.00    +0.000 A 
ATOM     16  O   UNL     1       0.615   9.606  23.490  0.00  0.00    +0.000 OA
ATOM     17  C   UNL     1       1.506   9.484  22.472  0.00  0.00    +0.000 A 
ENDBRANCH   5  13
BRANCH   1  18
ATOM     18  C   UNL     1       0.712  10.782  18.672  0.00  0.00    +0.000 C 
ATOM     19  O   UNL     1       1.300  11.859  18.654  0.00  0.00    +0.000 OA
BRANCH  18  22
ATOM     20  C   UNL     1      -2.929  11.670  19.160  0.00  0.00    +0.000 A 
ATOM     21  C   UNL     1      -1.573  11.462  19.434  0.00  0.00    +0.000 A 
ATOM     22  C   UNL     1      -0.767  10.782  18.528  0.00  0.00    +0.000 A 
ATOM     23  C   UNL     1      -1.354  10.128  17.448  0.00  0.00    +0.000 A 
ATOM     24  C   UNL     1      -2.734  10.229  17.213  0.00  0.00    +0.000 A 
ATOM     25  C   UNL     1      -3.538  11.030  18.057  0.00  0.00    +0.000 A 
BRANCH  20  27
ATOM     26  C   UNL     1      -2.921  13.487  20.688  0.00  0.00    +0.000 C 
ATOM     27  O   UNL     1      -3.662  12.485  19.986  0.00  0.00    +0.000 OA
ENDBRANCH  20  27
BRANCH  24  28
ATOM     28  O   UNL     1      -3.097   9.515  16.098  0.00  0.00    +0.000 OA
ATOM     29  C   UNL     1      -3.008  10.114  14.816  0.00  0.00    +0.000 C 
ENDBRANCH  24  28
BRANCH  25  30
ATOM     30  O   UNL     1      -4.865  11.106  17.729  0.00  0.00    +0.000 OA
ATOM     31  C   UNL     1      -5.353  12.183  16.946  0.00  0.00    +0.000 C 
ENDBRANCH  25  30
ENDBRANCH  18  22
ENDBRANCH   1  18
TORSDOF 7
ENDMDL
MODEL 2
REMARK VINA RESULT:      -8.2      0.339      2.327
REMARK  Name = 
REMARK  11 active torsions:
REMARK  status: ('A' for Active; 'I' for Inactive)
REMARK    1  A    between atoms: C_1  and  O_2
REMARK    2  A    between atoms: O_2  and  C_3
REMARK    3  A    between atoms: C_5  and  C_6
REMARK    4  A    between atoms: C_6  and  C_8
REMARK    5  A    between atoms: N_10  and  C_11
REMARK    6  A    between atoms: C_14  and  C_15
REMARK    7  A    between atoms: C_19  and  C_20
REMARK    8  A    between atoms: C_26  and  O_27
REMARK    9  A    between atoms: O_27  and  C_28
REMARK   10  A    between atoms: C_29  and  O_30
REMARK   11  A    between atoms: O_30  and  C_31
REMARK                            x       y       z     vdW  Elec       q    Type
REMARK                         _______ _______ _______ _____ _____    ______ ____
ROOT
ATOM      1  C   UNL     1       1.513   9.626  18.980  0.00  0.00    +0.000 A 
ATOM      2  C   UNL     1       2.208   8.906  18.011  0.00  0.00    +0.000 A 
ATOM      3  N   UNL     1       2.570   7.662  18.498  0.00  0.00    +0.000 N 
ATOM      4  C   UNL     1       2.096   7.594  19.791  0.00  0.00    +0.000 A 
ATOM      5  C   UNL     1       1.451   8.771  20.113  0.00  0.00    +0.000 A 
ENDROOT
BRANCH   3   6
ATOM      6  C   UNL     1       3.287   6.637  17.800  0.00  0.00    +0.000 A 
ATOM      7  C   UNL     1       2.932   5.285  17.930  0.00  0.00    +0.000 A 
ATOM      8  C   UNL     1       3.660   4.290  17.260  0.00  0.00    +0.000 A 
ATOM      9  C   UNL     1       4.755   4.623  16.459  0.00  0.00    +0.000 A 
ATOM     10  C   UNL     1       5.566   3.568  15.766  0.00  0.00    +0.000 C 
ATOM     11  C   UNL     1       5.100   5.971  16.319  0.00  0.00    +0.000 A 
ATOM     12  C   UNL     1       4.377   6.967  16.980  0.00  0.00    +0.000 A 
ENDBRANCH   3   6
BRANCH   5  13
ATOM     13  C   UNL     1       0.849   9.069  21.407  0.00  0.00    +0.000 A 
ATOM     14  C   UNL     1      -0.540   9.023  21.685  0.00  0.00    +0.000 A 
ATOM     15  C   UNL     1      -0.673   9.359  23.012  0.00  0.00    +0.000 A 
ATOM     16  O   UNL     1       0.542   9.593  23.567  0.00  0.00    +0.000 OA
ATOM     17  C   UNL     1       1.464   9.427  22.585  0.00  0.00    +0.000 A 
ENDBRANCH   5  13
BRANCH   1  18
ATOM     18  C   UNL     1       0.926  10.963  18.802  0.00  0.00    +0.000 C 
ATOM     19  O   UNL     1       1.580  11.994  18.916  0.00  0.00    +0.000 OA
BRANCH  18  22
ATOM     20  C   UNL     1      -2.507  10.262  17.385  0.00  0.00    +0.000 A 
ATOM     21  C   UNL     1      -1.114  10.348  17.490  0.00  0.00    +0.000 A 
ATOM     22  C   UNL     1      -0.528  11.077  18.519  0.00  0.00    +0.000 A 
ATOM     23  C   UNL     1      -1.325  11.891  19.318  0.00  0.00    +0.000 A 
ATOM     24  C   UNL     1      -2.719  11.909  19.159  0.00  0.00    +0.000 A 
ATOM     25  C   UNL     1      -3.333  11.067  18.201  0.00  0.00    +0.000 A 
BRANCH  20  27
ATOM     26  C   UNL     1      -3.062   9.864  15.111  0.00  0.00    +0.000 C 
ATOM     27  O   UNL     1      -3.058   9.405  16.465  0.00  0.00    +0.000 OA
ENDBRANCH  20  27
BRANCH  24  28
ATOM     28  O   UNL     1      -3.306  12.773  20.050  0.00  0.00    +0.000 OA
ATOM     29  C   UNL     1      -3.058  12.630  21.440  0.00  0.00    +0.000 C 
ENDBRANCH  24  28
BRANCH  25  30
ATOM     30  O   UNL     1      -4.699  11.117  18.144  0.00  0.00    +0.000 OA
ATOM     31  C   UNL     1      -5.351  11.972  17.220  0.00  0.00    +0.000 C 
ENDBRANCH  25  30
ENDBRANCH  18  22
ENDBRANCH   1  18
TORSDOF 7
ENDMDL
MODEL 3
REMARK VINA RESULT:      -8.1      0.665      1.090
REMARK  Name = 
REMARK  11 active torsions:
REMARK  status: ('A' for Active; 'I' for Inactive)
REMARK    1  A    between atoms: C_1  and  O_2
REMARK    2  A    between atoms: O_2  and  C_3
REMARK    3  A    between atoms: C_5  and  C_6
REMARK    4  A    between atoms: C_6  and  C_8
REMARK    5  A    between atoms: N_10  and  C_11
REMARK    6  A    between atoms: C_14  and  C_15
REMARK    7  A    between atoms: C_19  and  C_20
REMARK    8  A    between atoms: C_26  and  O_27
REMARK    9  A    between atoms: O_27  and  C_28
REMARK   10  A    between atoms: C_29  and  O_30
REMARK   11  A    between atoms: O_30  and  C_31
REMARK                            x       y       z     vdW  Elec       q    Type
REMARK                         _______ _______ _______ _____ _____    ______ ____
ROOT
ATOM      1  C   UNL     1       1.008   9.843  18.848  0.00  0.00    +0.000 A 
ATOM      2  C   UNL     1       1.756   9.076  17.956  0.00  0.00    +0.000 A 
ATOM      3  N   UNL     1       2.253   7.948  18.585  0.00  0.00    +0.000 N 
ATOM      4  C   UNL     1       1.813   8.001  19.890  0.00  0.00    +0.000 A 
ATOM      5  C   UNL     1       1.056   9.139  20.082  0.00  0.00    +0.000 A 
ENDROOT
BRANCH   3   6
ATOM      6  C   UNL     1       3.058   6.918  18.000  0.00  0.00    +0.000 A 
ATOM      7  C   UNL     1       4.210   7.228  17.259  0.00  0.00    +0.000 A 
ATOM      8  C   UNL     1       4.973   6.210  16.669  0.00  0.00    +0.000 A 
ATOM      9  C   UNL     1       4.599   4.870  16.800  0.00  0.00    +0.000 A 
ATOM     10  C   UNL     1       5.384   3.772  16.145  0.00  0.00    +0.000 C 
ATOM     11  C   UNL     1       3.459   4.560  17.549  0.00  0.00    +0.000 A 
ATOM     12  C   UNL     1       2.697   5.569  18.142  0.00  0.00    +0.000 A 
ENDBRANCH   3   6
BRANCH   5  13
ATOM     13  C   UNL     1       0.451   9.540  21.347  0.00  0.00    +0.000 A 
ATOM     14  C   UNL     1      -0.286   8.681  22.200  0.00  0.00    +0.000 A 
ATOM     15  C   UNL     1      -0.664   9.451  23.277  0.00  0.00    +0.000 A 
ATOM     16  O   UNL     1      -0.195  10.716  23.145  0.00  0.00    +0.000 OA
ATOM     17  C   UNL     1       0.473  10.769  21.964  0.00  0.00    +0.000 A 
ENDBRANCH   5  13
BRANCH   1  18
ATOM     18  C   UNL     1       0.284  11.080  18.522  0.00  0.00    +0.000 C 
ATOM     19  O   UNL     1       0.843  12.167  18.420  0.00  0.00    +0.000 OA
BRANCH  18  22
ATOM     20  C   UNL     1      -3.395  11.836  18.949  0.00  0.00    +0.000 A 
ATOM     21  C   UNL     1      -2.037  11.678  19.246  0.00  0.00    +0.000 A 
ATOM     22  C   UNL     1      -1.192  11.026  18.354  0.00  0.00    +0.000 A 
ATOM     23  C   UNL     1      -1.737  10.349  17.267  0.00  0.00    +0.000 A 
ATOM     24  C   UNL     1      -3.115  10.399  17.009  0.00  0.00    +0.000 A 
ATOM     25  C   UNL     1      -3.963  11.172  17.838  0.00  0.00    +0.000 A 
BRANCH  20  27
ATOM     26  C   UNL     1      -3.589  12.984  21.018  0.00  0.00    +0.000 C 
ATOM     27  O   UNL     1      -4.170  12.625  19.761  0.00  0.00    +0.000 OA
ENDBRANCH  20  27
BRANCH  24  28
ATOM     28  O   UNL     1      -3.434   9.670  15.891  0.00  0.00    +0.000 OA
ATOM     29  C   UNL     1      -3.346  10.270  14.608  0.00  0.00    +0.000 C 
ENDBRANCH  24  28
BRANCH  25  30
ATOM     30  O   UNL     1      -5.285  11.199  17.488  0.00  0.00    +0.000 OA
ATOM     31  C   UNL     1      -5.890  12.404  17.051  0.00  0.00    +0.000 C 
ENDBRANCH  25  30
ENDBRANCH  18  22
ENDBRANCH   1  18
TORSDOF 7
ENDMDL
MODEL 4
REMARK VINA RESULT:      -7.9      1.124      1.224
REMARK  Name = 
REMARK  11 active torsions:
REMARK  status: ('A' for Active; 'I' for Inactive)
REMARK    1  A    between atoms: C_1  and  O_2
REMARK    2  A    between atoms: O_2  and  C_3
REMARK    3  A    between atoms: C_5  and  C_6
REMARK    4  A    between atoms: C_6  and  C_8
REMARK    5  A    between atoms: N_10  and  C_11
REMARK    6  A    between atoms: C_14  and  C_15
REMARK    7  A    between atoms: C_19  and  C_20
REMARK    8  A    between atoms: C_26  and  O_27
REMARK    9  A    between atoms: O_27  and  C_28
REMARK   10  A    between atoms: C_29  and  O_30
REMARK   11  A    between atoms: O_30  and  C_31
REMARK                            x       y       z     vdW  Elec       q    Type
REMARK                         _______ _______ _______ _____ _____    ______ ____
ROOT
ATOM      1  C   UNL     1       0.624  10.287  18.817  0.00  0.00    +0.000 A 
ATOM      2  C   UNL     1       1.345   9.463  17.955  0.00  0.00    +0.000 A 
ATOM      3  N   UNL     1       1.861   8.378  18.641  0.00  0.00    +0.000 N 
ATOM      4  C   UNL     1       1.461   8.516  19.953  0.00  0.00    +0.000 A 
ATOM      5  C   UNL     1       0.709   9.665  20.092  0.00  0.00    +0.000 A 
ENDROOT
BRANCH   3   6
ATOM      6  C   UNL     1       2.649   7.310  18.100  0.00  0.00    +0.000 A 
ATOM      7  C   UNL     1       2.263   5.970  18.260  0.00  0.00    +0.000 A 
ATOM      8  C   UNL     1       3.060   4.934  17.748  0.00  0.00    +0.000 A 
ATOM      9  C   UNL     1       4.251   5.215  17.076  0.00  0.00    +0.000 A 
ATOM     10  C   UNL     1       5.132   4.118  16.554  0.00  0.00    +0.000 C 
ATOM     11  C   UNL     1       4.628   6.551  16.905  0.00  0.00    +0.000 A 
ATOM     12  C   UNL     1       3.839   7.587  17.409  0.00  0.00    +0.000 A 
ENDBRANCH   3   6
BRANCH   5  13
ATOM     13  C   UNL     1       0.142  10.149  21.345  0.00  0.00    +0.000 A 
ATOM     14  C   UNL     1      -0.450   9.328  22.337  0.00  0.00    +0.000 A 
ATOM     15  C   UNL     1      -0.841  10.176  23.348  0.00  0.00    +0.000 A 
ATOM     16  O   UNL     1      -0.514  11.457  23.046  0.00  0.00    +0.000 OA
ATOM     17  C   UNL     1       0.073  11.438  21.822  0.00  0.00    +0.000 A 
ENDBRANCH   5  13
BRANCH   1  18
ATOM     18  C   UNL     1      -0.111  11.502  18.433  0.00  0.00    +0.000 C 
ATOM     19  O   UNL     1       0.438  12.589  18.285  0.00  0.00    +0.000 OA
BRANCH  18  22
ATOM     20  C   UNL     1      -3.814  11.919  19.065  0.00  0.00    +0.000 A 
ATOM     21  C   UNL     1      -2.445  11.750  19.301  0.00  0.00    +0.000 A 
ATOM     22  C   UNL     1      -1.585  11.425  18.258  0.00  0.00    +0.000 A 
ATOM     23  C   UNL     1      -2.115  11.063  17.024  0.00  0.00    +0.000 A 
ATOM     24  C   UNL     1      -3.498  11.116  16.793  0.00  0.00    +0.000 A 
ATOM     25  C   UNL     1      -4.367  11.575  17.812  0.00  0.00    +0.000 A 
BRANCH  20  27
ATOM     26  C   UNL     1      -3.931  13.056  21.147  0.00  0.00    +0.000 C 
ATOM     27  O   UNL     1      -4.612  12.402  20.072  0.00  0.00    +0.000 OA
ENDBRANCH  20  27
BRANCH  24  28
ATOM     28  O   UNL     1      -3.800  10.725  15.513  0.00  0.00    +0.000 OA
ATOM     29  C   UNL     1      -2.829  10.042  14.736  0.00  0.00    +0.000 C 
ENDBRANCH  24  28
BRANCH  25  30
ATOM     30  O   UNL     1      -5.695  11.637  17.487  0.00  0.00    +0.000 OA
ATOM     31  C   UNL     1      -6.299  12.875  17.154  0.00  0.00    +0.000 C 
ENDBRANCH  25  30
ENDBRANCH  18  22
ENDBRANCH   1  18
TORSDOF 7
ENDMDL
MODEL 5
REMARK VINA RESULT:      -7.8      1.531      1.688
REMARK  Name = 
REMARK  11 active torsions:
REMARK  status: ('A' for Active; 'I' for Inactive)
REMARK    1  A    between atoms: C_1  and  O_2
REMARK    2  A    between atoms: O_2  and  C_3
REMARK    3  A    between atoms: C_5  and  C_6
REMARK    4  A    between atoms: C_6  and  C_8
REMARK    5  A    between atoms: N_10  and  C_11
REMARK    6  A    between atoms: C_14  and  C_15
REMARK    7  A    between atoms: C_19  and  C_20
REMARK    8  A    between atoms: C_26  and  O_27
REMARK    9  A    between atoms: O_27  and  C_28
REMARK   10  A    between atoms: C_29  and  O_30
REMARK   11  A    between atoms: O_30  and  C_31
REMARK                            x       y       z     vdW  Elec       q    Type
REMARK                         _______ _______ _______ _____ _____    ______ ____
ROOT
ATOM      1  C   UNL     1       1.614   8.523  19.136  0.00  0.00    +0.000 A 
ATOM      2  C   UNL     1       2.142   7.449  18.422  0.00  0.00    +0.000 A 
ATOM      3  N   UNL     1       2.233   6.329  19.229  0.00  0.00    +0.000 N 
ATOM      4  C   UNL     1       1.755   6.697  20.468  0.00  0.00    +0.000 A 
ATOM      5  C   UNL     1       1.372   8.023  20.444  0.00  0.00    +0.000 A 
ENDROOT
BRANCH   3   6
ATOM      6  C   UNL     1       2.718   5.034  18.855  0.00  0.00    +0.000 A 
ATOM      7  C   UNL     1       2.109   4.299  17.826  0.00  0.00    +0.000 A 
ATOM      8  C   UNL     1       2.579   3.020  17.489  0.00  0.00    +0.000 A 
ATOM      9  C   UNL     1       3.654   2.451  18.174  0.00  0.00    +0.000 A 
ATOM     10  C   UNL     1       4.146   1.071  17.851  0.00  0.00    +0.000 C 
ATOM     11  C   UNL     1       4.270   3.189  19.191  0.00  0.00    +0.000 A 
ATOM     12  C   UNL     1       3.810   4.464  19.528  0.00  0.00    +0.000 A 
ENDBRANCH   3   6
BRANCH   5  13
ATOM     13  C   UNL     1       0.845   8.764  21.585  0.00  0.00    +0.000 A 
ATOM     14  C   UNL     1      -0.526   8.847  21.933  0.00  0.00    +0.000 A 
ATOM     15  C   UNL     1      -0.583   9.625  23.067  0.00  0.00    +0.000 A 
ATOM     16  O   UNL     1       0.662  10.009  23.442  0.00  0.00    +0.000 OA
ATOM     17  C   UNL     1       1.527   9.493  22.532  0.00  0.00    +0.000 A 
ENDBRANCH   5  13
BRANCH   1  18
ATOM     18  C   UNL     1       1.323   9.858  18.593  0.00  0.00    +0.000 C 
ATOM     19  O   UNL     1       2.203  10.641  18.252  0.00  0.00    +0.000 OA
BRANCH  18  22
ATOM     20  C   UNL     1      -1.849  11.846  19.117  0.00  0.00    +0.000 A 
ATOM     21  C   UNL     1      -0.607  11.252  19.366  0.00  0.00    +0.000 A 
ATOM     22  C   UNL     1      -0.093  10.300  18.493  0.00  0.00    +0.000 A 
ATOM     23  C   UNL     1      -0.906   9.786  17.487  0.00  0.00    +0.000 A 
ATOM     24  C   UNL     1      -2.201  10.287  17.285  0.00  0.00    +0.000 A 
ATOM     25  C   UNL     1      -2.681  11.350  18.087  0.00  0.00    +0.000 A 
BRANCH  20  27
ATOM     26  C   UNL     1      -1.786  12.890  21.248  0.00  0.00    +0.000 C 
ATOM     27  O   UNL     1      -2.257  12.898  19.897  0.00  0.00    +0.000 OA
ENDBRANCH  20  27
BRANCH  24  28
ATOM     28  O   UNL     1      -2.821   9.646  16.242  0.00  0.00    +0.000 OA
ATOM     29  C   UNL     1      -2.906  10.278  14.975  0.00  0.00    +0.000 C 
ENDBRANCH  24  28
BRANCH  25  30
ATOM     30  O   UNL     1      -3.937  11.806  17.793  0.00  0.00    +0.000 OA
ATOM     31  C   UNL     1      -5.075  11.237  18.417  0.00  0.00    +0.000 C 
ENDBRANCH  25  30
ENDBRANCH  18  22
ENDBRANCH   1  18
TORSDOF 7
ENDMDL
MODEL 6
REMARK VINA RESULT:      -7.7      2.471      4.232
REMARK  Name = 
REMARK  11 active torsions:
REMARK  status: ('A' for Active; 'I' for Inactive)
REMARK    1  A    between atoms: C_1  and  O_2
REMARK    2  A    between atoms: O_2  and  C_3
REMARK    3  A    between atoms: C_5  and  C_6
REMARK    4  A    between atoms: C_6  and  C_8
REMARK    5  A    between atoms: N_10  and  C_11
REMARK    6  A    between atoms: C_14  and  C_15
REMARK    7  A    between atoms: C_19  and  C_20
REMARK    8  A    between atoms: C_26  and  O_27
REMARK    9  A    between atoms: O_27  and  C_28
REMARK   10  A    between atoms: C_29  and  O_30
REMARK   11  A    between atoms: O_30  and  C_31
REMARK                            x       y       z     vdW  Elec       q    Type
REMARK                         _______ _______ _______ _____ _____    ______ ____
ROOT
ATOM      1  C   UNL     1       1.276   9.438  18.912  0.00  0.00    +0.000 A 
ATOM      2  C   UNL     1       1.981   8.735  17.937  0.00  0.00    +0.000 A 
ATOM      3  N   UNL     1       2.532   7.584  18.472  0.00  0.00    +0.000 N 
ATOM      4  C   UNL     1       2.168   7.556  19.802  0.00  0.00    +0.000 A 
ATOM      5  C   UNL     1       1.407   8.668  20.099  0.00  0.00    +0.000 A 
ENDROOT
BRANCH   3   6
ATOM      6  C   UNL     1       3.317   6.603  17.785  0.00  0.00    +0.000 A 
ATOM      7  C   UNL     1       2.998   5.237  17.854  0.00  0.00    +0.000 A 
ATOM      8  C   UNL     1       3.793   4.286  17.197  0.00  0.00    +0.000 A 
ATOM      9  C   UNL     1       4.918   4.676  16.468  0.00  0.00    +0.000 A 
ATOM     10  C   UNL     1       5.799   3.668  15.789  0.00  0.00    +0.000 C 
ATOM     11  C   UNL     1       5.228   6.038  16.387  0.00  0.00    +0.000 A 
ATOM     12  C   UNL     1       4.439   6.990  17.036  0.00  0.00    +0.000 A 
ENDBRANCH   3   6
BRANCH   5  13
ATOM     13  C   UNL     1       0.870   8.987  21.417  0.00  0.00    +0.000 A 
ATOM     14  C   UNL     1      -0.499   8.911  21.775  0.00  0.00    +0.000 A 
ATOM     15  C   UNL     1      -0.566   9.283  23.098  0.00  0.00    +0.000 A 
ATOM     16  O   UNL     1       0.671   9.566  23.576  0.00  0.00    +0.000 OA
ATOM     17  C   UNL     1       1.540   9.396  22.547  0.00  0.00    +0.000 A 
ENDBRANCH   5  13
BRANCH   1  18
ATOM     18  C   UNL     1       0.514  10.677  18.698  0.00  0.00    +0.000 C 
ATOM     19  O   UNL     1      -0.545  10.706  18.080  0.00  0.00    +0.000 OA
BRANCH  18  22
ATOM     20  C   UNL     1       1.259  13.590  20.989  0.00  0.00    +0.000 A 
ATOM     21  C   UNL     1       0.577  12.531  20.378  0.00  0.00    +0.000 A 
ATOM     22  C   UNL     1       1.068  11.958  19.210  0.00  0.00    +0.000 A 
ATOM     23  C   UNL     1       2.120  12.572  18.537  0.00  0.00    +0.000 A 
ATOM     24  C   UNL     1       2.751  13.705  19.074  0.00  0.00    +0.000 A 
ATOM     25  C   UNL     1       2.342  14.214  20.330  0.00  0.00    +0.000 A 
BRANCH  20  27
ATOM     26  C   UNL     1      -0.545  13.874  22.506  0.00  0.00    +0.000 C 
ATOM     27  O   UNL     1       0.849  14.026  22.224  0.00  0.00    +0.000 OA
ENDBRANCH  20  27
BRANCH  24  28
ATOM     28  O   UNL     1       3.761  14.142  18.253  0.00  0.00    +0.000 OA
ATOM     29  C   UNL     1       3.596  15.336  17.505  0.00  0.00    +0.000 C 
ENDBRANCH  24  28
BRANCH  25  30
ATOM     30  O   UNL     1       3.040  15.293  20.798  0.00  0.00    +0.000 OA
ATOM     31  C   UNL     1       4.165  15.114  21.641  0.00  0.00    +0.000 C 
ENDBRANCH  25  30
ENDBRANCH  18  22
ENDBRANCH   1  18
TORSDOF 7
ENDMDL
MODEL 7
REMARK VINA RESULT:      -7.7      1.098      2.710
REMARK  Name = 
REMARK  11 active torsions:
REMARK  status: ('A' for Active; 'I' for Inactive)
REMARK    1  A    between atoms: C_1  and  O_2
REMARK    2  A    between atoms: O_2  and  C_3
REMARK    3  A    between atoms: C_5  and  C_6
REMARK    4  A    between atoms: C_6  and  C_8
REMARK    5  A    between atoms: N_10  and  C_11
REMARK    6  A    between atoms: C_14  and  C_15
REMARK    7  A    between atoms: C_19  and  C_20
REMARK    8  A    between atoms: C_26  and  O_27
REMARK    9  A    between atoms: O_27  and  C_28
REMARK   10  A    between atoms: C_29  and  O_30
REMARK   11  A    between atoms: O_30  and  C_31
REMARK                            x       y       z     vdW  Elec       q    Type
REMARK                         _______ _______ _______ _____ _____    ______ ____
ROOT
ATOM      1  C   UNL     1       0.773  10.369  18.873  0.00  0.00    +0.000 A 
ATOM      2  C   UNL     1       1.494   9.535  18.021  0.00  0.00    +0.000 A 
ATOM      3  N   UNL     1       1.923   8.406  18.696  0.00  0.00    +0.000 N 
ATOM      4  C   UNL     1       1.465   8.526  19.991  0.00  0.00    +0.000 A 
ATOM      5  C   UNL     1       0.765   9.707  20.130  0.00  0.00    +0.000 A 
ENDROOT
BRANCH   3   6
ATOM      6  C   UNL     1       2.683   7.316  18.160  0.00  0.00    +0.000 A 
ATOM      7  C   UNL     1       3.869   7.541  17.444  0.00  0.00    +0.000 A 
ATOM      8  C   UNL     1       4.588   6.465  16.901  0.00  0.00    +0.000 A 
ATOM      9  C   UNL     1       4.136   5.153  17.057  0.00  0.00    +0.000 A 
ATOM     10  C   UNL     1       4.873   3.994  16.452  0.00  0.00    +0.000 C 
ATOM     11  C   UNL     1       2.961   4.928  17.782  0.00  0.00    +0.000 A 
ATOM     12  C   UNL     1       2.242   5.994  18.328  0.00  0.00    +0.000 A 
ENDBRANCH   3   6
BRANCH   5  13
ATOM     13  C   UNL     1       0.161  10.181  21.371  0.00  0.00    +0.000 A 
ATOM     14  C   UNL     1      -0.482   9.356  22.326  0.00  0.00    +0.000 A 
ATOM     15  C   UNL     1      -0.893  10.196  23.336  0.00  0.00    +0.000 A 
ATOM     16  O   UNL     1      -0.532  11.475  23.068  0.00  0.00    +0.000 OA
ATOM     17  C   UNL     1       0.100  11.464  21.866  0.00  0.00    +0.000 A 
ENDBRANCH   5  13
BRANCH   1  18
ATOM     18  C   UNL     1       0.119  11.630  18.493  0.00  0.00    +0.000 C 
ATOM     19  O   UNL     1       0.734  12.684  18.367  0.00  0.00    +0.000 OA
BRANCH  18  22
ATOM     20  C   UNL     1      -3.300  10.969  17.023  0.00  0.00    +0.000 A 
ATOM     21  C   UNL     1      -1.921  11.190  17.111  0.00  0.00    +0.000 A 
ATOM     22  C   UNL     1      -1.354  11.644  18.297  0.00  0.00    +0.000 A 
ATOM     23  C   UNL     1      -2.183  12.078  19.327  0.00  0.00    +0.000 A 
ATOM     24  C   UNL     1      -3.578  11.971  19.219  0.00  0.00    +0.000 A 
ATOM     25  C   UNL     1      -4.155  11.385  18.067  0.00  0.00    +0.000 A 
BRANCH  20  27
ATOM     26  C   UNL     1      -2.890  10.176  14.823  0.00  0.00    +0.000 C 
ATOM     27  O   UNL     1      -3.810  10.364  15.901  0.00  0.00    +0.000 OA
ENDBRANCH  20  27
BRANCH  24  28
ATOM     28  O   UNL     1      -4.198  12.450  20.346  0.00  0.00    +0.000 OA
ATOM     29  C   UNL     1      -4.465  13.838  20.469  0.00  0.00    +0.000 C 
ENDBRANCH  24  28
BRANCH  25  30
ATOM     30  O   UNL     1      -5.520  11.281  18.064  0.00  0.00    +0.000 OA
ATOM     31  C   UNL     1      -6.320  12.312  17.512  0.00  0.00    +0.000 C 
ENDBRANCH  25  30
ENDBRANCH  18  22
ENDBRANCH   1  18
TORSDOF 7
ENDMDL
MODEL 8
REMARK VINA RESULT:      -7.7      2.530      4.538
REMARK  Name = 
REMARK  11 active torsions:
REMARK  status: ('A' for Active; 'I' for Inactive)
REMARK    1  A    between atoms: C_1  and  O_2
REMARK    2  A    between atoms: O_2  and  C_3
REMARK    3  A    between atoms: C_5  and  C_6
REMARK    4  A    between atoms: C_6  and  C_8
REMARK    5  A    between atoms: N_10  and  C_11
REMARK    6  A    between atoms: C_14  and  C_15
REMARK    7  A    between atoms: C_19  and  C_20
REMARK    8  A    between atoms: C_26  and  O_27
REMARK    9  A    between atoms: O_27  and  C_28
REMARK   10  A    between atoms: C_29  and  O_30
REMARK   11  A    between atoms: O_30  and  C_31
REMARK                            x       y       z     vdW  Elec       q    Type
REMARK                         _______ _______ _______ _____ _____    ______ ____
ROOT
ATOM      1  C   UNL     1       1.314   9.543  19.015  0.00  0.00    +0.000 A 
ATOM      2  C   UNL     1       2.008   8.824  18.042  0.00  0.00    +0.000 A 
ATOM      3  N   UNL     1       2.489   7.638  18.567  0.00  0.00    +0.000 N 
ATOM      4  C   UNL     1       2.094   7.604  19.887  0.00  0.00    +0.000 A 
ATOM      5  C   UNL     1       1.380   8.745  20.189  0.00  0.00    +0.000 A 
ENDROOT
BRANCH   3   6
ATOM      6  C   UNL     1       3.241   6.632  17.878  0.00  0.00    +0.000 A 
ATOM      7  C   UNL     1       2.875   5.278  17.943  0.00  0.00    +0.000 A 
ATOM      8  C   UNL     1       3.638   4.302  17.284  0.00  0.00    +0.000 A 
ATOM      9  C   UNL     1       4.777   4.655  16.558  0.00  0.00    +0.000 A 
ATOM     10  C   UNL     1       5.624   3.620  15.878  0.00  0.00    +0.000 C 
ATOM     11  C   UNL     1       5.134   6.006  16.482  0.00  0.00    +0.000 A 
ATOM     12  C   UNL     1       4.378   6.983  17.132  0.00  0.00    +0.000 A 
ENDBRANCH   3   6
BRANCH   5  13
ATOM     13  C   UNL     1       0.829   9.066  21.501  0.00  0.00    +0.000 A 
ATOM     14  C   UNL     1      -0.553   9.096  21.815  0.00  0.00    +0.000 A 
ATOM     15  C   UNL     1      -0.632   9.429  23.148  0.00  0.00    +0.000 A 
ATOM     16  O   UNL     1       0.608   9.589  23.672  0.00  0.00    +0.000 OA
ATOM     17  C   UNL     1       1.494   9.379  22.664  0.00  0.00    +0.000 A 
ENDBRANCH   5  13
BRANCH   1  18
ATOM     18  C   UNL     1       0.619  10.822  18.808  0.00  0.00    +0.000 C 
ATOM     19  O   UNL     1      -0.464  10.902  18.239  0.00  0.00    +0.000 OA
BRANCH  18  22
ATOM     20  C   UNL     1       2.552  14.069  18.763  0.00  0.00    +0.000 A 
ATOM     21  C   UNL     1       2.140  12.774  18.432  0.00  0.00    +0.000 A 
ATOM     22  C   UNL     1       1.272  12.076  19.265  0.00  0.00    +0.000 A 
ATOM     23  C   UNL     1       0.981  12.584  20.528  0.00  0.00    +0.000 A 
ATOM     24  C   UNL     1       1.476  13.834  20.929  0.00  0.00    +0.000 A 
ATOM     25  C   UNL     1       2.250  14.609  20.034  0.00  0.00    +0.000 A 
BRANCH  20  27
ATOM     26  C   UNL     1       4.694  14.683  17.941  0.00  0.00    +0.000 C 
ATOM     27  O   UNL     1       3.271  14.798  17.848  0.00  0.00    +0.000 OA
ENDBRANCH  20  27
BRANCH  24  28
ATOM     28  O   UNL     1       1.064  14.141  22.202  0.00  0.00    +0.000 OA
ATOM     29  C   UNL     1      -0.274  14.553  22.432  0.00  0.00    +0.000 C 
ENDBRANCH  24  28
BRANCH  25  30
ATOM     30  O   UNL     1       2.654  15.834  20.492  0.00  0.00    +0.000 OA
ATOM     31  C   UNL     1       1.874  16.990  20.240  0.00  0.00    +0.000 C 
ENDBRANCH  25  30
ENDBRANCH  18  22
ENDBRANCH   1  18
TORSDOF 7
ENDMDL
MODEL 9
REMARK VINA RESULT:      -7.6      1.546      2.243
REMARK  Name = 
REMARK  11 active torsions:
REMARK  status: ('A' for Active; 'I' for Inactive)
REMARK    1  A    between atoms: C_1  and  O_2
REMARK    2  A    between atoms: O_2  and  C_3
REMARK    3  A    between atoms: C_5  and  C_6
REMARK    4  A    between atoms: C_6  and  C_8
REMARK    5  A    between atoms: N_10  and  C_11
REMARK    6  A    between atoms: C_14  and  C_15
REMARK    7  A    between atoms: C_19  and  C_20
REMARK    8  A    between atoms: C_26  and  O_27
REMARK    9  A    between atoms: O_27  and  C_28
REMARK   10  A    between atoms: C_29  and  O_30
REMARK   11  A    between atoms: O_30  and  C_31
REMARK                            x       y       z     vdW  Elec       q    Type
REMARK                         _______ _______ _______ _____ _____    ______ ____
ROOT
ATOM      1  C   UNL     1       0.191  10.719  19.116  0.00  0.00    +0.000 A 
ATOM      2  C   UNL     1       0.925   9.746  18.442  0.00  0.00    +0.000 A 
ATOM      3  N   UNL     1       1.466   8.840  19.338  0.00  0.00    +0.000 N 
ATOM      4  C   UNL     1       1.067   9.243  20.594  0.00  0.00    +0.000 A 
ATOM      5  C   UNL     1       0.293  10.381  20.493  0.00  0.00    +0.000 A 
ENDROOT
BRANCH   3   6
ATOM      6  C   UNL     1       2.273   7.697  19.028  0.00  0.00    +0.000 A 
ATOM      7  C   UNL     1       3.085   7.670  17.882  0.00  0.00    +0.000 A 
ATOM      8  C   UNL     1       3.849   6.534  17.578  0.00  0.00    +0.000 A 
ATOM      9  C   UNL     1       3.813   5.407  18.403  0.00  0.00    +0.000 A 
ATOM     10  C   UNL     1       4.597   4.170  18.072  0.00  0.00    +0.000 C 
ATOM     11  C   UNL     1       3.015   5.439  19.551  0.00  0.00    +0.000 A 
ATOM     12  C   UNL     1       2.255   6.569  19.862  0.00  0.00    +0.000 A 
ENDBRANCH   3   6
BRANCH   5  13
ATOM     13  C   UNL     1      -0.281  11.107  21.621  0.00  0.00    +0.000 A 
ATOM     14  C   UNL     1      -0.300  12.518  21.751  0.00  0.00    +0.000 A 
ATOM     15  C   UNL     1      -0.936  12.780  22.943  0.00  0.00    +0.000 A 
ATOM     16  O   UNL     1      -1.319  11.626  23.541  0.00  0.00    +0.000 OA
ATOM     17  C   UNL     1      -0.908  10.609  22.740  0.00  0.00    +0.000 A 
ENDBRANCH   5  13
BRANCH   1  18
ATOM     18  C   UNL     1      -0.569  11.811  18.491  0.00  0.00    +0.000 C 
ATOM     19  O   UNL     1      -0.050  12.868  18.148  0.00  0.00    +0.000 OA
BRANCH  18  22
ATOM     20  C   UNL     1      -4.296  12.065  19.065  0.00  0.00    +0.000 A 
ATOM     21  C   UNL     1      -2.924  11.977  19.323  0.00  0.00    +0.000 A 
ATOM     22  C   UNL     1      -2.035  11.651  18.304  0.00  0.00    +0.000 A 
ATOM     23  C   UNL     1      -2.530  11.211  17.081  0.00  0.00    +0.000 A 
ATOM     24  C   UNL     1      -3.912  11.183  16.834  0.00  0.00    +0.000 A 
ATOM     25  C   UNL     1      -4.816  11.640  17.822  0.00  0.00    +0.000 A 
BRANCH  20  27
ATOM     26  C   UNL     1      -4.513  12.849  21.296  0.00  0.00    +0.000 C 
ATOM     27  O   UNL     1      -5.131  12.549  20.042  0.00  0.00    +0.000 OA
ENDBRANCH  20  27
BRANCH  24  28
ATOM     28  O   UNL     1      -4.177  10.722  15.569  0.00  0.00    +0.000 OA
ATOM     29  C   UNL     1      -3.116  10.259  14.749  0.00  0.00    +0.000 C 
ENDBRANCH  24  28
BRANCH  25  30
ATOM     30  O   UNL     1      -6.141  11.619  17.481  0.00  0.00    +0.000 OA
ATOM     31  C   UNL     1      -6.809  12.814  17.112  0.00  0.00    +0.000 C 
ENDBRANCH  25  30
ENDBRANCH  18  22
ENDBRANCH   1  18
TORSDOF 7
ENDMDL
