MODEL 1
REMARK VINA RESULT:      -9.3      0.000      0.000
REMARK  Name = 
REMARK  3 active torsions:
REMARK  status: ('A' for Active; 'I' for Inactive)
REMARK    1  A    between atoms: N_5  and  C_6
REMARK    2  A    between atoms: N_5  and  C_17
REMARK    3  A    between atoms: C_6  and  C_7
REMARK                            x       y       z     vdW  Elec       q    Type
REMARK                         _______ _______ _______ _____ _____    ______ ____
ROOT
ATOM      1  C   UNL     1       7.703   5.418  18.175  0.00  0.00    +0.000 A 
ATOM      2  C   UNL     1       7.056   5.499  19.382  0.00  0.00    +0.000 A 
ATOM      3  N   UNL     1       5.712   5.553  19.521  0.00  0.00    +0.000 NA
ATOM      4  C   UNL     1       4.978   5.487  18.403  0.00  0.00    +0.000 A 
ATOM      5  N   UNL     1       3.626   5.234  18.470  0.00  0.00    +0.000 N 
ATOM      6  N   UNL     1       5.543   5.546  17.192  0.00  0.00    +0.000 NA
ATOM      7  C   UNL     1       6.883   5.486  17.089  0.00  0.00    +0.000 A 
ENDROOT
BRANCH   5   8
ATOM      8  C   UNL     1       3.020   4.211  17.602  0.00  0.00    +0.000 C 
ATOM      9  C   UNL     1       1.510   4.062  17.811  0.00  0.00    +0.000 C 
ATOM     10  C   UNL     1       1.125   2.975  18.808  0.00  0.00    +0.000 C 
ATOM     11  N   UNL     1       1.762   1.687  18.535  0.00  0.00    +0.000 NA
ATOM     12  C   UNL     1       3.220   1.779  18.485  0.00  0.00    +0.000 C 
ATOM     13  C   UNL     1       3.748   2.862  17.545  0.00  0.00    +0.000 C 
ATOM     14  H   UNL     1       1.423   1.334  17.640  0.00  0.00    +0.000 HD
ENDBRANCH   5   8
BRANCH   5  15
ATOM     15  C   UNL     1       2.861   5.788  19.575  0.00  0.00    +0.000 C 
BRANCH  15  16
ATOM     16  C   UNL     1       2.348   7.215  19.438  0.00  0.00    +0.000 A 
ATOM     17  C   UNL     1       2.391   7.827  18.179  0.00  0.00    +0.000 A 
ATOM     18  C   UNL     1       1.643   8.980  17.920  0.00  0.00    +0.000 A 
ATOM     19  C   UNL     1       0.884   9.587  18.922  0.00  0.00    +0.000 A 
ATOM     20  C   UNL     1       0.044  10.681  18.636  0.00  0.00    +0.000 A 
ATOM     21  C   UNL     1      -0.668  11.322  19.646  0.00  0.00    +0.000 A 
ATOM     22  C   UNL     1      -0.528  10.895  20.964  0.00  0.00    +0.000 A 
ATOM     23  C   UNL     1       0.264   9.778  21.254  0.00  0.00    +0.000 A 
ATOM     24  C   UNL     1       0.951   9.088  20.237  0.00  0.00    +0.000 A 
ATOM     25  C   UNL     1       1.670   7.885  20.473  0.00  0.00    +0.000 A 
ENDBRANCH  15  16
ENDBRANCH   5  15
TORSDOF 3
ENDMDL
MODEL 2
REMARK VINA RESULT:      -8.7      0.706      1.564
REMARK  Name = 
REMARK  3 active torsions:
REMARK  status: ('A' for Active; 'I' for Inactive)
REMARK    1  A    between atoms: N_5  and  C_6
REMARK    2  A    between atoms: N_5  and  C_17
REMARK    3  A    between atoms: C_6  and  C_7
REMARK                            x       y       z     vdW  Elec       q    Type
REMARK                         _______ _______ _______ _____ _____    ______ ____
ROOT
ATOM      1  C   UNL     1       7.666   5.757  17.892  0.00  0.00    +0.000 A 
ATOM      2  C   UNL     1       7.171   5.626  19.165  0.00  0.00    +0.000 A 
ATOM      3  N   UNL     1       5.856   5.509  19.460  0.00  0.00    +0.000 NA
ATOM      4  C   UNL     1       4.998   5.486  18.432  0.00  0.00    +0.000 A 
ATOM      5  N   UNL     1       3.698   5.072  18.619  0.00  0.00    +0.000 N 
ATOM      6  N   UNL     1       5.397   5.746  17.182  0.00  0.00    +0.000 NA
ATOM      7  C   UNL     1       6.713   5.853  16.922  0.00  0.00    +0.000 A 
ENDROOT
BRANCH   5   8
ATOM      8  C   UNL     1       3.094   4.091  17.702  0.00  0.00    +0.000 C 
ATOM      9  C   UNL     1       1.577   3.964  17.871  0.00  0.00    +0.000 C 
ATOM     10  C   UNL     1       1.147   2.853  18.820  0.00  0.00    +0.000 C 
ATOM     11  N   UNL     1       1.767   1.563  18.519  0.00  0.00    +0.000 NA
ATOM     12  C   UNL     1       3.227   1.627  18.507  0.00  0.00    +0.000 C 
ATOM     13  C   UNL     1       3.798   2.731  17.616  0.00  0.00    +0.000 C 
ATOM     14  H   UNL     1       1.443   1.246  17.605  0.00  0.00    +0.000 HD
ENDBRANCH   5   8
BRANCH   5  15
ATOM     15  C   UNL     1       3.025   5.406  19.864  0.00  0.00    +0.000 C 
BRANCH  15  16
ATOM     16  C   UNL     1       2.170   6.665  19.892  0.00  0.00    +0.000 A 
ATOM     17  C   UNL     1       1.404   6.932  21.034  0.00  0.00    +0.000 A 
ATOM     18  C   UNL     1       0.875   8.207  21.256  0.00  0.00    +0.000 A 
ATOM     19  C   UNL     1       1.042   9.230  20.321  0.00  0.00    +0.000 A 
ATOM     20  C   UNL     1       0.608  10.543  20.593  0.00  0.00    +0.000 A 
ATOM     21  C   UNL     1       0.723  11.549  19.637  0.00  0.00    +0.000 A 
ATOM     22  C   UNL     1       1.249  11.250  18.384  0.00  0.00    +0.000 A 
ATOM     23  C   UNL     1       1.730   9.963  18.118  0.00  0.00    +0.000 A 
ATOM     24  C   UNL     1       1.667   8.947  19.091  0.00  0.00    +0.000 A 
ATOM     25  C   UNL     1       2.247   7.663  18.902  0.00  0.00    +0.000 A 
ENDBRANCH  15  16
ENDBRANCH   5  15
TORSDOF 3
ENDMDL
MODEL 3
REMARK VINA RESULT:      -8.6      1.380      2.398
REMARK  Name = 
REMARK  3 active torsions:
REMARK  status: ('A' for Active; 'I' for Inactive)
REMARK    1  A    between atoms: N_5  and  C_6
REMARK    2  A    between atoms: N_5  and  C_17
REMARK    3  A    between atoms: C_6  and  C_7
REMARK                            x       y       z     vdW  Elec       q    Type
REMARK                         _______ _______ _______ _____ _____    ______ ____
ROOT
ATOM      1  C   UNL     1       6.929   4.626  14.707  0.00  0.00    +0.000 A 
ATOM      2  C   UNL     1       7.249   5.163  15.928  0.00  0.00    +0.000 A 
ATOM      3  N   UNL     1       6.418   5.175  16.995  0.00  0.00    +0.000 NA
ATOM      4  C   UNL     1       5.223   4.589  16.844  0.00  0.00    +0.000 A 
ATOM      5  N   UNL     1       4.450   4.291  17.945  0.00  0.00    +0.000 N 
ATOM      6  N   UNL     1       4.794   4.170  15.649  0.00  0.00    +0.000 NA
ATOM      7  C   UNL     1       5.649   4.169  14.609  0.00  0.00    +0.000 A 
ENDROOT
BRANCH   5   8
ATOM      8  C   UNL     1       3.845   2.956  18.086  0.00  0.00    +0.000 C 
ATOM      9  C   UNL     1       2.437   2.867  17.489  0.00  0.00    +0.000 C 
ATOM     10  C   UNL     1       1.319   3.120  18.494  0.00  0.00    +0.000 C 
ATOM     11  N   UNL     1       1.443   2.318  19.710  0.00  0.00    +0.000 NA
ATOM     12  C   UNL     1       2.726   2.508  20.384  0.00  0.00    +0.000 C 
ATOM     13  C   UNL     1       3.943   2.319  19.477  0.00  0.00    +0.000 C 
ATOM     14  H   UNL     1       1.339   1.332  19.468  0.00  0.00    +0.000 HD
ENDBRANCH   5   8
BRANCH   5  15
ATOM     15  C   UNL     1       4.455   5.204  19.076  0.00  0.00    +0.000 C 
BRANCH  15  16
ATOM     16  C   UNL     1       3.271   6.149  19.230  0.00  0.00    +0.000 A 
ATOM     17  C   UNL     1       2.470   6.042  20.374  0.00  0.00    +0.000 A 
ATOM     18  C   UNL     1       1.595   7.073  20.733  0.00  0.00    +0.000 A 
ATOM     19  C   UNL     1       1.452   8.207  19.931  0.00  0.00    +0.000 A 
ATOM     20  C   UNL     1       0.658   9.294  20.346  0.00  0.00    +0.000 A 
ATOM     21  C   UNL     1       0.468  10.400  19.521  0.00  0.00    +0.000 A 
ATOM     22  C   UNL     1       1.048  10.421  18.256  0.00  0.00    +0.000 A 
ATOM     23  C   UNL     1       1.880   9.370  17.852  0.00  0.00    +0.000 A 
ATOM     24  C   UNL     1       2.122   8.268  18.694  0.00  0.00    +0.000 A 
ATOM     25  C   UNL     1       3.047   7.240  18.370  0.00  0.00    +0.000 A 
ENDBRANCH  15  16
ENDBRANCH   5  15
TORSDOF 3
ENDMDL
MODEL 4
REMARK VINA RESULT:      -8.6      1.358      3.912
REMARK  Name = 
REMARK  3 active torsions:
REMARK  status: ('A' for Active; 'I' for Inactive)
REMARK    1  A    between atoms: N_5  and  C_6
REMARK    2  A    between atoms: N_5  and  C_17
REMARK    3  A    between atoms: C_6  and  C_7
REMARK                            x       y       z     vdW  Elec       q    Type
REMARK                         _______ _______ _______ _____ _____    ______ ____
ROOT
ATOM      1  C   UNL     1       1.466   2.307  19.794  0.00  0.00    +0.000 A 
ATOM      2  C   UNL     1       1.071   3.086  18.736  0.00  0.00    +0.000 A 
ATOM      3  N   UNL     1       1.788   4.124  18.248  0.00  0.00    +0.000 NA
ATOM      4  C   UNL     1       2.972   4.372  18.821  0.00  0.00    +0.000 A 
ATOM      5  N   UNL     1       3.885   5.199  18.204  0.00  0.00    +0.000 N 
ATOM      6  N   UNL     1       3.354   3.744  19.938  0.00  0.00    +0.000 NA
ATOM      7  C   UNL     1       2.620   2.713  20.395  0.00  0.00    +0.000 A 
ENDROOT
BRANCH   5   8
ATOM      8  C   UNL     1       5.290   4.780  18.070  0.00  0.00    +0.000 C 
ATOM      9  C   UNL     1       6.281   5.821  18.599  0.00  0.00    +0.000 C 
ATOM     10  C   UNL     1       6.806   6.777  17.534  0.00  0.00    +0.000 C 
ATOM     11  N   UNL     1       7.321   6.094  16.347  0.00  0.00    +0.000 NA
ATOM     12  C   UNL     1       6.333   5.209  15.733  0.00  0.00    +0.000 C 
ATOM     13  C   UNL     1       5.694   4.215  16.703  0.00  0.00    +0.000 C 
ATOM     14  H   UNL     1       8.139   5.545  16.611  0.00  0.00    +0.000 HD
ENDBRANCH   5   8
BRANCH   5  15
ATOM     15  C   UNL     1       3.402   6.352  17.463  0.00  0.00    +0.000 C 
BRANCH  15  16
ATOM     16  C   UNL     1       2.773   7.490  18.254  0.00  0.00    +0.000 A 
ATOM     17  C   UNL     1       2.399   8.656  17.574  0.00  0.00    +0.000 A 
ATOM     18  C   UNL     1       1.530   9.580  18.163  0.00  0.00    +0.000 A 
ATOM     19  C   UNL     1       1.059   9.396  19.465  0.00  0.00    +0.000 A 
ATOM     20  C   UNL     1       0.097  10.264  20.019  0.00  0.00    +0.000 A 
ATOM     21  C   UNL     1      -0.330  10.116  21.336  0.00  0.00    +0.000 A 
ATOM     22  C   UNL     1       0.221   9.113  22.128  0.00  0.00    +0.000 A 
ATOM     23  C   UNL     1       1.140   8.213  21.575  0.00  0.00    +0.000 A 
ATOM     24  C   UNL     1       1.544   8.319  20.231  0.00  0.00    +0.000 A 
ATOM     25  C   UNL     1       2.383   7.361  19.601  0.00  0.00    +0.000 A 
ENDBRANCH  15  16
ENDBRANCH   5  15
TORSDOF 3
ENDMDL
MODEL 5
REMARK VINA RESULT:      -8.4      1.424      1.865
REMARK  Name = 
REMARK  3 active torsions:
REMARK  status: ('A' for Active; 'I' for Inactive)
REMARK    1  A    between atoms: N_5  and  C_6
REMARK    2  A    between atoms: N_5  and  C_17
REMARK    3  A    between atoms: C_6  and  C_7
REMARK                            x       y       z     vdW  Elec       q    Type
REMARK                         _______ _______ _______ _____ _____    ______ ____
ROOT
ATOM      1  C   UNL     1       6.769   4.265  14.526  0.00  0.00    +0.000 A 
ATOM      2  C   UNL     1       7.084   4.521  15.837  0.00  0.00    +0.000 A 
ATOM      3  N   UNL     1       6.169   4.738  16.810  0.00  0.00    +0.000 NA
ATOM      4  C   UNL     1       4.878   4.657  16.463  0.00  0.00    +0.000 A 
ATOM      5  N   UNL     1       3.902   4.563  17.431  0.00  0.00    +0.000 N 
ATOM      6  N   UNL     1       4.502   4.548  15.185  0.00  0.00    +0.000 NA
ATOM      7  C   UNL     1       5.438   4.330  14.242  0.00  0.00    +0.000 A 
ENDROOT
BRANCH   5   8
ATOM      8  C   UNL     1       2.846   3.543  17.321  0.00  0.00    +0.000 C 
ATOM      9  C   UNL     1       1.500   4.007  17.885  0.00  0.00    +0.000 C 
ATOM     10  C   UNL     1       1.270   3.618  19.341  0.00  0.00    +0.000 C 
ATOM     11  N   UNL     1       1.507   2.199  19.605  0.00  0.00    +0.000 NA
ATOM     12  C   UNL     1       2.848   1.769  19.214  0.00  0.00    +0.000 C 
ATOM     13  C   UNL     1       3.228   2.130  17.778  0.00  0.00    +0.000 C 
ATOM     14  H   UNL     1       0.820   1.648  19.090  0.00  0.00    +0.000 HD
ENDBRANCH   5   8
BRANCH   5  15
ATOM     15  C   UNL     1       4.073   5.293  18.676  0.00  0.00    +0.000 C 
BRANCH  15  16
ATOM     16  C   UNL     1       3.351   6.626  18.822  0.00  0.00    +0.000 A 
ATOM     17  C   UNL     1       3.301   7.489  17.721  0.00  0.00    +0.000 A 
ATOM     18  C   UNL     1       2.389   8.548  17.684  0.00  0.00    +0.000 A 
ATOM     19  C   UNL     1       1.547   8.811  18.766  0.00  0.00    +0.000 A 
ATOM     20  C   UNL     1       0.551   9.805  18.687  0.00  0.00    +0.000 A 
ATOM     21  C   UNL     1      -0.250  10.107  19.785  0.00  0.00    +0.000 A 
ATOM     22  C   UNL     1      -0.048   9.437  20.988  0.00  0.00    +0.000 A 
ATOM     23  C   UNL     1       0.903   8.413  21.065  0.00  0.00    +0.000 A 
ATOM     24  C   UNL     1       1.687   8.062  19.949  0.00  0.00    +0.000 A 
ATOM     25  C   UNL     1       2.579   6.955  19.953  0.00  0.00    +0.000 A 
ENDBRANCH  15  16
ENDBRANCH   5  15
TORSDOF 3
ENDMDL
MODEL 6
REMARK VINA RESULT:      -8.4      0.870      1.057
REMARK  Name = 
REMARK  3 active torsions:
REMARK  status: ('A' for Active; 'I' for Inactive)
REMARK    1  A    between atoms: N_5  and  C_6
REMARK    2  A    between atoms: N_5  and  C_17
REMARK    3  A    between atoms: C_6  and  C_7
REMARK                            x       y       z     vdW  Elec       q    Type
REMARK                         _______ _______ _______ _____ _____    ______ ____
ROOT
ATOM      1  C   UNL     1       7.854   5.032  17.900  0.00  0.00    +0.000 A 
ATOM      2  C   UNL     1       7.387   5.423  19.129  0.00  0.00    +0.000 A 
ATOM      3  N   UNL     1       6.083   5.404  19.488  0.00  0.00    +0.000 NA
ATOM      4  C   UNL     1       5.209   4.936  18.588  0.00  0.00    +0.000 A 
ATOM      5  N   UNL     1       3.928   4.602  18.970  0.00  0.00    +0.000 N 
ATOM      6  N   UNL     1       5.575   4.669  17.330  0.00  0.00    +0.000 NA
ATOM      7  C   UNL     1       6.881   4.694  17.007  0.00  0.00    +0.000 A 
ENDROOT
BRANCH   5   8
ATOM      8  C   UNL     1       3.345   3.314  18.558  0.00  0.00    +0.000 C 
ATOM      9  C   UNL     1       2.191   3.468  17.562  0.00  0.00    +0.000 C 
ATOM     10  C   UNL     1       0.813   3.512  18.210  0.00  0.00    +0.000 C 
ATOM     11  N   UNL     1       0.578   2.412  19.145  0.00  0.00    +0.000 NA
ATOM     12  C   UNL     1       1.587   2.343  20.200  0.00  0.00    +0.000 C 
ATOM     13  C   UNL     1       3.027   2.328  19.689  0.00  0.00    +0.000 C 
ATOM     14  H   UNL     1       0.579   1.532  18.627  0.00  0.00    +0.000 HD
ENDBRANCH   5   8
BRANCH   5  15
ATOM     15  C   UNL     1       3.266   5.401  19.988  0.00  0.00    +0.000 C 
BRANCH  15  16
ATOM     16  C   UNL     1       2.724   6.763  19.579  0.00  0.00    +0.000 A 
ATOM     17  C   UNL     1       2.868   7.173  18.247  0.00  0.00    +0.000 A 
ATOM     18  C   UNL     1       2.112   8.235  17.741  0.00  0.00    +0.000 A 
ATOM     19  C   UNL     1       1.241   8.954  18.561  0.00  0.00    +0.000 A 
ATOM     20  C   UNL     1       0.397   9.950  18.030  0.00  0.00    +0.000 A 
ATOM     21  C   UNL     1      -0.429  10.706  18.856  0.00  0.00    +0.000 A 
ATOM     22  C   UNL     1      -0.403  10.497  20.232  0.00  0.00    +0.000 A 
ATOM     23  C   UNL     1       0.393   9.477  20.767  0.00  0.00    +0.000 A 
ATOM     24  C   UNL     1       1.196   8.670  19.940  0.00  0.00    +0.000 A 
ATOM     25  C   UNL     1       1.927   7.554  20.429  0.00  0.00    +0.000 A 
ENDBRANCH  15  16
ENDBRANCH   5  15
TORSDOF 3
ENDMDL
MODEL 7
REMARK VINA RESULT:      -8.3      1.594      3.707
REMARK  Name = 
REMARK  3 active torsions:
REMARK  status: ('A' for Active; 'I' for Inactive)
REMARK    1  A    between atoms: N_5  and  C_6
REMARK    2  A    between atoms: N_5  and  C_17
REMARK    3  A    between atoms: C_6  and  C_7
REMARK                            x       y       z     vdW  Elec       q    Type
REMARK                         _______ _______ _______ _____ _____    ______ ____
ROOT
ATOM      1  C   UNL     1       1.460   2.551  20.907  0.00  0.00    +0.000 A 
ATOM      2  C   UNL     1       0.817   3.178  19.870  0.00  0.00    +0.000 A 
ATOM      3  N   UNL     1       1.328   4.221  19.177  0.00  0.00    +0.000 NA
ATOM      4  C   UNL     1       2.558   4.633  19.512  0.00  0.00    +0.000 A 
ATOM      5  N   UNL     1       3.264   5.470  18.677  0.00  0.00    +0.000 N 
ATOM      6  N   UNL     1       3.183   4.160  20.596  0.00  0.00    +0.000 NA
ATOM      7  C   UNL     1       2.648   3.119  21.260  0.00  0.00    +0.000 A 
ENDROOT
BRANCH   5   8
ATOM      8  C   UNL     1       4.664   5.168  18.337  0.00  0.00    +0.000 C 
ATOM      9  C   UNL     1       5.432   6.386  17.814  0.00  0.00    +0.000 C 
ATOM     10  C   UNL     1       5.433   6.514  16.295  0.00  0.00    +0.000 C 
ATOM     11  N   UNL     1       5.837   5.285  15.611  0.00  0.00    +0.000 NA
ATOM     12  C   UNL     1       5.012   4.137  15.981  0.00  0.00    +0.000 C 
ATOM     13  C   UNL     1       4.893   3.911  17.489  0.00  0.00    +0.000 C 
ATOM     14  H   UNL     1       6.810   5.083  15.843  0.00  0.00    +0.000 HD
ENDBRANCH   5   8
BRANCH   5  15
ATOM     15  C   UNL     1       2.545   6.493  17.935  0.00  0.00    +0.000 C 
BRANCH  15  16
ATOM     16  C   UNL     1       2.107   7.740  18.690  0.00  0.00    +0.000 A 
ATOM     17  C   UNL     1       1.788   8.892  17.959  0.00  0.00    +0.000 A 
ATOM     18  C   UNL     1       1.072   9.937  18.549  0.00  0.00    +0.000 A 
ATOM     19  C   UNL     1       0.707   9.890  19.896  0.00  0.00    +0.000 A 
ATOM     20  C   UNL     1      -0.110  10.888  20.464  0.00  0.00    +0.000 A 
ATOM     21  C   UNL     1      -0.425  10.872  21.820  0.00  0.00    +0.000 A 
ATOM     22  C   UNL     1       0.096   9.871  22.635  0.00  0.00    +0.000 A 
ATOM     23  C   UNL     1       0.867   8.846  22.074  0.00  0.00    +0.000 A 
ATOM     24  C   UNL     1       1.154   8.821  20.696  0.00  0.00    +0.000 A 
ATOM     25  C   UNL     1       1.833   7.741  20.071  0.00  0.00    +0.000 A 
ENDBRANCH  15  16
ENDBRANCH   5  15
TORSDOF 3
ENDMDL
MODEL 8
REMARK VINA RESULT:      -8.0      1.188      4.050
REMARK  Name = 
REMARK  3 active torsions:
REMARK  status: ('A' for Active; 'I' for Inactive)
REMARK    1  A    between atoms: N_5  and  C_6
REMARK    2  A    between atoms: N_5  and  C_17
REMARK    3  A    between atoms: C_6  and  C_7
REMARK                            x       y       z     vdW  Elec       q    Type
REMARK                         _______ _______ _______ _____ _____    ______ ____
ROOT
ATOM      1  C   UNL     1       1.481   2.196  19.068  0.00  0.00    +0.000 A 
ATOM      2  C   UNL     1       1.154   3.190  18.181  0.00  0.00    +0.000 A 
ATOM      3  N   UNL     1       1.924   4.274  17.937  0.00  0.00    +0.000 NA
ATOM      4  C   UNL     1       3.095   4.350  18.584  0.00  0.00    +0.000 A 
ATOM      5  N   UNL     1       4.059   5.245  18.176  0.00  0.00    +0.000 N 
ATOM      6  N   UNL     1       3.412   3.492  19.559  0.00  0.00    +0.000 NA
ATOM      7  C   UNL     1       2.626   2.422  19.773  0.00  0.00    +0.000 A 
ENDROOT
BRANCH   5   8
ATOM      8  C   UNL     1       5.453   4.804  17.999  0.00  0.00    +0.000 C 
ATOM      9  C   UNL     1       6.475   5.815  18.527  0.00  0.00    +0.000 C 
ATOM     10  C   UNL     1       6.993   6.784  17.470  0.00  0.00    +0.000 C 
ATOM     11  N   UNL     1       7.467   6.117  16.257  0.00  0.00    +0.000 NA
ATOM     12  C   UNL     1       6.449   5.264  15.648  0.00  0.00    +0.000 C 
ATOM     13  C   UNL     1       5.814   4.261  16.611  0.00  0.00    +0.000 C 
ATOM     14  H   UNL     1       8.281   5.547  16.490  0.00  0.00    +0.000 HD
ENDBRANCH   5   8
BRANCH   5  15
ATOM     15  C   UNL     1       3.645   6.545  17.673  0.00  0.00    +0.000 C 
BRANCH  15  16
ATOM     16  C   UNL     1       2.578   7.300  18.453  0.00  0.00    +0.000 A 
ATOM     17  C   UNL     1       2.416   7.020  19.816  0.00  0.00    +0.000 A 
ATOM     18  C   UNL     1       1.706   7.895  20.645  0.00  0.00    +0.000 A 
ATOM     19  C   UNL     1       1.089   9.036  20.128  0.00  0.00    +0.000 A 
ATOM     20  C   UNL     1       0.470   9.975  20.977  0.00  0.00    +0.000 A 
ATOM     21  C   UNL     1      -0.195  11.082  20.458  0.00  0.00    +0.000 A 
ATOM     22  C   UNL     1      -0.275  11.252  19.078  0.00  0.00    +0.000 A 
ATOM     23  C   UNL     1       0.378  10.354  18.226  0.00  0.00    +0.000 A 
ATOM     24  C   UNL     1       1.097   9.257  18.738  0.00  0.00    +0.000 A 
ATOM     25  C   UNL     1       1.867   8.391  17.916  0.00  0.00    +0.000 A 
ENDBRANCH  15  16
ENDBRANCH   5  15
TORSDOF 3
ENDMDL
MODEL 9
REMARK VINA RESULT:      -7.9      1.439      4.049
REMARK  Name = 
REMARK  3 active torsions:
REMARK  status: ('A' for Active; 'I' for Inactive)
REMARK    1  A    between atoms: N_5  and  C_6
REMARK    2  A    between atoms: N_5  and  C_17
REMARK    3  A    between atoms: C_6  and  C_7
REMARK                            x       y       z     vdW  Elec       q    Type
REMARK                         _______ _______ _______ _____ _____    ______ ____
ROOT
ATOM      1  C   UNL     1       3.478   1.082  19.317  0.00  0.00    +0.000 A 
ATOM      2  C   UNL     1       2.909   1.722  18.244  0.00  0.00    +0.000 A 
ATOM      3  N   UNL     1       3.243   2.968  17.838  0.00  0.00    +0.000 NA
ATOM      4  C   UNL     1       4.217   3.591  18.514  0.00  0.00    +0.000 A 
ATOM      5  N   UNL     1       4.819   4.715  17.992  0.00  0.00    +0.000 N 
ATOM      6  N   UNL     1       4.716   3.085  19.647  0.00  0.00    +0.000 NA
ATOM      7  C   UNL     1       4.366   1.841  20.020  0.00  0.00    +0.000 A 
ENDROOT
BRANCH   5   8
ATOM      8  C   UNL     1       6.287   4.826  17.968  0.00  0.00    +0.000 C 
ATOM      9  C   UNL     1       6.798   6.155  18.531  0.00  0.00    +0.000 C 
ATOM     10  C   UNL     1       7.027   7.230  17.475  0.00  0.00    +0.000 C 
ATOM     11  N   UNL     1       7.839   6.771  16.349  0.00  0.00    +0.000 NA
ATOM     12  C   UNL     1       7.282   5.588  15.696  0.00  0.00    +0.000 C 
ATOM     13  C   UNL     1       6.968   4.436  16.651  0.00  0.00    +0.000 C 
ATOM     14  H   UNL     1       8.777   6.552  16.686  0.00  0.00    +0.000 HD
ENDBRANCH   5   8
BRANCH   5  15
ATOM     15  C   UNL     1       4.011   5.658  17.236  0.00  0.00    +0.000 C 
BRANCH  15  16
ATOM     16  C   UNL     1       3.363   6.806  17.996  0.00  0.00    +0.000 A 
ATOM     17  C   UNL     1       3.180   8.029  17.339  0.00  0.00    +0.000 A 
ATOM     18  C   UNL     1       2.307   8.993  17.854  0.00  0.00    +0.000 A 
ATOM     19  C   UNL     1       1.643   8.790  19.065  0.00  0.00    +0.000 A 
ATOM     20  C   UNL     1       0.679   9.707  19.529  0.00  0.00    +0.000 A 
ATOM     21  C   UNL     1       0.060   9.534  20.763  0.00  0.00    +0.000 A 
ATOM     22  C   UNL     1       0.415   8.453  21.565  0.00  0.00    +0.000 A 
ATOM     23  C   UNL     1       1.333   7.507  21.094  0.00  0.00    +0.000 A 
ATOM     24  C   UNL     1       1.931   7.642  19.827  0.00  0.00    +0.000 A 
ATOM     25  C   UNL     1       2.777   6.647  19.266  0.00  0.00    +0.000 A 
ENDBRANCH  15  16
ENDBRANCH   5  15
TORSDOF 3
ENDMDL
