MODEL 1
REMARK VINA RESULT:      -7.2      0.000      0.000
REMARK  Name = 
REMARK  10 active torsions:
REMARK  status: ('A' for Active; 'I' for Inactive)
REMARK    1  A    between atoms: C_1  and  O_2
REMARK    2  A    between atoms: O_2  and  C_3
REMARK    3  A    between atoms: C_3  and  C_4
REMARK    4  A    between atoms: C_4  and  O_5
REMARK    5  A    between atoms: O_5  and  C_6
REMARK    6  A    between atoms: C_11  and  C_12
REMARK    7  A    between atoms: N_14  and  C_15
REMARK    8  A    between atoms: C_18  and  C_19
REMARK    9  A    between atoms: C_19  and  O_21
REMARK   10  A    between atoms: C_25  and  C_26
REMARK                            x       y       z     vdW  Elec       q    Type
REMARK                         _______ _______ _______ _____ _____    ______ ____
ROOT
ATOM      1  C   UNL     1       3.172   5.834  18.595  0.00  0.00    +0.000 A 
ATOM      2  C   UNL     1       2.381   6.453  19.559  0.00  0.00    +0.000 A 
ATOM      3  N   UNL     1       2.212   7.794  19.255  0.00  0.00    +0.000 N 
ATOM      4  C   UNL     1       3.002   8.049  18.154  0.00  0.00    +0.000 A 
ATOM      5  C   UNL     1       3.584   6.873  17.721  0.00  0.00    +0.000 A 
ENDROOT
BRANCH   1  11
ATOM      6  C   UNL     1       4.550   3.692  18.873  0.00  0.00    +0.000 A 
ATOM      7  C   UNL     1       4.592   2.289  18.739  0.00  0.00    +0.000 A 
ATOM      8  C   UNL     1       3.497   1.561  18.277  0.00  0.00    +0.000 A 
ATOM      9  C   UNL     1       2.329   2.222  17.940  0.00  0.00    +0.000 A 
ATOM     10  C   UNL     1       2.262   3.607  18.068  0.00  0.00    +0.000 A 
ATOM     11  C   UNL     1       3.354   4.373  18.541  0.00  0.00    +0.000 A 
BRANCH   6  12
ATOM     12  O   UNL     1       5.633   4.414  19.334  0.00  0.00    +0.000 OA
BRANCH  12  13
ATOM     13  C   UNL     1       6.699   4.608  18.391  0.00  0.00    +0.000 C 
BRANCH  13  14
ATOM     14  C   UNL     1       7.572   5.812  18.732  0.00  0.00    +0.000 C 
BRANCH  14  16
ATOM     15  C   UNL     1       7.824   7.934  17.716  0.00  0.00    +0.000 C 
ATOM     16  O   UNL     1       7.824   6.528  17.516  0.00  0.00    +0.000 OA
ENDBRANCH  14  16
ENDBRANCH  13  14
ENDBRANCH  12  13
ENDBRANCH   6  12
ENDBRANCH   1  11
BRANCH   3  17
ATOM     17  C   UNL     1       1.345   8.728  19.912  0.00  0.00    +0.000 A 
ATOM     18  C   UNL     1       0.779   9.806  19.215  0.00  0.00    +0.000 A 
ATOM     19  C   UNL     1      -0.032  10.736  19.882  0.00  0.00    +0.000 A 
ATOM     20  C   UNL     1      -0.285  10.611  21.251  0.00  0.00    +0.000 A 
ATOM     21  C   UNL     1       0.253   9.527  21.948  0.00  0.00    +0.000 A 
ATOM     22  C   UNL     1       1.065   8.597  21.283  0.00  0.00    +0.000 A 
BRANCH  20  23
ATOM     23  C   UNL     1      -1.166  11.619  21.898  0.00  0.00    +0.000 C 
ATOM     24  O   UNL     1      -2.056  12.195  21.297  0.00  0.00    +0.000 OA
BRANCH  23  25
ATOM     25  O   UNL     1      -0.872  11.871  23.191  0.00  0.00    +0.000 OA
ATOM     26  H   UNL     1      -1.343  12.621  23.594  0.00  0.00    +0.000 HD
ENDBRANCH  23  25
ENDBRANCH  20  23
ENDBRANCH   3  17
BRANCH   5  27
ATOM     27  C   UNL     1       4.389   6.807  16.543  0.00  0.00    +0.000 C 
ATOM     28  N   UNL     1       5.096   6.759  15.622  0.00  0.00    +0.000 NA
ENDBRANCH   5  27
TORSDOF 9
ENDMDL
MODEL 2
REMARK VINA RESULT:      -7.1      0.144      1.120
REMARK  Name = 
REMARK  10 active torsions:
REMARK  status: ('A' for Active; 'I' for Inactive)
REMARK    1  A    between atoms: C_1  and  O_2
REMARK    2  A    between atoms: O_2  and  C_3
REMARK    3  A    between atoms: C_3  and  C_4
REMARK    4  A    between atoms: C_4  and  O_5
REMARK    5  A    between atoms: O_5  and  C_6
REMARK    6  A    between atoms: C_11  and  C_12
REMARK    7  A    between atoms: N_14  and  C_15
REMARK    8  A    between atoms: C_18  and  C_19
REMARK    9  A    between atoms: C_19  and  O_21
REMARK   10  A    between atoms: C_25  and  C_26
REMARK                            x       y       z     vdW  Elec       q    Type
REMARK                         _______ _______ _______ _____ _____    ______ ____
ROOT
ATOM      1  C   UNL     1       3.112   5.856  18.657  0.00  0.00    +0.000 A 
ATOM      2  C   UNL     1       2.355   6.490  19.640  0.00  0.00    +0.000 A 
ATOM      3  N   UNL     1       2.220   7.837  19.348  0.00  0.00    +0.000 N 
ATOM      4  C   UNL     1       2.999   8.078  18.236  0.00  0.00    +0.000 A 
ATOM      5  C   UNL     1       3.540   6.889  17.784  0.00  0.00    +0.000 A 
ENDROOT
BRANCH   1  11
ATOM      6  C   UNL     1       4.418   3.670  18.936  0.00  0.00    +0.000 A 
ATOM      7  C   UNL     1       4.421   2.268  18.787  0.00  0.00    +0.000 A 
ATOM      8  C   UNL     1       3.313   1.578  18.297  0.00  0.00    +0.000 A 
ATOM      9  C   UNL     1       2.172   2.278  17.945  0.00  0.00    +0.000 A 
ATOM     10  C   UNL     1       2.145   3.664  18.088  0.00  0.00    +0.000 A 
ATOM     11  C   UNL     1       3.251   4.391  18.590  0.00  0.00    +0.000 A 
BRANCH   6  12
ATOM     12  O   UNL     1       5.514   4.354  19.425  0.00  0.00    +0.000 OA
BRANCH  12  13
ATOM     13  C   UNL     1       6.560   4.615  18.475  0.00  0.00    +0.000 C 
BRANCH  13  14
ATOM     14  C   UNL     1       7.343   5.884  18.800  0.00  0.00    +0.000 C 
BRANCH  14  16
ATOM     15  C   UNL     1       7.779   7.922  17.680  0.00  0.00    +0.000 C 
ATOM     16  O   UNL     1       7.696   6.509  17.559  0.00  0.00    +0.000 OA
ENDBRANCH  14  16
ENDBRANCH  13  14
ENDBRANCH  12  13
ENDBRANCH   6  12
ENDBRANCH   1  11
BRANCH   3  17
ATOM     17  C   UNL     1       1.392   8.792  20.026  0.00  0.00    +0.000 A 
ATOM     18  C   UNL     1       1.016   8.605  21.364  0.00  0.00    +0.000 A 
ATOM     19  C   UNL     1       0.171   9.526  22.000  0.00  0.00    +0.000 A 
ATOM     20  C   UNL     1      -0.319  10.640  21.311  0.00  0.00    +0.000 A 
ATOM     21  C   UNL     1       0.071  10.848  19.987  0.00  0.00    +0.000 A 
ATOM     22  C   UNL     1       0.915   9.928  19.349  0.00  0.00    +0.000 A 
BRANCH  20  23
ATOM     23  C   UNL     1      -1.198  11.589  22.044  0.00  0.00    +0.000 C 
ATOM     24  O   UNL     1      -1.070  11.816  23.235  0.00  0.00    +0.000 OA
BRANCH  23  25
ATOM     25  O   UNL     1      -2.170  12.145  21.292  0.00  0.00    +0.000 OA
ATOM     26  H   UNL     1      -2.431  13.050  21.537  0.00  0.00    +0.000 HD
ENDBRANCH  23  25
ENDBRANCH  20  23
ENDBRANCH   3  17
BRANCH   5  27
ATOM     27  C   UNL     1       4.322   6.808  16.592  0.00  0.00    +0.000 C 
ATOM     28  N   UNL     1       4.993   6.794  15.644  0.00  0.00    +0.000 NA
ENDBRANCH   5  27
TORSDOF 9
ENDMDL
MODEL 3
REMARK VINA RESULT:      -7.0      2.077      3.160
REMARK  Name = 
REMARK  10 active torsions:
REMARK  status: ('A' for Active; 'I' for Inactive)
REMARK    1  A    between atoms: C_1  and  O_2
REMARK    2  A    between atoms: O_2  and  C_3
REMARK    3  A    between atoms: C_3  and  C_4
REMARK    4  A    between atoms: C_4  and  O_5
REMARK    5  A    between atoms: O_5  and  C_6
REMARK    6  A    between atoms: C_11  and  C_12
REMARK    7  A    between atoms: N_14  and  C_15
REMARK    8  A    between atoms: C_18  and  C_19
REMARK    9  A    between atoms: C_19  and  O_21
REMARK   10  A    between atoms: C_25  and  C_26
REMARK                            x       y       z     vdW  Elec       q    Type
REMARK                         _______ _______ _______ _____ _____    ______ ____
ROOT
ATOM      1  C   UNL     1       3.960   5.533  18.033  0.00  0.00    +0.000 A 
ATOM      2  C   UNL     1       3.287   6.753  18.060  0.00  0.00    +0.000 A 
ATOM      3  N   UNL     1       2.514   6.852  19.205  0.00  0.00    +0.000 N 
ATOM      4  C   UNL     1       2.607   5.635  19.847  0.00  0.00    +0.000 A 
ATOM      5  C   UNL     1       3.491   4.820  19.166  0.00  0.00    +0.000 A 
ENDROOT
BRANCH   1  11
ATOM      6  C   UNL     1       6.206   5.969  16.882  0.00  0.00    +0.000 A 
ATOM      7  C   UNL     1       7.107   5.587  15.866  0.00  0.00    +0.000 A 
ATOM      8  C   UNL     1       6.845   4.515  15.016  0.00  0.00    +0.000 A 
ATOM      9  C   UNL     1       5.671   3.796  15.162  0.00  0.00    +0.000 A 
ATOM     10  C   UNL     1       4.767   4.153  16.160  0.00  0.00    +0.000 A 
ATOM     11  C   UNL     1       5.009   5.231  17.045  0.00  0.00    +0.000 A 
BRANCH   6  12
ATOM     12  O   UNL     1       6.466   7.029  17.728  0.00  0.00    +0.000 OA
BRANCH  12  13
ATOM     13  C   UNL     1       7.840   7.443  17.802  0.00  0.00    +0.000 C 
BRANCH  13  14
ATOM     14  C   UNL     1       7.994   8.961  17.828  0.00  0.00    +0.000 C 
BRANCH  14  16
ATOM     15  C   UNL     1       9.339  10.633  18.824  0.00  0.00    +0.000 C 
ATOM     16  O   UNL     1       8.877   9.293  18.907  0.00  0.00    +0.000 OA
ENDBRANCH  14  16
ENDBRANCH  13  14
ENDBRANCH  12  13
ENDBRANCH   6  12
ENDBRANCH   1  11
BRANCH   3  17
ATOM     17  C   UNL     1       1.801   8.005  19.672  0.00  0.00    +0.000 A 
ATOM     18  C   UNL     1       1.326   8.079  20.989  0.00  0.00    +0.000 A 
ATOM     19  C   UNL     1       0.592   9.195  21.418  0.00  0.00    +0.000 A 
ATOM     20  C   UNL     1       0.316  10.248  20.541  0.00  0.00    +0.000 A 
ATOM     21  C   UNL     1       0.808  10.195  19.235  0.00  0.00    +0.000 A 
ATOM     22  C   UNL     1       1.540   9.079  18.804  0.00  0.00    +0.000 A 
BRANCH  20  23
ATOM     23  C   UNL     1      -0.452  11.411  21.059  0.00  0.00    +0.000 C 
ATOM     24  O   UNL     1      -1.572  11.686  20.664  0.00  0.00    +0.000 OA
BRANCH  23  25
ATOM     25  O   UNL     1       0.207  12.155  21.971  0.00  0.00    +0.000 OA
ATOM     26  H   UNL     1      -0.295  12.387  22.772  0.00  0.00    +0.000 HD
ENDBRANCH  23  25
ENDBRANCH  20  23
ENDBRANCH   3  17
BRANCH   5  27
ATOM     27  C   UNL     1       3.860   3.525  19.644  0.00  0.00    +0.000 C 
ATOM     28  N   UNL     1       4.157   2.450  19.970  0.00  0.00    +0.000 NA
ENDBRANCH   5  27
TORSDOF 9
ENDMDL
MODEL 4
REMARK VINA RESULT:      -7.0      1.460      2.034
REMARK  Name = 
REMARK  10 active torsions:
REMARK  status: ('A' for Active; 'I' for Inactive)
REMARK    1  A    between atoms: C_1  and  O_2
REMARK    2  A    between atoms: O_2  and  C_3
REMARK    3  A    between atoms: C_3  and  C_4
REMARK    4  A    between atoms: C_4  and  O_5
REMARK    5  A    between atoms: O_5  and  C_6
REMARK    6  A    between atoms: C_11  and  C_12
REMARK    7  A    between atoms: N_14  and  C_15
REMARK    8  A    between atoms: C_18  and  C_19
REMARK    9  A    between atoms: C_19  and  O_21
REMARK   10  A    between atoms: C_25  and  C_26
REMARK                            x       y       z     vdW  Elec       q    Type
REMARK                         _______ _______ _______ _____ _____    ______ ____
ROOT
ATOM      1  C   UNL     1       2.207   6.380  19.859  0.00  0.00    +0.000 A 
ATOM      2  C   UNL     1       1.474   7.034  20.847  0.00  0.00    +0.000 A 
ATOM      3  N   UNL     1       1.309   8.370  20.520  0.00  0.00    +0.000 N 
ATOM      4  C   UNL     1       2.046   8.587  19.375  0.00  0.00    +0.000 A 
ATOM      5  C   UNL     1       2.589   7.393  18.941  0.00  0.00    +0.000 A 
ENDROOT
BRANCH   1  11
ATOM      6  C   UNL     1       3.591   4.236  19.640  0.00  0.00    +0.000 A 
ATOM      7  C   UNL     1       3.588   2.827  19.598  0.00  0.00    +0.000 A 
ATOM      8  C   UNL     1       2.412   2.090  19.726  0.00  0.00    +0.000 A 
ATOM      9  C   UNL     1       1.207   2.749  19.901  0.00  0.00    +0.000 A 
ATOM     10  C   UNL     1       1.186   4.141  19.949  0.00  0.00    +0.000 A 
ATOM     11  C   UNL     1       2.365   4.917  19.831  0.00  0.00    +0.000 A 
BRANCH   6  12
ATOM     12  O   UNL     1       4.756   4.967  19.517  0.00  0.00    +0.000 OA
BRANCH  12  13
ATOM     13  C   UNL     1       5.708   4.467  18.565  0.00  0.00    +0.000 C 
BRANCH  13  14
ATOM     14  C   UNL     1       7.005   5.271  18.554  0.00  0.00    +0.000 C 
BRANCH  14  16
ATOM     15  C   UNL     1       6.917   4.523  16.311  0.00  0.00    +0.000 C 
ATOM     16  O   UNL     1       7.757   4.871  17.401  0.00  0.00    +0.000 OA
ENDBRANCH  14  16
ENDBRANCH  13  14
ENDBRANCH  12  13
ENDBRANCH   6  12
ENDBRANCH   1  11
BRANCH   3  17
ATOM     17  C   UNL     1       0.490   9.332  21.197  0.00  0.00    +0.000 A 
ATOM     18  C   UNL     1       0.098   9.141  22.530  0.00  0.00    +0.000 A 
ATOM     19  C   UNL     1      -0.739  10.072  23.165  0.00  0.00    +0.000 A 
ATOM     20  C   UNL     1      -1.201  11.200  22.480  0.00  0.00    +0.000 A 
ATOM     21  C   UNL     1      -0.794  11.412  21.161  0.00  0.00    +0.000 A 
ATOM     22  C   UNL     1       0.040  10.482  20.525  0.00  0.00    +0.000 A 
BRANCH  20  23
ATOM     23  C   UNL     1      -2.072  12.157  23.212  0.00  0.00    +0.000 C 
ATOM     24  O   UNL     1      -3.197  11.869  23.584  0.00  0.00    +0.000 OA
BRANCH  23  25
ATOM     25  O   UNL     1      -1.530  13.379  23.395  0.00  0.00    +0.000 OA
ATOM     26  H   UNL     1      -0.956  13.477  24.175  0.00  0.00    +0.000 HD
ENDBRANCH  23  25
ENDBRANCH  20  23
ENDBRANCH   3  17
BRANCH   5  27
ATOM     27  C   UNL     1       3.331   7.287  17.726  0.00  0.00    +0.000 C 
ATOM     28  N   UNL     1       3.926   7.136  16.739  0.00  0.00    +0.000 NA
ENDBRANCH   5  27
TORSDOF 9
ENDMDL
MODEL 5
REMARK VINA RESULT:      -6.9      2.081      3.202
REMARK  Name = 
REMARK  10 active torsions:
REMARK  status: ('A' for Active; 'I' for Inactive)
REMARK    1  A    between atoms: C_1  and  O_2
REMARK    2  A    between atoms: O_2  and  C_3
REMARK    3  A    between atoms: C_3  and  C_4
REMARK    4  A    between atoms: C_4  and  O_5
REMARK    5  A    between atoms: O_5  and  C_6
REMARK    6  A    between atoms: C_11  and  C_12
REMARK    7  A    between atoms: N_14  and  C_15
REMARK    8  A    between atoms: C_18  and  C_19
REMARK    9  A    between atoms: C_19  and  O_21
REMARK   10  A    between atoms: C_25  and  C_26
REMARK                            x       y       z     vdW  Elec       q    Type
REMARK                         _______ _______ _______ _____ _____    ______ ____
ROOT
ATOM      1  C   UNL     1       4.005   5.131  17.577  0.00  0.00    +0.000 A 
ATOM      2  C   UNL     1       3.478   6.400  17.804  0.00  0.00    +0.000 A 
ATOM      3  N   UNL     1       2.631   6.380  18.900  0.00  0.00    +0.000 N 
ATOM      4  C   UNL     1       2.530   5.062  19.293  0.00  0.00    +0.000 A 
ATOM      5  C   UNL     1       3.367   4.283  18.518  0.00  0.00    +0.000 A 
ENDROOT
BRANCH   1  11
ATOM      6  C   UNL     1       6.470   5.045  16.885  0.00  0.00    +0.000 A 
ATOM      7  C   UNL     1       7.399   4.812  15.850  0.00  0.00    +0.000 A 
ATOM      8  C   UNL     1       6.995   4.448  14.567  0.00  0.00    +0.000 A 
ATOM      9  C   UNL     1       5.647   4.305  14.289  0.00  0.00    +0.000 A 
ATOM     10  C   UNL     1       4.710   4.525  15.296  0.00  0.00    +0.000 A 
ATOM     11  C   UNL     1       5.090   4.888  16.611  0.00  0.00    +0.000 A 
BRANCH   6  12
ATOM     12  O   UNL     1       6.870   5.402  18.157  0.00  0.00    +0.000 OA
BRANCH  12  13
ATOM     13  C   UNL     1       7.652   6.604  18.250  0.00  0.00    +0.000 C 
BRANCH  13  14
ATOM     14  C   UNL     1       7.006   7.781  17.526  0.00  0.00    +0.000 C 
BRANCH  14  16
ATOM     15  C   UNL     1       8.622   9.211  18.497  0.00  0.00    +0.000 C 
ATOM     16  O   UNL     1       8.025   8.761  17.289  0.00  0.00    +0.000 OA
ENDBRANCH  14  16
ENDBRANCH  13  14
ENDBRANCH  12  13
ENDBRANCH   6  12
ENDBRANCH   1  11
BRANCH   3  17
ATOM     17  C   UNL     1       2.019   7.506  19.543  0.00  0.00    +0.000 A 
ATOM     18  C   UNL     1       1.649   7.457  20.895  0.00  0.00    +0.000 A 
ATOM     19  C   UNL     1       1.013   8.552  21.498  0.00  0.00    +0.000 A 
ATOM     20  C   UNL     1       0.729   9.707  20.762  0.00  0.00    +0.000 A 
ATOM     21  C   UNL     1       1.118   9.775  19.423  0.00  0.00    +0.000 A 
ATOM     22  C   UNL     1       1.753   8.681  18.818  0.00  0.00    +0.000 A 
BRANCH  20  23
ATOM     23  C   UNL     1       0.068  10.840  21.461  0.00  0.00    +0.000 C 
ATOM     24  O   UNL     1       0.055  10.945  22.676  0.00  0.00    +0.000 OA
BRANCH  23  25
ATOM     25  O   UNL     1      -0.549  11.719  20.643  0.00  0.00    +0.000 OA
ATOM     26  H   UNL     1      -1.253  11.353  20.080  0.00  0.00    +0.000 HD
ENDBRANCH  23  25
ENDBRANCH  20  23
ENDBRANCH   3  17
BRANCH   5  27
ATOM     27  C   UNL     1       3.544   2.885  18.751  0.00  0.00    +0.000 C 
ATOM     28  N   UNL     1       3.753   1.757  18.936  0.00  0.00    +0.000 NA
ENDBRANCH   5  27
TORSDOF 9
ENDMDL
MODEL 6
REMARK VINA RESULT:      -6.9      1.934      2.919
REMARK  Name = 
REMARK  10 active torsions:
REMARK  status: ('A' for Active; 'I' for Inactive)
REMARK    1  A    between atoms: C_1  and  O_2
REMARK    2  A    between atoms: O_2  and  C_3
REMARK    3  A    between atoms: C_3  and  C_4
REMARK    4  A    between atoms: C_4  and  O_5
REMARK    5  A    between atoms: O_5  and  C_6
REMARK    6  A    between atoms: C_11  and  C_12
REMARK    7  A    between atoms: N_14  and  C_15
REMARK    8  A    between atoms: C_18  and  C_19
REMARK    9  A    between atoms: C_19  and  O_21
REMARK   10  A    between atoms: C_25  and  C_26
REMARK                            x       y       z     vdW  Elec       q    Type
REMARK                         _______ _______ _______ _____ _____    ______ ____
ROOT
ATOM      1  C   UNL     1       4.092   5.187  17.911  0.00  0.00    +0.000 A 
ATOM      2  C   UNL     1       3.435   6.415  17.934  0.00  0.00    +0.000 A 
ATOM      3  N   UNL     1       2.668   6.530  19.081  0.00  0.00    +0.000 N 
ATOM      4  C   UNL     1       2.748   5.315  19.729  0.00  0.00    +0.000 A 
ATOM      5  C   UNL     1       3.619   4.485  19.050  0.00  0.00    +0.000 A 
ENDROOT
BRANCH   1  11
ATOM      6  C   UNL     1       6.488   4.595  17.227  0.00  0.00    +0.000 A 
ATOM      7  C   UNL     1       7.387   4.339  16.171  0.00  0.00    +0.000 A 
ATOM      8  C   UNL     1       6.979   4.360  14.838  0.00  0.00    +0.000 A 
ATOM      9  C   UNL     1       5.658   4.637  14.530  0.00  0.00    +0.000 A 
ATOM     10  C   UNL     1       4.752   4.888  15.558  0.00  0.00    +0.000 A 
ATOM     11  C   UNL     1       5.134   4.866  16.921  0.00  0.00    +0.000 A 
BRANCH   6  12
ATOM     12  O   UNL     1       6.890   4.570  18.548  0.00  0.00    +0.000 OA
BRANCH  12  13
ATOM     13  C   UNL     1       6.998   5.851  19.190  0.00  0.00    +0.000 C 
BRANCH  13  14
ATOM     14  C   UNL     1       8.119   6.706  18.607  0.00  0.00    +0.000 C 
BRANCH  14  16
ATOM     15  C   UNL     1       8.058   8.960  17.889  0.00  0.00    +0.000 C 
ATOM     16  O   UNL     1       7.524   7.656  17.713  0.00  0.00    +0.000 OA
ENDBRANCH  14  16
ENDBRANCH  13  14
ENDBRANCH  12  13
ENDBRANCH   6  12
ENDBRANCH   1  11
BRANCH   3  17
ATOM     17  C   UNL     1       1.972   7.694  19.544  0.00  0.00    +0.000 A 
ATOM     18  C   UNL     1       1.726   8.780  18.691  0.00  0.00    +0.000 A 
ATOM     19  C   UNL     1       1.080   9.929  19.171  0.00  0.00    +0.000 A 
ATOM     20  C   UNL     1       0.678  10.017  20.507  0.00  0.00    +0.000 A 
ATOM     21  C   UNL     1       0.896   8.931  21.358  0.00  0.00    +0.000 A 
ATOM     22  C   UNL     1       1.542   7.782  20.880  0.00  0.00    +0.000 A 
BRANCH  20  23
ATOM     23  C   UNL     1      -0.015  11.255  20.952  0.00  0.00    +0.000 C 
ATOM     24  O   UNL     1       0.440  11.988  21.813  0.00  0.00    +0.000 OA
BRANCH  23  25
ATOM     25  O   UNL     1      -1.203  11.477  20.353  0.00  0.00    +0.000 OA
ATOM     26  H   UNL     1      -1.209  12.165  19.664  0.00  0.00    +0.000 HD
ENDBRANCH  23  25
ENDBRANCH  20  23
ENDBRANCH   3  17
BRANCH   5  27
ATOM     27  C   UNL     1       3.973   3.189  19.533  0.00  0.00    +0.000 C 
ATOM     28  N   UNL     1       4.212   2.139  19.969  0.00  0.00    +0.000 NA
ENDBRANCH   5  27
TORSDOF 9
ENDMDL
MODEL 7
REMARK VINA RESULT:      -6.9      2.817      8.843
REMARK  Name = 
REMARK  10 active torsions:
REMARK  status: ('A' for Active; 'I' for Inactive)
REMARK    1  A    between atoms: C_1  and  O_2
REMARK    2  A    between atoms: O_2  and  C_3
REMARK    3  A    between atoms: C_3  and  C_4
REMARK    4  A    between atoms: C_4  and  O_5
REMARK    5  A    between atoms: O_5  and  C_6
REMARK    6  A    between atoms: C_11  and  C_12
REMARK    7  A    between atoms: N_14  and  C_15
REMARK    8  A    between atoms: C_18  and  C_19
REMARK    9  A    between atoms: C_19  and  O_21
REMARK   10  A    between atoms: C_25  and  C_26
REMARK                            x       y       z     vdW  Elec       q    Type
REMARK                         _______ _______ _______ _____ _____    ______ ____
ROOT
ATOM      1  C   UNL     1       0.945   9.854  20.045  0.00  0.00    +0.000 A 
ATOM      2  C   UNL     1       1.541   8.836  19.304  0.00  0.00    +0.000 A 
ATOM      3  N   UNL     1       1.647   7.685  20.066  0.00  0.00    +0.000 N 
ATOM      4  C   UNL     1       1.222   8.015  21.336  0.00  0.00    +0.000 A 
ATOM      5  C   UNL     1       0.774   9.322  21.349  0.00  0.00    +0.000 A 
ENDROOT
BRANCH   1  11
ATOM      6  C   UNL     1      -0.712  11.332  18.767  0.00  0.00    +0.000 A 
ATOM      7  C   UNL     1      -0.973  12.597  18.200  0.00  0.00    +0.000 A 
ATOM      8  C   UNL     1      -0.051  13.639  18.271  0.00  0.00    +0.000 A 
ATOM      9  C   UNL     1       1.157  13.441  18.915  0.00  0.00    +0.000 A 
ATOM     10  C   UNL     1       1.437  12.202  19.486  0.00  0.00    +0.000 A 
ATOM     11  C   UNL     1       0.517  11.126  19.438  0.00  0.00    +0.000 A 
BRANCH   6  12
ATOM     12  O   UNL     1      -1.626  10.299  18.701  0.00  0.00    +0.000 OA
BRANCH  12  13
ATOM     13  C   UNL     1      -2.236  10.089  17.417  0.00  0.00    +0.000 C 
BRANCH  13  14
ATOM     14  C   UNL     1      -3.732  10.390  17.423  0.00  0.00    +0.000 C 
BRANCH  14  16
ATOM     15  C   UNL     1      -3.028  10.643  15.179  0.00  0.00    +0.000 C 
ATOM     16  O   UNL     1      -4.106  10.773  16.094  0.00  0.00    +0.000 OA
ENDBRANCH  14  16
ENDBRANCH  13  14
ENDBRANCH  12  13
ENDBRANCH   6  12
ENDBRANCH   1  11
BRANCH   3  17
ATOM     17  C   UNL     1       2.059   6.386  19.621  0.00  0.00    +0.000 A 
ATOM     18  C   UNL     1       2.498   6.176  18.305  0.00  0.00    +0.000 A 
ATOM     19  C   UNL     1       2.858   4.891  17.873  0.00  0.00    +0.000 A 
ATOM     20  C   UNL     1       2.778   3.797  18.740  0.00  0.00    +0.000 A 
ATOM     21  C   UNL     1       2.367   4.001  20.059  0.00  0.00    +0.000 A 
ATOM     22  C   UNL     1       2.006   5.285  20.492  0.00  0.00    +0.000 A 
BRANCH  20  23
ATOM     23  C   UNL     1       3.188   2.463  18.228  0.00  0.00    +0.000 C 
ATOM     24  O   UNL     1       4.112   2.315  17.447  0.00  0.00    +0.000 OA
BRANCH  23  25
ATOM     25  O   UNL     1       2.429   1.437  18.668  0.00  0.00    +0.000 OA
ATOM     26  H   UNL     1       1.491   1.641  18.827  0.00  0.00    +0.000 HD
ENDBRANCH  23  25
ENDBRANCH  20  23
ENDBRANCH   3  17
BRANCH   5  27
ATOM     27  C   UNL     1       0.189   9.919  22.507  0.00  0.00    +0.000 C 
ATOM     28  N   UNL     1      -0.343  10.376  23.433  0.00  0.00    +0.000 NA
ENDBRANCH   5  27
TORSDOF 9
ENDMDL
MODEL 8
REMARK VINA RESULT:      -6.9      2.766      8.966
REMARK  Name = 
REMARK  10 active torsions:
REMARK  status: ('A' for Active; 'I' for Inactive)
REMARK    1  A    between atoms: C_1  and  O_2
REMARK    2  A    between atoms: O_2  and  C_3
REMARK    3  A    between atoms: C_3  and  C_4
REMARK    4  A    between atoms: C_4  and  O_5
REMARK    5  A    between atoms: O_5  and  C_6
REMARK    6  A    between atoms: C_11  and  C_12
REMARK    7  A    between atoms: N_14  and  C_15
REMARK    8  A    between atoms: C_18  and  C_19
REMARK    9  A    between atoms: C_19  and  O_21
REMARK   10  A    between atoms: C_25  and  C_26
REMARK                            x       y       z     vdW  Elec       q    Type
REMARK                         _______ _______ _______ _____ _____    ______ ____
ROOT
ATOM      1  C   UNL     1       0.961   9.811  20.018  0.00  0.00    +0.000 A 
ATOM      2  C   UNL     1       1.605   8.879  19.208  0.00  0.00    +0.000 A 
ATOM      3  N   UNL     1       1.823   7.702  19.905  0.00  0.00    +0.000 N 
ATOM      4  C   UNL     1       1.420   7.936  21.203  0.00  0.00    +0.000 A 
ATOM      5  C   UNL     1       0.877   9.203  21.297  0.00  0.00    +0.000 A 
ENDROOT
BRANCH   1  11
ATOM      6  C   UNL     1      -0.721  11.184  18.659  0.00  0.00    +0.000 A 
ATOM      7  C   UNL     1      -1.105  12.459  18.197  0.00  0.00    +0.000 A 
ATOM      8  C   UNL     1      -0.388  13.608  18.527  0.00  0.00    +0.000 A 
ATOM      9  C   UNL     1       0.734  13.507  19.331  0.00  0.00    +0.000 A 
ATOM     10  C   UNL     1       1.131  12.258  19.803  0.00  0.00    +0.000 A 
ATOM     11  C   UNL     1       0.419  11.074  19.492  0.00  0.00    +0.000 A 
BRANCH   6  12
ATOM     12  O   UNL     1      -1.432  10.046  18.336  0.00  0.00    +0.000 OA
BRANCH  12  13
ATOM     13  C   UNL     1      -2.757  10.263  17.825  0.00  0.00    +0.000 C 
BRANCH  13  14
ATOM     14  C   UNL     1      -2.874   9.936  16.339  0.00  0.00    +0.000 C 
BRANCH  14  16
ATOM     15  C   UNL     1      -4.569  11.554  16.668  0.00  0.00    +0.000 C 
ATOM     16  O   UNL     1      -3.690  10.946  15.732  0.00  0.00    +0.000 OA
ENDBRANCH  14  16
ENDBRANCH  13  14
ENDBRANCH  12  13
ENDBRANCH   6  12
ENDBRANCH   1  11
BRANCH   3  17
ATOM     17  C   UNL     1       2.315   6.462  19.381  0.00  0.00    +0.000 A 
ATOM     18  C   UNL     1       2.163   5.262  20.091  0.00  0.00    +0.000 A 
ATOM     19  C   UNL     1       2.687   4.064  19.584  0.00  0.00    +0.000 A 
ATOM     20  C   UNL     1       3.377   4.045  18.368  0.00  0.00    +0.000 A 
ATOM     21  C   UNL     1       3.511   5.230  17.641  0.00  0.00    +0.000 A 
ATOM     22  C   UNL     1       2.988   6.428  18.147  0.00  0.00    +0.000 A 
BRANCH  20  23
ATOM     23  C   UNL     1       3.896   2.742  17.875  0.00  0.00    +0.000 C 
ATOM     24  O   UNL     1       3.432   1.673  18.233  0.00  0.00    +0.000 OA
BRANCH  23  25
ATOM     25  O   UNL     1       4.945   2.840  17.031  0.00  0.00    +0.000 OA
ATOM     26  H   UNL     1       5.796   3.080  17.438  0.00  0.00    +0.000 HD
ENDBRANCH  23  25
ENDBRANCH  20  23
ENDBRANCH   3  17
BRANCH   5  27
ATOM     27  C   UNL     1       0.291   9.696  22.503  0.00  0.00    +0.000 C 
ATOM     28  N   UNL     1      -0.173  10.040  23.511  0.00  0.00    +0.000 NA
ENDBRANCH   5  27
TORSDOF 9
ENDMDL
MODEL 9
REMARK VINA RESULT:      -6.7      1.618      2.053
REMARK  Name = 
REMARK  10 active torsions:
REMARK  status: ('A' for Active; 'I' for Inactive)
REMARK    1  A    between atoms: C_1  and  O_2
REMARK    2  A    between atoms: O_2  and  C_3
REMARK    3  A    between atoms: C_3  and  C_4
REMARK    4  A    between atoms: C_4  and  O_5
REMARK    5  A    between atoms: O_5  and  C_6
REMARK    6  A    between atoms: C_11  and  C_12
REMARK    7  A    between atoms: N_14  and  C_15
REMARK    8  A    between atoms: C_18  and  C_19
REMARK    9  A    between atoms: C_19  and  O_21
REMARK   10  A    between atoms: C_25  and  C_26
REMARK                            x       y       z     vdW  Elec       q    Type
REMARK                         _______ _______ _______ _____ _____    ______ ____
ROOT
ATOM      1  C   UNL     1       1.970   6.639  20.015  0.00  0.00    +0.000 A 
ATOM      2  C   UNL     1       1.200   7.288  20.977  0.00  0.00    +0.000 A 
ATOM      3  N   UNL     1       0.980   8.605  20.609  0.00  0.00    +0.000 N 
ATOM      4  C   UNL     1       1.717   8.821  19.464  0.00  0.00    +0.000 A 
ATOM      5  C   UNL     1       2.316   7.640  19.071  0.00  0.00    +0.000 A 
ENDROOT
BRANCH   1  11
ATOM      6  C   UNL     1       3.457   4.555  19.928  0.00  0.00    +0.000 A 
ATOM      7  C   UNL     1       3.517   3.146  19.921  0.00  0.00    +0.000 A 
ATOM      8  C   UNL     1       2.369   2.360  20.000  0.00  0.00    +0.000 A 
ATOM      9  C   UNL     1       1.129   2.968  20.090  0.00  0.00    +0.000 A 
ATOM     10  C   UNL     1       1.044   4.359  20.102  0.00  0.00    +0.000 A 
ATOM     11  C   UNL     1       2.193   5.183  20.032  0.00  0.00    +0.000 A 
BRANCH   6  12
ATOM     12  O   UNL     1       4.594   5.334  19.854  0.00  0.00    +0.000 OA
BRANCH  12  13
ATOM     13  C   UNL     1       5.598   4.885  18.929  0.00  0.00    +0.000 C 
BRANCH  13  14
ATOM     14  C   UNL     1       6.981   5.446  19.248  0.00  0.00    +0.000 C 
BRANCH  14  16
ATOM     15  C   UNL     1       7.357   4.521  17.102  0.00  0.00    +0.000 C 
ATOM     16  O   UNL     1       7.703   5.554  18.014  0.00  0.00    +0.000 OA
ENDBRANCH  14  16
ENDBRANCH  13  14
ENDBRANCH  12  13
ENDBRANCH   6  12
ENDBRANCH   1  11
BRANCH   3  17
ATOM     17  C   UNL     1       0.113   9.550  21.250  0.00  0.00    +0.000 A 
ATOM     18  C   UNL     1      -0.379  10.668  20.560  0.00  0.00    +0.000 A 
ATOM     19  C   UNL     1      -1.192  11.606  21.214  0.00  0.00    +0.000 A 
ATOM     20  C   UNL     1      -1.519  11.449  22.564  0.00  0.00    +0.000 A 
ATOM     21  C   UNL     1      -1.056  10.326  23.252  0.00  0.00    +0.000 A 
ATOM     22  C   UNL     1      -0.242   9.388  22.600  0.00  0.00    +0.000 A 
BRANCH  20  23
ATOM     23  C   UNL     1      -2.397  12.469  23.197  0.00  0.00    +0.000 C 
ATOM     24  O   UNL     1      -3.535  12.223  23.556  0.00  0.00    +0.000 OA
BRANCH  23  25
ATOM     25  O   UNL     1      -1.843  13.694  23.305  0.00  0.00    +0.000 OA
ATOM     26  H   UNL     1      -2.259  14.396  22.775  0.00  0.00    +0.000 HD
ENDBRANCH  23  25
ENDBRANCH  20  23
ENDBRANCH   3  17
BRANCH   5  27
ATOM     27  C   UNL     1       3.074   7.531  17.865  0.00  0.00    +0.000 C 
ATOM     28  N   UNL     1       3.665   7.383  16.876  0.00  0.00    +0.000 NA
ENDBRANCH   5  27
TORSDOF 9
ENDMDL
