MODEL 1
REMARK VINA RESULT:      -7.3      0.000      0.000
REMARK  Name = 
REMARK  4 active torsions:
REMARK  status: ('A' for Active; 'I' for Inactive)
REMARK    1  A    between atoms: C_1  and  N_2
REMARK    2  A    between atoms: N_2  and  C_3
REMARK    3  A    between atoms: C_5  and  C_6
REMARK    4  A    between atoms: C_17  and  C_18
REMARK                            x       y       z     vdW  Elec       q    Type
REMARK                         _______ _______ _______ _____ _____    ______ ____
ROOT
ATOM      1  C   UNL     1       4.775   4.009  18.740  0.00  0.00    +0.000 A 
ATOM      2  O   UNL     1       3.674   4.736  19.132  0.00  0.00    +0.000 OA
ATOM      3  C   UNL     1       3.870   5.977  18.577  0.00  0.00    +0.000 A 
ATOM      4  N   UNL     1       4.982   6.088  17.875  0.00  0.00    +0.000 NA
ATOM      5  C   UNL     1       5.559   4.853  17.984  0.00  0.00    +0.000 A 
ENDROOT
BRANCH   3   6
ATOM      6  C   UNL     1       2.896   7.037  18.838  0.00  0.00    +0.000 A 
ATOM      7  C   UNL     1       2.681   7.979  17.818  0.00  0.00    +0.000 A 
ATOM      8  C   UNL     1       1.833   9.069  18.002  0.00  0.00    +0.000 A 
ATOM      9  C   UNL     1       1.177   9.245  19.224  0.00  0.00    +0.000 A 
ATOM     10  C   UNL     1       0.349  10.343  19.466  0.00  0.00    +0.000 A 
ATOM     11  N   UNL     1      -0.297  10.569  20.631  0.00  0.00    +0.000 NA
ATOM     12  C   UNL     1      -0.118   9.652  21.603  0.00  0.00    +0.000 A 
ATOM     13  C   UNL     1       0.678   8.521  21.469  0.00  0.00    +0.000 A 
ATOM     14  C   UNL     1       1.353   8.303  20.259  0.00  0.00    +0.000 A 
ATOM     15  C   UNL     1       2.209   7.195  20.051  0.00  0.00    +0.000 A 
ENDBRANCH   3   6
BRANCH   1  17
ATOM     16  C   UNL     1       3.731   1.801  18.959  0.00  0.00    +0.000 C 
ATOM     17  N   UNL     1       4.828   2.726  19.149  0.00  0.00    +0.000 N 
ATOM     18  H   UNL     1       5.702   2.339  19.497  0.00  0.00    +0.000 HD
ENDBRANCH   1  17
BRANCH   5  19
ATOM     19  C   UNL     1       6.809   4.578  17.366  0.00  0.00    +0.000 C 
ATOM     20  N   UNL     1       7.834   4.382  16.850  0.00  0.00    +0.000 NA
ENDBRANCH   5  19
TORSDOF 3
ENDMDL
MODEL 2
REMARK VINA RESULT:      -7.1      3.779      5.078
REMARK  Name = 
REMARK  4 active torsions:
REMARK  status: ('A' for Active; 'I' for Inactive)
REMARK    1  A    between atoms: C_1  and  N_2
REMARK    2  A    between atoms: N_2  and  C_3
REMARK    3  A    between atoms: C_5  and  C_6
REMARK    4  A    between atoms: C_17  and  C_18
REMARK                            x       y       z     vdW  Elec       q    Type
REMARK                         _______ _______ _______ _____ _____    ______ ____
ROOT
ATOM      1  C   UNL     1       6.086   3.931  13.775  0.00  0.00    +0.000 A 
ATOM      2  O   UNL     1       5.108   3.739  14.724  0.00  0.00    +0.000 OA
ATOM      3  C   UNL     1       5.365   4.694  15.676  0.00  0.00    +0.000 A 
ATOM      4  N   UNL     1       6.403   5.464  15.407  0.00  0.00    +0.000 NA
ATOM      5  C   UNL     1       6.865   4.978  14.215  0.00  0.00    +0.000 A 
ENDROOT
BRANCH   3   6
ATOM      6  C   UNL     1       4.531   4.748  16.876  0.00  0.00    +0.000 A 
ATOM      7  C   UNL     1       4.953   5.591  17.918  0.00  0.00    +0.000 A 
ATOM      8  C   UNL     1       4.269   5.649  19.130  0.00  0.00    +0.000 A 
ATOM      9  C   UNL     1       3.137   4.853  19.331  0.00  0.00    +0.000 A 
ATOM     10  C   UNL     1       2.444   4.849  20.543  0.00  0.00    +0.000 A 
ATOM     11  N   UNL     1       1.354   4.091  20.797  0.00  0.00    +0.000 NA
ATOM     12  C   UNL     1       0.927   3.302  19.790  0.00  0.00    +0.000 A 
ATOM     13  C   UNL     1       1.536   3.232  18.544  0.00  0.00    +0.000 A 
ATOM     14  C   UNL     1       2.673   4.014  18.296  0.00  0.00    +0.000 A 
ATOM     15  C   UNL     1       3.374   3.977  17.067  0.00  0.00    +0.000 A 
ENDBRANCH   3   6
BRANCH   1  17
ATOM     16  C   UNL     1       4.956   3.098  11.764  0.00  0.00    +0.000 C 
ATOM     17  N   UNL     1       6.057   3.113  12.704  0.00  0.00    +0.000 N 
ATOM     18  H   UNL     1       6.878   2.565  12.459  0.00  0.00    +0.000 HD
ENDBRANCH   1  17
BRANCH   5  19
ATOM     19  C   UNL     1       8.012   5.546  13.595  0.00  0.00    +0.000 C 
ATOM     20  N   UNL     1       8.966   6.007  13.113  0.00  0.00    +0.000 NA
ENDBRANCH   5  19
TORSDOF 3
ENDMDL
MODEL 3
REMARK VINA RESULT:      -7.1      1.072      1.078
REMARK  Name = 
REMARK  4 active torsions:
REMARK  status: ('A' for Active; 'I' for Inactive)
REMARK    1  A    between atoms: C_1  and  N_2
REMARK    2  A    between atoms: N_2  and  C_3
REMARK    3  A    between atoms: C_5  and  C_6
REMARK    4  A    between atoms: C_17  and  C_18
REMARK                            x       y       z     vdW  Elec       q    Type
REMARK                         _______ _______ _______ _____ _____    ______ ____
ROOT
ATOM      1  C   UNL     1       4.425   4.503  17.338  0.00  0.00    +0.000 A 
ATOM      2  O   UNL     1       3.382   5.100  18.008  0.00  0.00    +0.000 OA
ATOM      3  C   UNL     1       3.568   6.444  17.799  0.00  0.00    +0.000 A 
ATOM      4  N   UNL     1       4.620   6.738  17.058  0.00  0.00    +0.000 NA
ATOM      5  C   UNL     1       5.168   5.518  16.775  0.00  0.00    +0.000 A 
ENDROOT
BRANCH   3   6
ATOM      6  C   UNL     1       2.649   7.397  18.423  0.00  0.00    +0.000 A 
ATOM      7  C   UNL     1       2.176   8.453  17.625  0.00  0.00    +0.000 A 
ATOM      8  C   UNL     1       1.362   9.453  18.151  0.00  0.00    +0.000 A 
ATOM      9  C   UNL     1       1.002   9.422  19.503  0.00  0.00    +0.000 A 
ATOM     10  C   UNL     1       0.221  10.424  20.082  0.00  0.00    +0.000 A 
ATOM     11  N   UNL     1      -0.144  10.452  21.382  0.00  0.00    +0.000 NA
ATOM     12  C   UNL     1       0.283   9.425  22.145  0.00  0.00    +0.000 A 
ATOM     13  C   UNL     1       1.058   8.373  21.672  0.00  0.00    +0.000 A 
ATOM     14  C   UNL     1       1.441   8.362  20.323  0.00  0.00    +0.000 A 
ATOM     15  C   UNL     1       2.257   7.347  19.769  0.00  0.00    +0.000 A 
ENDBRANCH   3   6
BRANCH   1  17
ATOM     16  C   UNL     1       3.445   2.355  18.003  0.00  0.00    +0.000 C 
ATOM     17  N   UNL     1       4.475   3.156  17.375  0.00  0.00    +0.000 N 
ATOM     18  H   UNL     1       5.187   2.658  16.848  0.00  0.00    +0.000 HD
ENDBRANCH   1  17
BRANCH   5  19
ATOM     19  C   UNL     1       6.354   5.416  15.999  0.00  0.00    +0.000 C 
ATOM     20  N   UNL     1       7.330   5.306  15.374  0.00  0.00    +0.000 NA
ENDBRANCH   5  19
TORSDOF 3
ENDMDL
MODEL 4
REMARK VINA RESULT:      -7.0      1.129      2.238
REMARK  Name = 
REMARK  4 active torsions:
REMARK  status: ('A' for Active; 'I' for Inactive)
REMARK    1  A    between atoms: C_1  and  N_2
REMARK    2  A    between atoms: N_2  and  C_3
REMARK    3  A    between atoms: C_5  and  C_6
REMARK    4  A    between atoms: C_17  and  C_18
REMARK                            x       y       z     vdW  Elec       q    Type
REMARK                         _______ _______ _______ _____ _____    ______ ____
ROOT
ATOM      1  C   UNL     1       5.063   4.431  18.681  0.00  0.00    +0.000 A 
ATOM      2  O   UNL     1       4.690   5.749  18.809  0.00  0.00    +0.000 OA
ATOM      3  C   UNL     1       3.322   5.706  18.922  0.00  0.00    +0.000 A 
ATOM      4  N   UNL     1       2.812   4.489  18.882  0.00  0.00    +0.000 NA
ATOM      5  C   UNL     1       3.906   3.685  18.720  0.00  0.00    +0.000 A 
ENDROOT
BRANCH   3   6
ATOM      6  C   UNL     1       2.575   6.959  19.027  0.00  0.00    +0.000 A 
ATOM      7  C   UNL     1       2.554   7.794  17.896  0.00  0.00    +0.000 A 
ATOM      8  C   UNL     1       1.937   9.042  17.925  0.00  0.00    +0.000 A 
ATOM      9  C   UNL     1       1.325   9.492  19.099  0.00  0.00    +0.000 A 
ATOM     10  C   UNL     1       0.730  10.751  19.186  0.00  0.00    +0.000 A 
ATOM     11  N   UNL     1       0.137  11.241  20.297  0.00  0.00    +0.000 NA
ATOM     12  C   UNL     1       0.128  10.432  21.376  0.00  0.00    +0.000 A 
ATOM     13  C   UNL     1       0.685   9.159  21.400  0.00  0.00    +0.000 A 
ATOM     14  C   UNL     1       1.308   8.667  20.243  0.00  0.00    +0.000 A 
ATOM     15  C   UNL     1       1.929   7.396  20.193  0.00  0.00    +0.000 A 
ENDBRANCH   3   6
BRANCH   1  17
ATOM     16  C   UNL     1       7.277   5.064  17.837  0.00  0.00    +0.000 C 
ATOM     17  N   UNL     1       6.384   4.185  18.562  0.00  0.00    +0.000 N 
ATOM     18  H   UNL     1       6.811   3.430  19.091  0.00  0.00    +0.000 HD
ENDBRANCH   1  17
BRANCH   5  19
ATOM     19  C   UNL     1       3.760   2.275  18.610  0.00  0.00    +0.000 C 
ATOM     20  N   UNL     1       3.637   1.123  18.490  0.00  0.00    +0.000 NA
ENDBRANCH   5  19
TORSDOF 3
ENDMDL
MODEL 5
REMARK VINA RESULT:      -6.9      2.128      7.156
REMARK  Name = 
REMARK  4 active torsions:
REMARK  status: ('A' for Active; 'I' for Inactive)
REMARK    1  A    between atoms: C_1  and  N_2
REMARK    2  A    between atoms: N_2  and  C_3
REMARK    3  A    between atoms: C_5  and  C_6
REMARK    4  A    between atoms: C_17  and  C_18
REMARK                            x       y       z     vdW  Elec       q    Type
REMARK                         _______ _______ _______ _____ _____    ______ ____
ROOT
ATOM      1  C   UNL     1       0.849   9.802  19.894  0.00  0.00    +0.000 A 
ATOM      2  O   UNL     1       1.399   9.063  18.872  0.00  0.00    +0.000 OA
ATOM      3  C   UNL     1       1.876   7.933  19.489  0.00  0.00    +0.000 A 
ATOM      4  N   UNL     1       1.670   7.897  20.792  0.00  0.00    +0.000 NA
ATOM      5  C   UNL     1       1.033   9.078  21.052  0.00  0.00    +0.000 A 
ENDROOT
BRANCH   3   6
ATOM      6  C   UNL     1       2.581   6.929  18.692  0.00  0.00    +0.000 A 
ATOM      7  C   UNL     1       2.292   5.579  18.953  0.00  0.00    +0.000 A 
ATOM      8  C   UNL     1       2.970   4.551  18.302  0.00  0.00    +0.000 A 
ATOM      9  C   UNL     1       3.965   4.853  17.367  0.00  0.00    +0.000 A 
ATOM     10  C   UNL     1       4.697   3.855  16.720  0.00  0.00    +0.000 A 
ATOM     11  N   UNL     1       5.677   4.090  15.820  0.00  0.00    +0.000 NA
ATOM     12  C   UNL     1       5.938   5.383  15.543  0.00  0.00    +0.000 A 
ATOM     13  C   UNL     1       5.268   6.454  16.123  0.00  0.00    +0.000 A 
ATOM     14  C   UNL     1       4.261   6.198  17.065  0.00  0.00    +0.000 A 
ATOM     15  C   UNL     1       3.554   7.230  17.727  0.00  0.00    +0.000 A 
ENDBRANCH   3   6
BRANCH   1  17
ATOM     16  C   UNL     1      -1.140  11.146  19.390  0.00  0.00    +0.000 C 
ATOM     17  N   UNL     1       0.289  10.981  19.554  0.00  0.00    +0.000 N 
ATOM     18  H   UNL     1       0.855  11.824  19.524  0.00  0.00    +0.000 HD
ENDBRANCH   1  17
BRANCH   5  19
ATOM     19  C   UNL     1       0.655   9.424  22.378  0.00  0.00    +0.000 C 
ATOM     20  N   UNL     1       0.343   9.677  23.471  0.00  0.00    +0.000 NA
ENDBRANCH   5  19
TORSDOF 3
ENDMDL
MODEL 6
REMARK VINA RESULT:      -6.7      0.902      1.771
REMARK  Name = 
REMARK  4 active torsions:
REMARK  status: ('A' for Active; 'I' for Inactive)
REMARK    1  A    between atoms: C_1  and  N_2
REMARK    2  A    between atoms: N_2  and  C_3
REMARK    3  A    between atoms: C_5  and  C_6
REMARK    4  A    between atoms: C_17  and  C_18
REMARK                            x       y       z     vdW  Elec       q    Type
REMARK                         _______ _______ _______ _____ _____    ______ ____
ROOT
ATOM      1  C   UNL     1       4.447   4.040  17.602  0.00  0.00    +0.000 A 
ATOM      2  O   UNL     1       3.424   4.672  18.272  0.00  0.00    +0.000 OA
ATOM      3  C   UNL     1       3.703   6.009  18.135  0.00  0.00    +0.000 A 
ATOM      4  N   UNL     1       4.794   6.268  17.440  0.00  0.00    +0.000 NA
ATOM      5  C   UNL     1       5.271   5.029  17.112  0.00  0.00    +0.000 A 
ENDROOT
BRANCH   3   6
ATOM      6  C   UNL     1       2.829   6.989  18.780  0.00  0.00    +0.000 A 
ATOM      7  C   UNL     1       2.365   6.688  20.072  0.00  0.00    +0.000 A 
ATOM      8  C   UNL     1       1.466   7.521  20.734  0.00  0.00    +0.000 A 
ATOM      9  C   UNL     1       1.002   8.684  20.111  0.00  0.00    +0.000 A 
ATOM     10  C   UNL     1       0.071   9.527  20.721  0.00  0.00    +0.000 A 
ATOM     11  N   UNL     1      -0.421  10.653  20.160  0.00  0.00    +0.000 NA
ATOM     12  C   UNL     1       0.043  10.963  18.933  0.00  0.00    +0.000 A 
ATOM     13  C   UNL     1       0.973  10.200  18.237  0.00  0.00    +0.000 A 
ATOM     14  C   UNL     1       1.468   9.026  18.824  0.00  0.00    +0.000 A 
ATOM     15  C   UNL     1       2.390   8.175  18.171  0.00  0.00    +0.000 A 
ENDBRANCH   3   6
BRANCH   1  17
ATOM     16  C   UNL     1       3.345   1.929  18.192  0.00  0.00    +0.000 C 
ATOM     17  N   UNL     1       4.409   2.692  17.574  0.00  0.00    +0.000 N 
ATOM     18  H   UNL     1       5.073   2.176  17.003  0.00  0.00    +0.000 HD
ENDBRANCH   1  17
BRANCH   5  19
ATOM     19  C   UNL     1       6.472   4.887  16.365  0.00  0.00    +0.000 C 
ATOM     20  N   UNL     1       7.442   4.751  15.735  0.00  0.00    +0.000 NA
ENDBRANCH   5  19
TORSDOF 3
ENDMDL
MODEL 7
REMARK VINA RESULT:      -6.7      2.692      7.004
REMARK  Name = 
REMARK  4 active torsions:
REMARK  status: ('A' for Active; 'I' for Inactive)
REMARK    1  A    between atoms: C_1  and  N_2
REMARK    2  A    between atoms: N_2  and  C_3
REMARK    3  A    between atoms: C_5  and  C_6
REMARK    4  A    between atoms: C_17  and  C_18
REMARK                            x       y       z     vdW  Elec       q    Type
REMARK                         _______ _______ _______ _____ _____    ______ ____
ROOT
ATOM      1  C   UNL     1       2.547   5.429  20.200  0.00  0.00    +0.000 A 
ATOM      2  O   UNL     1       3.315   5.813  19.125  0.00  0.00    +0.000 OA
ATOM      3  C   UNL     1       3.906   4.650  18.696  0.00  0.00    +0.000 A 
ATOM      4  N   UNL     1       3.574   3.582  19.396  0.00  0.00    +0.000 NA
ATOM      5  C   UNL     1       2.726   4.071  20.351  0.00  0.00    +0.000 A 
ENDROOT
BRANCH   3   6
ATOM      6  C   UNL     1       4.846   4.699  17.576  0.00  0.00    +0.000 A 
ATOM      7  C   UNL     1       6.011   5.467  17.745  0.00  0.00    +0.000 A 
ATOM      8  C   UNL     1       6.925   5.638  16.709  0.00  0.00    +0.000 A 
ATOM      9  C   UNL     1       6.692   5.042  15.465  0.00  0.00    +0.000 A 
ATOM     10  C   UNL     1       7.561   5.220  14.387  0.00  0.00    +0.000 A 
ATOM     11  N   UNL     1       7.378   4.680  13.162  0.00  0.00    +0.000 NA
ATOM     12  C   UNL     1       6.277   3.917  13.003  0.00  0.00    +0.000 A 
ATOM     13  C   UNL     1       5.350   3.670  14.008  0.00  0.00    +0.000 A 
ATOM     14  C   UNL     1       5.545   4.245  15.272  0.00  0.00    +0.000 A 
ATOM     15  C   UNL     1       4.632   4.072  16.339  0.00  0.00    +0.000 A 
ENDBRANCH   3   6
BRANCH   1  17
ATOM     16  C   UNL     1       1.778   7.755  20.312  0.00  0.00    +0.000 C 
ATOM     17  N   UNL     1       1.839   6.398  20.814  0.00  0.00    +0.000 N 
ATOM     18  H   UNL     1       1.222   6.166  21.588  0.00  0.00    +0.000 HD
ENDBRANCH   1  17
BRANCH   5  19
ATOM     19  C   UNL     1       2.160   3.210  21.330  0.00  0.00    +0.000 C 
ATOM     20  N   UNL     1       1.676   2.526  22.139  0.00  0.00    +0.000 NA
ENDBRANCH   5  19
TORSDOF 3
ENDMDL
MODEL 8
REMARK VINA RESULT:      -6.7      4.256      5.126
REMARK  Name = 
REMARK  4 active torsions:
REMARK  status: ('A' for Active; 'I' for Inactive)
REMARK    1  A    between atoms: C_1  and  N_2
REMARK    2  A    between atoms: N_2  and  C_3
REMARK    3  A    between atoms: C_5  and  C_6
REMARK    4  A    between atoms: C_17  and  C_18
REMARK                            x       y       z     vdW  Elec       q    Type
REMARK                         _______ _______ _______ _____ _____    ______ ____
ROOT
ATOM      1  C   UNL     1       6.851   6.011  16.394  0.00  0.00    +0.000 A 
ATOM      2  O   UNL     1       5.984   5.744  17.428  0.00  0.00    +0.000 OA
ATOM      3  C   UNL     1       5.161   4.761  16.938  0.00  0.00    +0.000 A 
ATOM      4  N   UNL     1       5.438   4.387  15.703  0.00  0.00    +0.000 NA
ATOM      5  C   UNL     1       6.495   5.180  15.354  0.00  0.00    +0.000 A 
ENDROOT
BRANCH   3   6
ATOM      6  C   UNL     1       4.067   4.264  17.773  0.00  0.00    +0.000 A 
ATOM      7  C   UNL     1       2.759   4.430  17.288  0.00  0.00    +0.000 A 
ATOM      8  C   UNL     1       1.650   4.061  18.046  0.00  0.00    +0.000 A 
ATOM      9  C   UNL     1       1.826   3.515  19.322  0.00  0.00    +0.000 A 
ATOM     10  C   UNL     1       0.744   3.169  20.132  0.00  0.00    +0.000 A 
ATOM     11  N   UNL     1       0.856   2.651  21.375  0.00  0.00    +0.000 NA
ATOM     12  C   UNL     1       2.110   2.462  21.834  0.00  0.00    +0.000 A 
ATOM     13  C   UNL     1       3.257   2.766  21.111  0.00  0.00    +0.000 A 
ATOM     14  C   UNL     1       3.128   3.313  19.826  0.00  0.00    +0.000 A 
ATOM     15  C   UNL     1       4.244   3.682  19.038  0.00  0.00    +0.000 A 
ENDBRANCH   3   6
BRANCH   1  17
ATOM     16  C   UNL     1       7.691   7.907  17.704  0.00  0.00    +0.000 C 
ATOM     17  N   UNL     1       7.790   6.952  16.619  0.00  0.00    +0.000 N 
ATOM     18  H   UNL     1       8.663   6.935  16.100  0.00  0.00    +0.000 HD
ENDBRANCH   1  17
BRANCH   5  19
ATOM     19  C   UNL     1       7.077   5.087  14.060  0.00  0.00    +0.000 C 
ATOM     20  N   UNL     1       7.527   5.003  12.989  0.00  0.00    +0.000 NA
ENDBRANCH   5  19
TORSDOF 3
ENDMDL
MODEL 9
REMARK VINA RESULT:      -6.7      3.210      4.790
REMARK  Name = 
REMARK  4 active torsions:
REMARK  status: ('A' for Active; 'I' for Inactive)
REMARK    1  A    between atoms: C_1  and  N_2
REMARK    2  A    between atoms: N_2  and  C_3
REMARK    3  A    between atoms: C_5  and  C_6
REMARK    4  A    between atoms: C_17  and  C_18
REMARK                            x       y       z     vdW  Elec       q    Type
REMARK                         _______ _______ _______ _____ _____    ______ ____
ROOT
ATOM      1  C   UNL     1       6.180   3.890  13.671  0.00  0.00    +0.000 A 
ATOM      2  O   UNL     1       5.220   3.698  14.638  0.00  0.00    +0.000 OA
ATOM      3  C   UNL     1       5.468   4.680  15.564  0.00  0.00    +0.000 A 
ATOM      4  N   UNL     1       6.484   5.467  15.262  0.00  0.00    +0.000 NA
ATOM      5  C   UNL     1       6.941   4.965  14.075  0.00  0.00    +0.000 A 
ENDROOT
BRANCH   3   6
ATOM      6  C   UNL     1       4.650   4.742  16.775  0.00  0.00    +0.000 A 
ATOM      7  C   UNL     1       4.259   3.522  17.352  0.00  0.00    +0.000 A 
ATOM      8  C   UNL     1       3.414   3.479  18.459  0.00  0.00    +0.000 A 
ATOM      9  C   UNL     1       2.933   4.668  19.018  0.00  0.00    +0.000 A 
ATOM     10  C   UNL     1       2.053   4.671  20.102  0.00  0.00    +0.000 A 
ATOM     11  N   UNL     1       1.548   5.786  20.671  0.00  0.00    +0.000 NA
ATOM     12  C   UNL     1       1.943   6.961  20.140  0.00  0.00    +0.000 A 
ATOM     13  C   UNL     1       2.818   7.075  19.066  0.00  0.00    +0.000 A 
ATOM     14  C   UNL     1       3.327   5.909  18.476  0.00  0.00    +0.000 A 
ATOM     15  C   UNL     1       4.196   5.935  17.359  0.00  0.00    +0.000 A 
ENDBRANCH   3   6
BRANCH   1  17
ATOM     16  C   UNL     1       5.030   2.967  11.710  0.00  0.00    +0.000 C 
ATOM     17  N   UNL     1       6.155   3.047  12.619  0.00  0.00    +0.000 N 
ATOM     18  H   UNL     1       6.990   2.527  12.364  0.00  0.00    +0.000 HD
ENDBRANCH   1  17
BRANCH   5  19
ATOM     19  C   UNL     1       8.065   5.544  13.426  0.00  0.00    +0.000 C 
ATOM     20  N   UNL     1       8.967   6.034  12.876  0.00  0.00    +0.000 NA
ENDBRANCH   5  19
TORSDOF 3
ENDMDL
