MODEL 1
REMARK VINA RESULT:      -7.7      0.000      0.000
REMARK  Name = 
REMARK  6 active torsions:
REMARK  status: ('A' for Active; 'I' for Inactive)
REMARK    1  A    between atoms: C_1  and  C_2
REMARK    2  A    between atoms: C_7  and  C_8
REMARK    3  A    between atoms: N_9  and  N_10
REMARK    4  A    between atoms: C_11  and  C_13
REMARK    5  A    between atoms: N_17  and  C_18
REMARK    6  A    between atoms: C_24  and  N_25
REMARK                            x       y       z     vdW  Elec       q    Type
REMARK                         _______ _______ _______ _____ _____    ______ ____
ROOT
ATOM      1  N   UNL     1       2.099   8.153  19.387  0.00  0.00    +0.000 N 
ATOM      2  C   UNL     1       1.261   9.051  18.750  0.00  0.00    +0.000 C 
ATOM      3  O   UNL     1       0.726   8.841  17.664  0.00  0.00    +0.000 OA
ATOM      4  H   UNL     1       2.741   8.523  20.092  0.00  0.00    +0.000 HD
ENDROOT
BRANCH   1  13
ATOM      5  C   UNL     1       6.736   4.896  14.558  0.00  0.00    +0.000 C 
ATOM      6  C   UNL     1       5.724   4.860  15.665  0.00  0.00    +0.000 A 
ATOM      7  C   UNL     1       5.387   3.636  16.254  0.00  0.00    +0.000 A 
ATOM      8  C   UNL     1       4.466   3.590  17.299  0.00  0.00    +0.000 A 
ATOM      9  C   UNL     1       3.862   4.753  17.771  0.00  0.00    +0.000 A 
ATOM     10  N   UNL     1       2.975   4.640  18.843  0.00  0.00    +0.000 NA
ATOM     11  C   UNL     1       2.397   5.700  19.305  0.00  0.00    +0.000 A 
ATOM     12  C   UNL     1       1.499   5.486  20.493  0.00  0.00    +0.000 C 
ATOM     13  N   UNL     1       2.581   6.965  18.754  0.00  0.00    +0.000 N 
ATOM     14  C   UNL     1       3.525   7.183  17.737  0.00  0.00    +0.000 A 
ATOM     15  O   UNL     1       3.850   8.307  17.352  0.00  0.00    +0.000 OA
ATOM     16  C   UNL     1       4.187   5.977  17.184  0.00  0.00    +0.000 A 
ATOM     17  C   UNL     1       5.127   6.038  16.145  0.00  0.00    +0.000 A 
ENDBRANCH   1  13
BRANCH   2  18
ATOM     18  C   UNL     1       0.969  10.315  19.515  0.00  0.00    +0.000 A 
ATOM     19  S   UNL     1       0.188  10.275  21.047  0.00  0.00    +0.000 S 
ATOM     20  C   UNL     1       0.127  12.050  21.111  0.00  0.00    +0.000 A 
ATOM     21  S   UNL     1      -0.756  12.792  22.324  0.00  0.00    +0.000 S 
ATOM     22  N   UNL     1       0.797  12.573  19.974  0.00  0.00    +0.000 N 
ATOM     23  C   UNL     1       1.253  11.567  19.087  0.00  0.00    +0.000 A 
BRANCH  22  24
ATOM     24  C   UNL     1       0.856  13.995  19.697  0.00  0.00    +0.000 A 
ATOM     25  C   UNL     1      -0.185  14.661  19.024  0.00  0.00    +0.000 A 
ATOM     26  C   UNL     1      -0.088  16.021  18.694  0.00  0.00    +0.000 A 
ATOM     27  C   UNL     1       1.030  16.756  19.073  0.00  0.00    +0.000 A 
ATOM     28  C   UNL     1       2.050  16.129  19.780  0.00  0.00    +0.000 A 
ATOM     29  C   UNL     1       1.969  14.762  20.071  0.00  0.00    +0.000 A 
ENDBRANCH  22  24
BRANCH  23  30
ATOM     30  N   UNL     1       1.927  11.809  17.919  0.00  0.00    +0.000 N 
ATOM     31  H   UNL     1       1.472  11.764  17.020  0.00  0.00    +0.000 HD
ATOM     32  H   UNL     1       2.937  11.958  17.964  0.00  0.00    +0.000 HD
ENDBRANCH  23  30
ENDBRANCH   2  18
TORSDOF 4
ENDMDL
MODEL 2
REMARK VINA RESULT:      -7.6      2.280      3.465
REMARK  Name = 
REMARK  6 active torsions:
REMARK  status: ('A' for Active; 'I' for Inactive)
REMARK    1  A    between atoms: C_1  and  C_2
REMARK    2  A    between atoms: C_7  and  C_8
REMARK    3  A    between atoms: N_9  and  N_10
REMARK    4  A    between atoms: C_11  and  C_13
REMARK    5  A    between atoms: N_17  and  C_18
REMARK    6  A    between atoms: C_24  and  N_25
REMARK                            x       y       z     vdW  Elec       q    Type
REMARK                         _______ _______ _______ _____ _____    ______ ____
ROOT
ATOM      1  N   UNL     1       1.503  10.472  19.582  0.00  0.00    +0.000 N 
ATOM      2  C   UNL     1       0.506  11.194  18.949  0.00  0.00    +0.000 C 
ATOM      3  O   UNL     1      -0.569  10.717  18.598  0.00  0.00    +0.000 OA
ATOM      4  H   UNL     1       2.456  10.843  19.540  0.00  0.00    +0.000 HD
ENDROOT
BRANCH   1  13
ATOM      5  C   UNL     1       3.532   3.737  17.147  0.00  0.00    +0.000 C 
ATOM      6  C   UNL     1       2.914   4.657  18.156  0.00  0.00    +0.000 A 
ATOM      7  C   UNL     1       2.461   4.143  19.377  0.00  0.00    +0.000 A 
ATOM      8  C   UNL     1       1.906   4.990  20.333  0.00  0.00    +0.000 A 
ATOM      9  C   UNL     1       1.785   6.357  20.093  0.00  0.00    +0.000 A 
ATOM     10  N   UNL     1       1.252   7.154  21.108  0.00  0.00    +0.000 NA
ATOM     11  C   UNL     1       1.126   8.426  20.918  0.00  0.00    +0.000 A 
ATOM     12  C   UNL     1       0.590   9.209  22.086  0.00  0.00    +0.000 C 
ATOM     13  N   UNL     1       1.458   9.050  19.718  0.00  0.00    +0.000 N 
ATOM     14  C   UNL     1       2.087   8.341  18.682  0.00  0.00    +0.000 A 
ATOM     15  O   UNL     1       2.562   8.888  17.686  0.00  0.00    +0.000 OA
ATOM     16  C   UNL     1       2.227   6.878  18.876  0.00  0.00    +0.000 A 
ATOM     17  C   UNL     1       2.806   6.038  17.913  0.00  0.00    +0.000 A 
ENDBRANCH   1  13
BRANCH   2  18
ATOM     18  C   UNL     1       0.787  12.663  18.773  0.00  0.00    +0.000 A 
ATOM     19  S   UNL     1       2.385  13.246  18.520  0.00  0.00    +0.000 S 
ATOM     20  C   UNL     1       1.824  14.932  18.573  0.00  0.00    +0.000 A 
ATOM     21  S   UNL     1       2.955  16.166  18.606  0.00  0.00    +0.000 S 
ATOM     22  N   UNL     1       0.410  14.942  18.698  0.00  0.00    +0.000 N 
ATOM     23  C   UNL     1      -0.145  13.644  18.818  0.00  0.00    +0.000 A 
BRANCH  22  24
ATOM     24  C   UNL     1      -0.345  16.171  18.843  0.00  0.00    +0.000 A 
ATOM     25  C   UNL     1      -1.056  16.468  20.021  0.00  0.00    +0.000 A 
ATOM     26  C   UNL     1      -1.844  17.623  20.125  0.00  0.00    +0.000 A 
ATOM     27  C   UNL     1      -1.900  18.531  19.074  0.00  0.00    +0.000 A 
ATOM     28  C   UNL     1      -1.168  18.281  17.918  0.00  0.00    +0.000 A 
ATOM     29  C   UNL     1      -0.416  17.107  17.801  0.00  0.00    +0.000 A 
ENDBRANCH  22  24
BRANCH  23  30
ATOM     30  N   UNL     1      -1.483  13.381  18.951  0.00  0.00    +0.000 N 
ATOM     31  H   UNL     1      -2.187  13.956  18.514  0.00  0.00    +0.000 HD
ATOM     32  H   UNL     1      -1.768  12.629  19.581  0.00  0.00    +0.000 HD
ENDBRANCH  23  30
ENDBRANCH   2  18
TORSDOF 4
ENDMDL
MODEL 3
REMARK VINA RESULT:      -7.4      2.013      3.290
REMARK  Name = 
REMARK  6 active torsions:
REMARK  status: ('A' for Active; 'I' for Inactive)
REMARK    1  A    between atoms: C_1  and  C_2
REMARK    2  A    between atoms: C_7  and  C_8
REMARK    3  A    between atoms: N_9  and  N_10
REMARK    4  A    between atoms: C_11  and  C_13
REMARK    5  A    between atoms: N_17  and  C_18
REMARK    6  A    between atoms: C_24  and  N_25
REMARK                            x       y       z     vdW  Elec       q    Type
REMARK                         _______ _______ _______ _____ _____    ______ ____
ROOT
ATOM      1  N   UNL     1       0.687  10.898  20.316  0.00  0.00    +0.000 N 
ATOM      2  C   UNL     1      -0.451  11.481  19.785  0.00  0.00    +0.000 C 
ATOM      3  O   UNL     1      -1.388  10.846  19.307  0.00  0.00    +0.000 OA
ATOM      4  H   UNL     1       1.528  11.477  20.382  0.00  0.00    +0.000 HD
ENDROOT
BRANCH   1  13
ATOM      5  C   UNL     1       4.308   5.392  16.853  0.00  0.00    +0.000 C 
ATOM      6  C   UNL     1       3.461   5.937  17.964  0.00  0.00    +0.000 A 
ATOM      7  C   UNL     1       3.105   5.107  19.035  0.00  0.00    +0.000 A 
ATOM      8  C   UNL     1       2.339   5.607  20.085  0.00  0.00    +0.000 A 
ATOM      9  C   UNL     1       1.909   6.932  20.090  0.00  0.00    +0.000 A 
ATOM     10  N   UNL     1       1.174   7.376  21.190  0.00  0.00    +0.000 NA
ATOM     11  C   UNL     1       0.759   8.600  21.225  0.00  0.00    +0.000 A 
ATOM     12  C   UNL     1       0.020   9.002  22.473  0.00  0.00    +0.000 C 
ATOM     13  N   UNL     1       0.972   9.504  20.187  0.00  0.00    +0.000 N 
ATOM     14  C   UNL     1       1.780   9.168  19.089  0.00  0.00    +0.000 A 
ATOM     15  O   UNL     1       2.143   9.990  18.246  0.00  0.00    +0.000 OA
ATOM     16  C   UNL     1       2.253   7.764  19.023  0.00  0.00    +0.000 A 
ATOM     17  C   UNL     1       3.041   7.278  17.969  0.00  0.00    +0.000 A 
ENDBRANCH   1  13
BRANCH   2  18
ATOM     18  C   UNL     1      -0.517  12.981  19.891  0.00  0.00    +0.000 A 
ATOM     19  S   UNL     1      -1.433  13.752  21.126  0.00  0.00    +0.000 S 
ATOM     20  C   UNL     1      -1.089  15.355  20.441  0.00  0.00    +0.000 A 
ATOM     21  S   UNL     1      -1.892  16.691  21.051  0.00  0.00    +0.000 S 
ATOM     22  N   UNL     1      -0.208  15.204  19.338  0.00  0.00    +0.000 N 
ATOM     23  C   UNL     1       0.088  13.849  19.048  0.00  0.00    +0.000 A 
BRANCH  22  24
ATOM     24  C   UNL     1       0.204  16.325  18.517  0.00  0.00    +0.000 A 
ATOM     25  C   UNL     1      -0.732  17.135  17.848  0.00  0.00    +0.000 A 
ATOM     26  C   UNL     1      -0.323  18.171  16.997  0.00  0.00    +0.000 A 
ATOM     27  C   UNL     1       1.028  18.452  16.833  0.00  0.00    +0.000 A 
ATOM     28  C   UNL     1       1.970  17.694  17.521  0.00  0.00    +0.000 A 
ATOM     29  C   UNL     1       1.560  16.634  18.338  0.00  0.00    +0.000 A 
ENDBRANCH  22  24
BRANCH  23  30
ATOM     30  N   UNL     1       0.911  13.435  18.034  0.00  0.00    +0.000 N 
ATOM     31  H   UNL     1       0.553  12.993  17.201  0.00  0.00    +0.000 HD
ATOM     32  H   UNL     1       1.922  13.504  18.171  0.00  0.00    +0.000 HD
ENDBRANCH  23  30
ENDBRANCH   2  18
TORSDOF 4
ENDMDL
MODEL 4
REMARK VINA RESULT:      -7.3      3.547      4.585
REMARK  Name = 
REMARK  6 active torsions:
REMARK  status: ('A' for Active; 'I' for Inactive)
REMARK    1  A    between atoms: C_1  and  C_2
REMARK    2  A    between atoms: C_7  and  C_8
REMARK    3  A    between atoms: N_9  and  N_10
REMARK    4  A    between atoms: C_11  and  C_13
REMARK    5  A    between atoms: N_17  and  C_18
REMARK    6  A    between atoms: C_24  and  N_25
REMARK                            x       y       z     vdW  Elec       q    Type
REMARK                         _______ _______ _______ _____ _____    ______ ____
ROOT
ATOM      1  N   UNL     1      -0.112  10.858  20.088  0.00  0.00    +0.000 N 
ATOM      2  C   UNL     1       0.410  11.876  20.866  0.00  0.00    +0.000 C 
ATOM      3  O   UNL     1       1.520  11.839  21.391  0.00  0.00    +0.000 OA
ATOM      4  H   UNL     1      -1.128  10.824  19.973  0.00  0.00    +0.000 HD
ENDROOT
BRANCH   1  13
ATOM      5  C   UNL     1       4.712   6.364  16.631  0.00  0.00    +0.000 C 
ATOM      6  C   UNL     1       3.775   6.702  17.752  0.00  0.00    +0.000 A 
ATOM      7  C   UNL     1       3.657   5.831  18.842  0.00  0.00    +0.000 A 
ATOM      8  C   UNL     1       2.808   6.144  19.902  0.00  0.00    +0.000 A 
ATOM      9  C   UNL     1       2.060   7.319  19.896  0.00  0.00    +0.000 A 
ATOM     10  N   UNL     1       1.257   7.588  21.005  0.00  0.00    +0.000 NA
ATOM     11  C   UNL     1       0.549   8.669  21.031  0.00  0.00    +0.000 A 
ATOM     12  C   UNL     1      -0.245   8.898  22.288  0.00  0.00    +0.000 C 
ATOM     13  N   UNL     1       0.511   9.576  19.975  0.00  0.00    +0.000 N 
ATOM     14  C   UNL     1       1.358   9.431  18.864  0.00  0.00    +0.000 A 
ATOM     15  O   UNL     1       1.489  10.301  18.001  0.00  0.00    +0.000 OA
ATOM     16  C   UNL     1       2.166   8.190  18.809  0.00  0.00    +0.000 A 
ATOM     17  C   UNL     1       3.032   7.895  17.746  0.00  0.00    +0.000 A 
ENDBRANCH   1  13
BRANCH   2  18
ATOM     18  C   UNL     1      -0.451  13.106  20.981  0.00  0.00    +0.000 A 
ATOM     19  S   UNL     1      -0.528  14.268  19.716  0.00  0.00    +0.000 S 
ATOM     20  C   UNL     1      -1.556  15.334  20.698  0.00  0.00    +0.000 A 
ATOM     21  S   UNL     1      -1.889  16.879  20.147  0.00  0.00    +0.000 S 
ATOM     22  N   UNL     1      -1.853  14.683  21.924  0.00  0.00    +0.000 N 
ATOM     23  C   UNL     1      -1.205  13.430  22.058  0.00  0.00    +0.000 A 
BRANCH  22  24
ATOM     24  C   UNL     1      -2.614  15.327  22.977  0.00  0.00    +0.000 A 
ATOM     25  C   UNL     1      -4.016  15.230  23.042  0.00  0.00    +0.000 A 
ATOM     26  C   UNL     1      -4.750  15.916  24.020  0.00  0.00    +0.000 A 
ATOM     27  C   UNL     1      -4.096  16.674  24.984  0.00  0.00    +0.000 A 
ATOM     28  C   UNL     1      -2.707  16.745  24.968  0.00  0.00    +0.000 A 
ATOM     29  C   UNL     1      -1.979  16.093  23.966  0.00  0.00    +0.000 A 
ENDBRANCH  22  24
BRANCH  23  30
ATOM     30  N   UNL     1      -1.325  12.606  23.145  0.00  0.00    +0.000 N 
ATOM     31  H   UNL     1      -2.223  12.303  23.489  0.00  0.00    +0.000 HD
ATOM     32  H   UNL     1      -0.480  12.365  23.666  0.00  0.00    +0.000 HD
ENDBRANCH  23  30
ENDBRANCH   2  18
TORSDOF 4
ENDMDL
MODEL 5
REMARK VINA RESULT:      -7.1      1.842      3.016
REMARK  Name = 
REMARK  6 active torsions:
REMARK  status: ('A' for Active; 'I' for Inactive)
REMARK    1  A    between atoms: C_1  and  C_2
REMARK    2  A    between atoms: C_7  and  C_8
REMARK    3  A    between atoms: N_9  and  N_10
REMARK    4  A    between atoms: C_11  and  C_13
REMARK    5  A    between atoms: N_17  and  C_18
REMARK    6  A    between atoms: C_24  and  N_25
REMARK                            x       y       z     vdW  Elec       q    Type
REMARK                         _______ _______ _______ _____ _____    ______ ____
ROOT
ATOM      1  N   UNL     1       0.629  10.609  20.150  0.00  0.00    +0.000 N 
ATOM      2  C   UNL     1      -0.513  11.127  19.564  0.00  0.00    +0.000 C 
ATOM      3  O   UNL     1      -1.321  10.458  18.925  0.00  0.00    +0.000 OA
ATOM      4  H   UNL     1       1.387  11.261  20.366  0.00  0.00    +0.000 HD
ENDROOT
BRANCH   1  13
ATOM      5  C   UNL     1       4.923   5.910  16.290  0.00  0.00    +0.000 C 
ATOM      6  C   UNL     1       4.008   6.248  17.429  0.00  0.00    +0.000 A 
ATOM      7  C   UNL     1       3.750   5.291  18.417  0.00  0.00    +0.000 A 
ATOM      8  C   UNL     1       2.920   5.599  19.493  0.00  0.00    +0.000 A 
ATOM      9  C   UNL     1       2.330   6.856  19.604  0.00  0.00    +0.000 A 
ATOM     10  N   UNL     1       1.539   7.109  20.726  0.00  0.00    +0.000 NA
ATOM     11  C   UNL     1       0.977   8.266  20.859  0.00  0.00    +0.000 A 
ATOM     12  C   UNL     1       0.185   8.463  22.123  0.00  0.00    +0.000 C 
ATOM     13  N   UNL     1       1.084   9.276  19.907  0.00  0.00    +0.000 N 
ATOM     14  C   UNL     1       1.935   9.139  18.798  0.00  0.00    +0.000 A 
ATOM     15  O   UNL     1       2.200  10.070  18.036  0.00  0.00    +0.000 OA
ATOM     16  C   UNL     1       2.577   7.815  18.620  0.00  0.00    +0.000 A 
ATOM     17  C   UNL     1       3.426   7.523  17.542  0.00  0.00    +0.000 A 
ENDBRANCH   1  13
BRANCH   2  18
ATOM     18  C   UNL     1      -0.763  12.590  19.821  0.00  0.00    +0.000 A 
ATOM     19  S   UNL     1      -2.060  13.116  20.819  0.00  0.00    +0.000 S 
ATOM     20  C   UNL     1      -1.708  14.819  20.453  0.00  0.00    +0.000 A 
ATOM     21  S   UNL     1      -2.784  16.000  20.956  0.00  0.00    +0.000 S 
ATOM     22  N   UNL     1      -0.545  14.884  19.643  0.00  0.00    +0.000 N 
ATOM     23  C   UNL     1      -0.040  13.606  19.295  0.00  0.00    +0.000 A 
BRANCH  22  24
ATOM     24  C   UNL     1      -0.040  16.135  19.111  0.00  0.00    +0.000 A 
ATOM     25  C   UNL     1       1.012  16.832  19.732  0.00  0.00    +0.000 A 
ATOM     26  C   UNL     1       1.444  18.077  19.255  0.00  0.00    +0.000 A 
ATOM     27  C   UNL     1       0.867  18.630  18.118  0.00  0.00    +0.000 A 
ATOM     28  C   UNL     1      -0.143  17.937  17.460  0.00  0.00    +0.000 A 
ATOM     29  C   UNL     1      -0.600  16.713  17.963  0.00  0.00    +0.000 A 
ENDBRANCH  22  24
BRANCH  23  30
ATOM     30  N   UNL     1       1.071  13.395  18.521  0.00  0.00    +0.000 N 
ATOM     31  H   UNL     1       1.793  12.744  18.789  0.00  0.00    +0.000 HD
ATOM     32  H   UNL     1       1.202  13.978  17.692  0.00  0.00    +0.000 HD
ENDBRANCH  23  30
ENDBRANCH   2  18
TORSDOF 4
ENDMDL
MODEL 6
REMARK VINA RESULT:      -7.0      2.918      9.351
REMARK  Name = 
REMARK  6 active torsions:
REMARK  status: ('A' for Active; 'I' for Inactive)
REMARK    1  A    between atoms: C_1  and  C_2
REMARK    2  A    between atoms: C_7  and  C_8
REMARK    3  A    between atoms: N_9  and  N_10
REMARK    4  A    between atoms: C_11  and  C_13
REMARK    5  A    between atoms: N_17  and  C_18
REMARK    6  A    between atoms: C_24  and  N_25
REMARK                            x       y       z     vdW  Elec       q    Type
REMARK                         _______ _______ _______ _____ _____    ______ ____
ROOT
ATOM      1  N   UNL     1       0.259   8.929  20.274  0.00  0.00    +0.000 N 
ATOM      2  C   UNL     1       1.423   8.941  19.526  0.00  0.00    +0.000 C 
ATOM      3  O   UNL     1       1.945   9.962  19.085  0.00  0.00    +0.000 OA
ATOM      4  H   UNL     1      -0.269   8.054  20.314  0.00  0.00    +0.000 HD
ENDROOT
BRANCH   1  13
ATOM      5  C   UNL     1      -1.585  14.927  24.281  0.00  0.00    +0.000 C 
ATOM      6  C   UNL     1      -1.652  14.078  23.047  0.00  0.00    +0.000 A 
ATOM      7  C   UNL     1      -2.371  14.529  21.934  0.00  0.00    +0.000 A 
ATOM      8  C   UNL     1      -2.423  13.761  20.773  0.00  0.00    +0.000 A 
ATOM      9  C   UNL     1      -1.769  12.533  20.698  0.00  0.00    +0.000 A 
ATOM     10  N   UNL     1      -1.832  11.832  19.492  0.00  0.00    +0.000 NA
ATOM     11  C   UNL     1      -1.236  10.689  19.390  0.00  0.00    +0.000 A 
ATOM     12  C   UNL     1      -1.317  10.032  18.039  0.00  0.00    +0.000 C 
ATOM     13  N   UNL     1      -0.559  10.089  20.448  0.00  0.00    +0.000 N 
ATOM     14  C   UNL     1      -0.367  10.766  21.663  0.00  0.00    +0.000 A 
ATOM     15  O   UNL     1       0.378  10.352  22.553  0.00  0.00    +0.000 OA
ATOM     16  C   UNL     1      -1.055  12.072  21.805  0.00  0.00    +0.000 A 
ATOM     17  C   UNL     1      -0.980  12.845  22.973  0.00  0.00    +0.000 A 
ENDBRANCH   1  13
BRANCH   2  18
ATOM     18  C   UNL     1       2.080   7.601  19.333  0.00  0.00    +0.000 A 
ATOM     19  S   UNL     1       1.721   6.270  20.363  0.00  0.00    +0.000 S 
ATOM     20  C   UNL     1       2.951   5.265  19.566  0.00  0.00    +0.000 A 
ATOM     21  S   UNL     1       3.342   3.779  20.228  0.00  0.00    +0.000 S 
ATOM     22  N   UNL     1       3.511   5.996  18.485  0.00  0.00    +0.000 N 
ATOM     23  C   UNL     1       3.004   7.315  18.387  0.00  0.00    +0.000 A 
BRANCH  22  24
ATOM     24  C   UNL     1       4.599   5.476  17.681  0.00  0.00    +0.000 A 
ATOM     25  C   UNL     1       4.369   4.606  16.599  0.00  0.00    +0.000 A 
ATOM     26  C   UNL     1       5.431   4.048  15.873  0.00  0.00    +0.000 A 
ATOM     27  C   UNL     1       6.744   4.386  16.180  0.00  0.00    +0.000 A 
ATOM     28  C   UNL     1       6.993   5.281  17.216  0.00  0.00    +0.000 A 
ATOM     29  C   UNL     1       5.932   5.803  17.965  0.00  0.00    +0.000 A 
ENDBRANCH  22  24
BRANCH  23  30
ATOM     30  N   UNL     1       3.383   8.223  17.432  0.00  0.00    +0.000 N 
ATOM     31  H   UNL     1       2.763   8.507  16.689  0.00  0.00    +0.000 HD
ATOM     32  H   UNL     1       4.350   8.552  17.433  0.00  0.00    +0.000 HD
ENDBRANCH  23  30
ENDBRANCH   2  18
TORSDOF 4
ENDMDL
MODEL 7
REMARK VINA RESULT:      -7.0      2.778      9.452
REMARK  Name = 
REMARK  6 active torsions:
REMARK  status: ('A' for Active; 'I' for Inactive)
REMARK    1  A    between atoms: C_1  and  C_2
REMARK    2  A    between atoms: C_7  and  C_8
REMARK    3  A    between atoms: N_9  and  N_10
REMARK    4  A    between atoms: C_11  and  C_13
REMARK    5  A    between atoms: N_17  and  C_18
REMARK    6  A    between atoms: C_24  and  N_25
REMARK                            x       y       z     vdW  Elec       q    Type
REMARK                         _______ _______ _______ _____ _____    ______ ____
ROOT
ATOM      1  N   UNL     1       1.295   9.506  20.629  0.00  0.00    +0.000 N 
ATOM      2  C   UNL     1       1.258   8.895  19.387  0.00  0.00    +0.000 C 
ATOM      3  O   UNL     1       0.709   9.378  18.401  0.00  0.00    +0.000 OA
ATOM      4  H   UNL     1       1.470   8.912  21.443  0.00  0.00    +0.000 HD
ENDROOT
BRANCH   1  13
ATOM      5  C   UNL     1      -4.009  12.805  24.680  0.00  0.00    +0.000 C 
ATOM      6  C   UNL     1      -2.873  12.828  23.701  0.00  0.00    +0.000 A 
ATOM      7  C   UNL     1      -2.393  14.054  23.225  0.00  0.00    +0.000 A 
ATOM      8  C   UNL     1      -1.323  14.091  22.334  0.00  0.00    +0.000 A 
ATOM      9  C   UNL     1      -0.715  12.916  21.897  0.00  0.00    +0.000 A 
ATOM     10  N   UNL     1       0.375  13.027  21.032  0.00  0.00    +0.000 NA
ATOM     11  C   UNL     1       0.961  11.956  20.607  0.00  0.00    +0.000 A 
ATOM     12  C   UNL     1       2.156  12.176  19.721  0.00  0.00    +0.000 C 
ATOM     13  N   UNL     1       0.530  10.674  20.937  0.00  0.00    +0.000 N 
ATOM     14  C   UNL     1      -0.497  10.473  21.874  0.00  0.00    +0.000 A 
ATOM     15  O   UNL     1      -0.782   9.364  22.330  0.00  0.00    +0.000 OA
ATOM     16  C   UNL     1      -1.191  11.688  22.361  0.00  0.00    +0.000 A 
ATOM     17  C   UNL     1      -2.255  11.640  23.274  0.00  0.00    +0.000 A 
ENDBRANCH   1  13
BRANCH   2  18
ATOM     18  C   UNL     1       2.015   7.598  19.285  0.00  0.00    +0.000 A 
ATOM     19  S   UNL     1       1.708   6.294  20.364  0.00  0.00    +0.000 S 
ATOM     20  C   UNL     1       3.037   5.344  19.662  0.00  0.00    +0.000 A 
ATOM     21  S   UNL     1       3.505   3.921  20.410  0.00  0.00    +0.000 S 
ATOM     22  N   UNL     1       3.588   6.063  18.569  0.00  0.00    +0.000 N 
ATOM     23  C   UNL     1       2.994   7.337  18.388  0.00  0.00    +0.000 A 
BRANCH  22  24
ATOM     24  C   UNL     1       4.741   5.586  17.832  0.00  0.00    +0.000 A 
ATOM     25  C   UNL     1       4.605   4.797  16.674  0.00  0.00    +0.000 A 
ATOM     26  C   UNL     1       5.726   4.278  16.010  0.00  0.00    +0.000 A 
ATOM     27  C   UNL     1       7.007   4.576  16.459  0.00  0.00    +0.000 A 
ATOM     28  C   UNL     1       7.166   5.392  17.573  0.00  0.00    +0.000 A 
ATOM     29  C   UNL     1       6.045   5.875  18.259  0.00  0.00    +0.000 A 
ENDBRANCH  22  24
BRANCH  23  30
ATOM     30  N   UNL     1       3.347   8.224  17.406  0.00  0.00    +0.000 N 
ATOM     31  H   UNL     1       2.690   8.536  16.706  0.00  0.00    +0.000 HD
ATOM     32  H   UNL     1       4.326   8.509  17.338  0.00  0.00    +0.000 HD
ENDBRANCH  23  30
ENDBRANCH   2  18
TORSDOF 4
ENDMDL
MODEL 8
REMARK VINA RESULT:      -7.0      2.955      3.945
REMARK  Name = 
REMARK  6 active torsions:
REMARK  status: ('A' for Active; 'I' for Inactive)
REMARK    1  A    between atoms: C_1  and  C_2
REMARK    2  A    between atoms: C_7  and  C_8
REMARK    3  A    between atoms: N_9  and  N_10
REMARK    4  A    between atoms: C_11  and  C_13
REMARK    5  A    between atoms: N_17  and  C_18
REMARK    6  A    between atoms: C_24  and  N_25
REMARK                            x       y       z     vdW  Elec       q    Type
REMARK                         _______ _______ _______ _____ _____    ______ ____
ROOT
ATOM      1  N   UNL     1       0.664  10.741  19.880  0.00  0.00    +0.000 N 
ATOM      2  C   UNL     1      -0.569  11.168  19.420  0.00  0.00    +0.000 C 
ATOM      3  O   UNL     1      -1.449  10.414  19.014  0.00  0.00    +0.000 OA
ATOM      4  H   UNL     1       1.430  11.420  19.883  0.00  0.00    +0.000 HD
ENDROOT
BRANCH   1  13
ATOM      5  C   UNL     1       4.846   5.691  16.354  0.00  0.00    +0.000 C 
ATOM      6  C   UNL     1       3.963   6.136  17.482  0.00  0.00    +0.000 A 
ATOM      7  C   UNL     1       3.730   5.274  18.560  0.00  0.00    +0.000 A 
ATOM      8  C   UNL     1       2.931   5.683  19.626  0.00  0.00    +0.000 A 
ATOM      9  C   UNL     1       2.346   6.948  19.637  0.00  0.00    +0.000 A 
ATOM     10  N   UNL     1       1.586   7.306  20.751  0.00  0.00    +0.000 NA
ATOM     11  C   UNL     1       1.029   8.472  20.793  0.00  0.00    +0.000 A 
ATOM     12  C   UNL     1       0.273   8.788  22.054  0.00  0.00    +0.000 C 
ATOM     13  N   UNL     1       1.111   9.390  19.749  0.00  0.00    +0.000 N 
ATOM     14  C   UNL     1       1.931   9.148  18.634  0.00  0.00    +0.000 A 
ATOM     15  O   UNL     1       2.177  10.004  17.783  0.00  0.00    +0.000 OA
ATOM     16  C   UNL     1       2.567   7.811  18.561  0.00  0.00    +0.000 A 
ATOM     17  C   UNL     1       3.385   7.417  17.493  0.00  0.00    +0.000 A 
ENDBRANCH   1  13
BRANCH   2  18
ATOM     18  C   UNL     1      -0.814  12.651  19.514  0.00  0.00    +0.000 A 
ATOM     19  S   UNL     1       0.064  13.768  18.545  0.00  0.00    +0.000 S 
ATOM     20  C   UNL     1      -0.702  15.147  19.364  0.00  0.00    +0.000 A 
ATOM     21  S   UNL     1      -0.135  16.692  19.060  0.00  0.00    +0.000 S 
ATOM     22  N   UNL     1      -1.664  14.657  20.286  0.00  0.00    +0.000 N 
ATOM     23  C   UNL     1      -1.696  13.242  20.354  0.00  0.00    +0.000 A 
BRANCH  22  24
ATOM     24  C   UNL     1      -2.409  15.535  21.167  0.00  0.00    +0.000 A 
ATOM     25  C   UNL     1      -1.928  15.886  22.441  0.00  0.00    +0.000 A 
ATOM     26  C   UNL     1      -2.689  16.675  23.316  0.00  0.00    +0.000 A 
ATOM     27  C   UNL     1      -3.925  17.171  22.917  0.00  0.00    +0.000 A 
ATOM     28  C   UNL     1      -4.399  16.876  21.644  0.00  0.00    +0.000 A 
ATOM     29  C   UNL     1      -3.656  16.054  20.789  0.00  0.00    +0.000 A 
ENDBRANCH  22  24
BRANCH  23  30
ATOM     30  N   UNL     1      -2.533  12.523  21.166  0.00  0.00    +0.000 N 
ATOM     31  H   UNL     1      -3.471  12.280  20.886  0.00  0.00    +0.000 HD
ATOM     32  H   UNL     1      -2.218  12.303  22.113  0.00  0.00    +0.000 HD
ENDBRANCH  23  30
ENDBRANCH   2  18
TORSDOF 4
ENDMDL
MODEL 9
REMARK VINA RESULT:      -6.9      3.064      4.646
REMARK  Name = 
REMARK  6 active torsions:
REMARK  status: ('A' for Active; 'I' for Inactive)
REMARK    1  A    between atoms: C_1  and  C_2
REMARK    2  A    between atoms: C_7  and  C_8
REMARK    3  A    between atoms: N_9  and  N_10
REMARK    4  A    between atoms: C_11  and  C_13
REMARK    5  A    between atoms: N_17  and  C_18
REMARK    6  A    between atoms: C_24  and  N_25
REMARK                            x       y       z     vdW  Elec       q    Type
REMARK                         _______ _______ _______ _____ _____    ______ ____
ROOT
ATOM      1  N   UNL     1       0.884  10.258  20.326  0.00  0.00    +0.000 N 
ATOM      2  C   UNL     1      -0.392  10.613  19.924  0.00  0.00    +0.000 C 
ATOM      3  O   UNL     1      -1.147   9.870  19.301  0.00  0.00    +0.000 OA
ATOM      4  H   UNL     1       1.542  11.013  20.533  0.00  0.00    +0.000 HD
ENDROOT
BRANCH   1  13
ATOM      5  C   UNL     1       2.130   2.973  21.218  0.00  0.00    +0.000 C 
ATOM      6  C   UNL     1       2.216   4.253  20.443  0.00  0.00    +0.000 A 
ATOM      7  C   UNL     1       2.754   4.245  19.150  0.00  0.00    +0.000 A 
ATOM      8  C   UNL     1       2.819   5.424  18.410  0.00  0.00    +0.000 A 
ATOM      9  C   UNL     1       2.358   6.628  18.939  0.00  0.00    +0.000 A 
ATOM     10  N   UNL     1       2.421   7.763  18.130  0.00  0.00    +0.000 NA
ATOM     11  C   UNL     1       2.003   8.896  18.591  0.00  0.00    +0.000 A 
ATOM     12  C   UNL     1       2.062  10.052  17.630  0.00  0.00    +0.000 C 
ATOM     13  N   UNL     1       1.525   9.057  19.889  0.00  0.00    +0.000 N 
ATOM     14  C   UNL     1       1.340   7.952  20.736  0.00  0.00    +0.000 A 
ATOM     15  O   UNL     1       0.752   8.024  21.816  0.00  0.00    +0.000 OA
ATOM     16  C   UNL     1       1.828   6.646  20.230  0.00  0.00    +0.000 A 
ATOM     17  C   UNL     1       1.739   5.463  20.978  0.00  0.00    +0.000 A 
ENDBRANCH   1  13
BRANCH   2  18
ATOM     18  C   UNL     1      -0.852  11.976  20.367  0.00  0.00    +0.000 A 
ATOM     19  S   UNL     1      -0.782  13.332  19.311  0.00  0.00    +0.000 S 
ATOM     20  C   UNL     1      -1.323  14.423  20.606  0.00  0.00    +0.000 A 
ATOM     21  S   UNL     1      -1.288  16.076  20.346  0.00  0.00    +0.000 S 
ATOM     22  N   UNL     1      -1.612  13.654  21.763  0.00  0.00    +0.000 N 
ATOM     23  C   UNL     1      -1.325  12.276  21.599  0.00  0.00    +0.000 A 
BRANCH  22  24
ATOM     24  C   UNL     1      -2.006  14.262  23.018  0.00  0.00    +0.000 A 
ATOM     25  C   UNL     1      -3.358  14.472  23.347  0.00  0.00    +0.000 A 
ATOM     26  C   UNL     1      -3.729  15.129  24.529  0.00  0.00    +0.000 A 
ATOM     27  C   UNL     1      -2.758  15.546  25.432  0.00  0.00    +0.000 A 
ATOM     28  C   UNL     1      -1.417  15.308  25.151  0.00  0.00    +0.000 A 
ATOM     29  C   UNL     1      -1.049  14.689  23.950  0.00  0.00    +0.000 A 
ENDBRANCH  22  24
BRANCH  23  30
ATOM     30  N   UNL     1      -1.514  11.323  22.565  0.00  0.00    +0.000 N 
ATOM     31  H   UNL     1      -1.246  11.475  23.525  0.00  0.00    +0.000 HD
ATOM     32  H   UNL     1      -1.861  10.405  22.279  0.00  0.00    +0.000 HD
ENDBRANCH  23  30
ENDBRANCH   2  18
TORSDOF 4
ENDMDL
