MODEL 1
REMARK VINA RESULT:      -7.2      0.000      0.000
REMARK  Name = 
REMARK  5 active torsions:
REMARK  status: ('A' for Active; 'I' for Inactive)
REMARK    1  A    between atoms: C_1  and  C_2
REMARK    2  A    between atoms: C_6  and  N_7
REMARK    3  A    between atoms: C_8  and  C_10
REMARK    4  A    between atoms: C_10  and  C_11
REMARK    5  A    between atoms: C_11  and  C_12
REMARK                            x       y       z     vdW  Elec       q    Type
REMARK                         _______ _______ _______ _____ _____    ______ ____
ROOT
ATOM      1  N   UNL     1       5.763   4.637  17.900  0.00  0.00    +0.000 N 
ATOM      2  C   UNL     1       5.215   4.020  16.799  0.00  0.00    +0.000 C 
ATOM      3  O   UNL     1       5.868   3.819  15.779  0.00  0.00    +0.000 OA
ATOM      4  H   UNL     1       5.255   4.632  18.777  0.00  0.00    +0.000 HD
ENDROOT
BRANCH   1  10
ATOM      5  C   UNL     1       6.358   7.518  17.191  0.00  0.00    +0.000 C 
ATOM      6  C   UNL     1       7.482   6.518  17.414  0.00  0.00    +0.000 C 
ATOM      7  O   UNL     1       8.146   6.810  18.685  0.00  0.00    +0.000 OA
ATOM      8  C   UNL     1       7.705   5.652  19.243  0.00  0.00    +0.000 C 
ATOM      9  O   UNL     1       7.724   5.315  20.406  0.00  0.00    +0.000 OA
ATOM     10  C   UNL     1       7.179   5.085  17.904  0.00  0.00    +0.000 C 
ENDBRANCH   1  10
BRANCH   2  11
ATOM     11  C   UNL     1       3.781   3.551  16.944  0.00  0.00    +0.000 C 
BRANCH  11  12
ATOM     12  C   UNL     1       3.636   2.313  17.826  0.00  0.00    +0.000 C 
BRANCH  12  13
ATOM     13  C   UNL     1       2.820   2.593  19.058  0.00  0.00    +0.000 A 
ATOM     14  C   UNL     1       3.403   2.495  20.329  0.00  0.00    +0.000 A 
ATOM     15  C   UNL     1       2.647   2.745  21.473  0.00  0.00    +0.000 A 
ATOM     16  C   UNL     1       1.302   3.090  21.357  0.00  0.00    +0.000 A 
ATOM     17  C   UNL     1       0.713   3.184  20.098  0.00  0.00    +0.000 A 
ATOM     18  C   UNL     1       1.466   2.935  18.952  0.00  0.00    +0.000 A 
ENDBRANCH  12  13
ENDBRANCH  11  12
ENDBRANCH   2  11
TORSDOF 4
ENDMDL
MODEL 2
REMARK VINA RESULT:      -7.2      2.089      3.132
REMARK  Name = 
REMARK  5 active torsions:
REMARK  status: ('A' for Active; 'I' for Inactive)
REMARK    1  A    between atoms: C_1  and  C_2
REMARK    2  A    between atoms: C_6  and  N_7
REMARK    3  A    between atoms: C_8  and  C_10
REMARK    4  A    between atoms: C_10  and  C_11
REMARK    5  A    between atoms: C_11  and  C_12
REMARK                            x       y       z     vdW  Elec       q    Type
REMARK                         _______ _______ _______ _____ _____    ______ ____
ROOT
ATOM      1  N   UNL     1       4.724   5.158  16.853  0.00  0.00    +0.000 N 
ATOM      2  C   UNL     1       4.363   5.746  18.043  0.00  0.00    +0.000 C 
ATOM      3  O   UNL     1       5.135   5.805  18.995  0.00  0.00    +0.000 OA
ATOM      4  H   UNL     1       4.132   5.278  16.039  0.00  0.00    +0.000 HD
ENDROOT
BRANCH   1  10
ATOM      5  C   UNL     1       5.501   4.202  14.089  0.00  0.00    +0.000 C 
ATOM      6  C   UNL     1       6.412   3.967  15.284  0.00  0.00    +0.000 C 
ATOM      7  O   UNL     1       7.577   4.847  15.186  0.00  0.00    +0.000 OA
ATOM      8  C   UNL     1       7.196   5.563  16.276  0.00  0.00    +0.000 C 
ATOM      9  O   UNL     1       7.623   6.623  16.675  0.00  0.00    +0.000 OA
ATOM     10  C   UNL     1       6.075   4.571  16.665  0.00  0.00    +0.000 C 
ENDBRANCH   1  10
BRANCH   2  11
ATOM     11  C   UNL     1       2.980   6.366  18.086  0.00  0.00    +0.000 C 
BRANCH  11  12
ATOM     12  C   UNL     1       2.365   6.373  19.484  0.00  0.00    +0.000 C 
BRANCH  12  13
ATOM     13  C   UNL     1       2.007   4.987  19.947  0.00  0.00    +0.000 A 
ATOM     14  C   UNL     1       1.310   4.116  19.098  0.00  0.00    +0.000 A 
ATOM     15  C   UNL     1       0.969   2.835  19.528  0.00  0.00    +0.000 A 
ATOM     16  C   UNL     1       1.316   2.415  20.810  0.00  0.00    +0.000 A 
ATOM     17  C   UNL     1       2.004   3.276  21.663  0.00  0.00    +0.000 A 
ATOM     18  C   UNL     1       2.347   4.558  21.236  0.00  0.00    +0.000 A 
ENDBRANCH  12  13
ENDBRANCH  11  12
ENDBRANCH   2  11
TORSDOF 4
ENDMDL
MODEL 3
REMARK VINA RESULT:      -7.2      1.974      2.877
REMARK  Name = 
REMARK  5 active torsions:
REMARK  status: ('A' for Active; 'I' for Inactive)
REMARK    1  A    between atoms: C_1  and  C_2
REMARK    2  A    between atoms: C_6  and  N_7
REMARK    3  A    between atoms: C_8  and  C_10
REMARK    4  A    between atoms: C_10  and  C_11
REMARK    5  A    between atoms: C_11  and  C_12
REMARK                            x       y       z     vdW  Elec       q    Type
REMARK                         _______ _______ _______ _____ _____    ______ ____
ROOT
ATOM      1  N   UNL     1       4.738   5.262  16.873  0.00  0.00    +0.000 N 
ATOM      2  C   UNL     1       4.341   5.771  18.088  0.00  0.00    +0.000 C 
ATOM      3  O   UNL     1       5.070   5.731  19.074  0.00  0.00    +0.000 OA
ATOM      4  H   UNL     1       4.188   5.463  16.046  0.00  0.00    +0.000 HD
ENDROOT
BRANCH   1  10
ATOM      5  C   UNL     1       5.506   4.249  14.126  0.00  0.00    +0.000 C 
ATOM      6  C   UNL     1       6.407   4.012  15.329  0.00  0.00    +0.000 C 
ATOM      7  O   UNL     1       7.590   4.865  15.223  0.00  0.00    +0.000 OA
ATOM      8  C   UNL     1       7.220   5.605  16.302  0.00  0.00    +0.000 C 
ATOM      9  O   UNL     1       7.669   6.661  16.687  0.00  0.00    +0.000 OA
ATOM     10  C   UNL     1       6.076   4.643  16.700  0.00  0.00    +0.000 C 
ENDBRANCH   1  10
BRANCH   2  11
ATOM     11  C   UNL     1       2.978   6.434  18.118  0.00  0.00    +0.000 C 
BRANCH  11  12
ATOM     12  C   UNL     1       1.827   5.462  17.872  0.00  0.00    +0.000 C 
BRANCH  12  13
ATOM     13  C   UNL     1       1.751   4.400  18.936  0.00  0.00    +0.000 A 
ATOM     14  C   UNL     1       1.708   4.760  20.290  0.00  0.00    +0.000 A 
ATOM     15  C   UNL     1       1.646   3.778  21.278  0.00  0.00    +0.000 A 
ATOM     16  C   UNL     1       1.634   2.431  20.922  0.00  0.00    +0.000 A 
ATOM     17  C   UNL     1       1.683   2.065  19.579  0.00  0.00    +0.000 A 
ATOM     18  C   UNL     1       1.744   3.044  18.588  0.00  0.00    +0.000 A 
ENDBRANCH  12  13
ENDBRANCH  11  12
ENDBRANCH   2  11
TORSDOF 4
ENDMDL
MODEL 4
REMARK VINA RESULT:      -7.1      2.573      3.226
REMARK  Name = 
REMARK  5 active torsions:
REMARK  status: ('A' for Active; 'I' for Inactive)
REMARK    1  A    between atoms: C_1  and  C_2
REMARK    2  A    between atoms: C_6  and  N_7
REMARK    3  A    between atoms: C_8  and  C_10
REMARK    4  A    between atoms: C_10  and  C_11
REMARK    5  A    between atoms: C_11  and  C_12
REMARK                            x       y       z     vdW  Elec       q    Type
REMARK                         _______ _______ _______ _____ _____    ______ ____
ROOT
ATOM      1  N   UNL     1       5.195   3.702  17.023  0.00  0.00    +0.000 N 
ATOM      2  C   UNL     1       4.677   3.391  18.259  0.00  0.00    +0.000 C 
ATOM      3  O   UNL     1       5.284   3.642  19.296  0.00  0.00    +0.000 OA
ATOM      4  H   UNL     1       4.600   3.639  16.205  0.00  0.00    +0.000 HD
ENDROOT
BRANCH   1  10
ATOM      5  C   UNL     1       6.262   4.223  14.240  0.00  0.00    +0.000 C 
ATOM      6  C   UNL     1       7.110   4.506  15.470  0.00  0.00    +0.000 C 
ATOM      7  O   UNL     1       7.218   5.952  15.662  0.00  0.00    +0.000 OA
ATOM      8  C   UNL     1       6.495   5.908  16.812  0.00  0.00    +0.000 C 
ATOM      9  O   UNL     1       6.010   6.824  17.438  0.00  0.00    +0.000 OA
ATOM     10  C   UNL     1       6.517   4.364  16.889  0.00  0.00    +0.000 C 
ENDBRANCH   1  10
BRANCH   2  11
ATOM     11  C   UNL     1       3.291   2.777  18.265  0.00  0.00    +0.000 C 
BRANCH  11  12
ATOM     12  C   UNL     1       2.208   3.726  17.757  0.00  0.00    +0.000 C 
BRANCH  12  13
ATOM     13  C   UNL     1       2.145   4.991  18.568  0.00  0.00    +0.000 A 
ATOM     14  C   UNL     1       2.497   6.219  17.990  0.00  0.00    +0.000 A 
ATOM     15  C   UNL     1       2.448   7.392  18.742  0.00  0.00    +0.000 A 
ATOM     16  C   UNL     1       2.052   7.347  20.077  0.00  0.00    +0.000 A 
ATOM     17  C   UNL     1       1.706   6.131  20.661  0.00  0.00    +0.000 A 
ATOM     18  C   UNL     1       1.753   4.955  19.912  0.00  0.00    +0.000 A 
ENDBRANCH  12  13
ENDBRANCH  11  12
ENDBRANCH   2  11
TORSDOF 4
ENDMDL
MODEL 5
REMARK VINA RESULT:      -7.0      2.576      3.109
REMARK  Name = 
REMARK  5 active torsions:
REMARK  status: ('A' for Active; 'I' for Inactive)
REMARK    1  A    between atoms: C_1  and  C_2
REMARK    2  A    between atoms: C_6  and  N_7
REMARK    3  A    between atoms: C_8  and  C_10
REMARK    4  A    between atoms: C_10  and  C_11
REMARK    5  A    between atoms: C_11  and  C_12
REMARK                            x       y       z     vdW  Elec       q    Type
REMARK                         _______ _______ _______ _____ _____    ______ ____
ROOT
ATOM      1  N   UNL     1       5.194   3.733  16.930  0.00  0.00    +0.000 N 
ATOM      2  C   UNL     1       4.645   3.368  18.137  0.00  0.00    +0.000 C 
ATOM      3  O   UNL     1       5.227   3.569  19.199  0.00  0.00    +0.000 OA
ATOM      4  H   UNL     1       4.619   3.711  16.096  0.00  0.00    +0.000 HD
ENDROOT
BRANCH   1  10
ATOM      5  C   UNL     1       6.337   4.362  14.199  0.00  0.00    +0.000 C 
ATOM      6  C   UNL     1       7.153   4.591  15.462  0.00  0.00    +0.000 C 
ATOM      7  O   UNL     1       7.261   6.028  15.716  0.00  0.00    +0.000 OA
ATOM      8  C   UNL     1       6.507   5.940  16.843  0.00  0.00    +0.000 C 
ATOM      9  O   UNL     1       6.008   6.832  17.492  0.00  0.00    +0.000 OA
ATOM     10  C   UNL     1       6.521   4.394  16.858  0.00  0.00    +0.000 C 
ENDBRANCH   1  10
BRANCH   2  11
ATOM     11  C   UNL     1       3.257   2.761  18.081  0.00  0.00    +0.000 C 
BRANCH  11  12
ATOM     12  C   UNL     1       2.184   3.748  17.627  0.00  0.00    +0.000 C 
BRANCH  12  13
ATOM     13  C   UNL     1       2.139   4.971  18.503  0.00  0.00    +0.000 A 
ATOM     14  C   UNL     1       1.740   4.866  19.843  0.00  0.00    +0.000 A 
ATOM     15  C   UNL     1       1.689   5.998  20.654  0.00  0.00    +0.000 A 
ATOM     16  C   UNL     1       2.030   7.245  20.132  0.00  0.00    +0.000 A 
ATOM     17  C   UNL     1       2.421   7.359  18.800  0.00  0.00    +0.000 A 
ATOM     18  C   UNL     1       2.475   6.228  17.986  0.00  0.00    +0.000 A 
ENDBRANCH  12  13
ENDBRANCH  11  12
ENDBRANCH   2  11
TORSDOF 4
ENDMDL
MODEL 6
REMARK VINA RESULT:      -7.0      1.567      1.792
REMARK  Name = 
REMARK  5 active torsions:
REMARK  status: ('A' for Active; 'I' for Inactive)
REMARK    1  A    between atoms: C_1  and  C_2
REMARK    2  A    between atoms: C_6  and  N_7
REMARK    3  A    between atoms: C_8  and  C_10
REMARK    4  A    between atoms: C_10  and  C_11
REMARK    5  A    between atoms: C_11  and  C_12
REMARK                            x       y       z     vdW  Elec       q    Type
REMARK                         _______ _______ _______ _____ _____    ______ ____
ROOT
ATOM      1  N   UNL     1       5.859   4.170  18.074  0.00  0.00    +0.000 N 
ATOM      2  C   UNL     1       5.196   3.621  17.000  0.00  0.00    +0.000 C 
ATOM      3  O   UNL     1       5.650   3.679  15.862  0.00  0.00    +0.000 OA
ATOM      4  H   UNL     1       5.546   3.957  19.013  0.00  0.00    +0.000 HD
ENDROOT
BRANCH   1  10
ATOM      5  C   UNL     1       5.857   7.040  17.112  0.00  0.00    +0.000 C 
ATOM      6  C   UNL     1       7.159   6.272  17.286  0.00  0.00    +0.000 C 
ATOM      7  O   UNL     1       7.870   6.782  18.458  0.00  0.00    +0.000 OA
ATOM      8  C   UNL     1       7.699   5.617  19.136  0.00  0.00    +0.000 C 
ATOM      9  O   UNL     1       7.882   5.390  20.311  0.00  0.00    +0.000 OA
ATOM     10  C   UNL     1       7.165   4.855  17.901  0.00  0.00    +0.000 C 
ENDBRANCH   1  10
BRANCH   2  11
ATOM     11  C   UNL     1       3.905   2.893  17.318  0.00  0.00    +0.000 C 
BRANCH  11  12
ATOM     12  C   UNL     1       2.661   3.754  17.119  0.00  0.00    +0.000 C 
BRANCH  12  13
ATOM     13  C   UNL     1       2.289   4.502  18.371  0.00  0.00    +0.000 A 
ATOM     14  C   UNL     1       2.647   5.849  18.522  0.00  0.00    +0.000 A 
ATOM     15  C   UNL     1       2.313   6.541  19.684  0.00  0.00    +0.000 A 
ATOM     16  C   UNL     1       1.623   5.893  20.706  0.00  0.00    +0.000 A 
ATOM     17  C   UNL     1       1.268   4.554  20.567  0.00  0.00    +0.000 A 
ATOM     18  C   UNL     1       1.601   3.858  19.406  0.00  0.00    +0.000 A 
ENDBRANCH  12  13
ENDBRANCH  11  12
ENDBRANCH   2  11
TORSDOF 4
ENDMDL
MODEL 7
REMARK VINA RESULT:      -7.0      0.602      1.306
REMARK  Name = 
REMARK  5 active torsions:
REMARK  status: ('A' for Active; 'I' for Inactive)
REMARK    1  A    between atoms: C_1  and  C_2
REMARK    2  A    between atoms: C_6  and  N_7
REMARK    3  A    between atoms: C_8  and  C_10
REMARK    4  A    between atoms: C_10  and  C_11
REMARK    5  A    between atoms: C_11  and  C_12
REMARK                            x       y       z     vdW  Elec       q    Type
REMARK                         _______ _______ _______ _____ _____    ______ ____
ROOT
ATOM      1  N   UNL     1       6.052   4.322  17.968  0.00  0.00    +0.000 N 
ATOM      2  C   UNL     1       5.467   3.833  16.822  0.00  0.00    +0.000 C 
ATOM      3  O   UNL     1       6.011   3.932  15.727  0.00  0.00    +0.000 OA
ATOM      4  H   UNL     1       5.662   4.074  18.870  0.00  0.00    +0.000 HD
ENDROOT
BRANCH   1  10
ATOM      5  C   UNL     1       6.164   7.250  17.211  0.00  0.00    +0.000 C 
ATOM      6  C   UNL     1       7.438   6.444  17.415  0.00  0.00    +0.000 C 
ATOM      7  O   UNL     1       8.077   6.857  18.664  0.00  0.00    +0.000 OA
ATOM      8  C   UNL     1       7.841   5.652  19.247  0.00  0.00    +0.000 C 
ATOM      9  O   UNL     1       7.942   5.341  20.412  0.00  0.00    +0.000 OA
ATOM     10  C   UNL     1       7.378   4.988  17.929  0.00  0.00    +0.000 C 
ENDBRANCH   1  10
BRANCH   2  11
ATOM     11  C   UNL     1       4.144   3.116  17.004  0.00  0.00    +0.000 C 
BRANCH  11  12
ATOM     12  C   UNL     1       3.026   4.029  17.504  0.00  0.00    +0.000 C 
BRANCH  12  13
ATOM     13  C   UNL     1       2.554   3.638  18.878  0.00  0.00    +0.000 A 
ATOM     14  C   UNL     1       1.268   3.991  19.309  0.00  0.00    +0.000 A 
ATOM     15  C   UNL     1       0.831   3.638  20.585  0.00  0.00    +0.000 A 
ATOM     16  C   UNL     1       1.676   2.935  21.441  0.00  0.00    +0.000 A 
ATOM     17  C   UNL     1       2.957   2.586  21.023  0.00  0.00    +0.000 A 
ATOM     18  C   UNL     1       3.398   2.936  19.747  0.00  0.00    +0.000 A 
ENDBRANCH  12  13
ENDBRANCH  11  12
ENDBRANCH   2  11
TORSDOF 4
ENDMDL
MODEL 8
REMARK VINA RESULT:      -7.0      1.051      1.402
REMARK  Name = 
REMARK  5 active torsions:
REMARK  status: ('A' for Active; 'I' for Inactive)
REMARK    1  A    between atoms: C_1  and  C_2
REMARK    2  A    between atoms: C_6  and  N_7
REMARK    3  A    between atoms: C_8  and  C_10
REMARK    4  A    between atoms: C_10  and  C_11
REMARK    5  A    between atoms: C_11  and  C_12
REMARK                            x       y       z     vdW  Elec       q    Type
REMARK                         _______ _______ _______ _____ _____    ______ ____
ROOT
ATOM      1  N   UNL     1       6.084   4.261  17.926  0.00  0.00    +0.000 N 
ATOM      2  C   UNL     1       5.537   3.746  16.773  0.00  0.00    +0.000 C 
ATOM      3  O   UNL     1       6.098   3.854  15.687  0.00  0.00    +0.000 OA
ATOM      4  H   UNL     1       5.685   4.006  18.822  0.00  0.00    +0.000 HD
ENDROOT
BRANCH   1  10
ATOM      5  C   UNL     1       6.113   7.194  17.182  0.00  0.00    +0.000 C 
ATOM      6  C   UNL     1       7.409   6.428  17.400  0.00  0.00    +0.000 C 
ATOM      7  O   UNL     1       8.020   6.855  18.658  0.00  0.00    +0.000 OA
ATOM      8  C   UNL     1       7.814   5.641  19.233  0.00  0.00    +0.000 C 
ATOM      9  O   UNL     1       7.910   5.328  20.398  0.00  0.00    +0.000 OA
ATOM     10  C   UNL     1       7.389   4.969  17.907  0.00  0.00    +0.000 C 
ENDBRANCH   1  10
BRANCH   2  11
ATOM     11  C   UNL     1       4.234   2.989  16.936  0.00  0.00    +0.000 C 
BRANCH  11  12
ATOM     12  C   UNL     1       3.002   3.890  16.891  0.00  0.00    +0.000 C 
BRANCH  12  13
ATOM     13  C   UNL     1       2.323   3.981  18.231  0.00  0.00    +0.000 A 
ATOM     14  C   UNL     1       1.461   2.961  18.656  0.00  0.00    +0.000 A 
ATOM     15  C   UNL     1       0.823   3.047  19.893  0.00  0.00    +0.000 A 
ATOM     16  C   UNL     1       1.037   4.154  20.711  0.00  0.00    +0.000 A 
ATOM     17  C   UNL     1       1.888   5.175  20.294  0.00  0.00    +0.000 A 
ATOM     18  C   UNL     1       2.528   5.092  19.057  0.00  0.00    +0.000 A 
ENDBRANCH  12  13
ENDBRANCH  11  12
ENDBRANCH   2  11
TORSDOF 4
ENDMDL
MODEL 9
REMARK VINA RESULT:      -6.9      2.675      6.066
REMARK  Name = 
REMARK  5 active torsions:
REMARK  status: ('A' for Active; 'I' for Inactive)
REMARK    1  A    between atoms: C_1  and  C_2
REMARK    2  A    between atoms: C_6  and  N_7
REMARK    3  A    between atoms: C_8  and  C_10
REMARK    4  A    between atoms: C_10  and  C_11
REMARK    5  A    between atoms: C_11  and  C_12
REMARK                            x       y       z     vdW  Elec       q    Type
REMARK                         _______ _______ _______ _____ _____    ______ ____
ROOT
ATOM      1  N   UNL     1       3.365   3.461  18.998  0.00  0.00    +0.000 N 
ATOM      2  C   UNL     1       3.524   4.215  17.858  0.00  0.00    +0.000 C 
ATOM      3  O   UNL     1       2.896   5.255  17.679  0.00  0.00    +0.000 OA
ATOM      4  H   UNL     1       4.017   2.709  19.191  0.00  0.00    +0.000 HD
ENDROOT
BRANCH   1  10
ATOM      5  C   UNL     1       0.492   2.526  18.831  0.00  0.00    +0.000 C 
ATOM      6  C   UNL     1       0.936   3.505  19.907  0.00  0.00    +0.000 C 
ATOM      7  O   UNL     1       0.966   2.823  21.201  0.00  0.00    +0.000 OA
ATOM      8  C   UNL     1       2.319   2.923  21.283  0.00  0.00    +0.000 C 
ATOM      9  O   UNL     1       3.075   2.369  22.049  0.00  0.00    +0.000 OA
ATOM     10  C   UNL     1       2.427   3.877  20.070  0.00  0.00    +0.000 C 
ENDBRANCH   1  10
BRANCH   2  11
ATOM     11  C   UNL     1       4.559   3.718  16.870  0.00  0.00    +0.000 C 
BRANCH  11  12
ATOM     12  C   UNL     1       5.266   4.844  16.119  0.00  0.00    +0.000 C 
BRANCH  12  13
ATOM     13  C   UNL     1       6.250   5.572  16.994  0.00  0.00    +0.000 A 
ATOM     14  C   UNL     1       6.474   6.944  16.816  0.00  0.00    +0.000 A 
ATOM     15  C   UNL     1       7.391   7.619  17.619  0.00  0.00    +0.000 A 
ATOM     16  C   UNL     1       8.096   6.928  18.603  0.00  0.00    +0.000 A 
ATOM     17  C   UNL     1       7.884   5.564  18.783  0.00  0.00    +0.000 A 
ATOM     18  C   UNL     1       6.967   4.885  17.982  0.00  0.00    +0.000 A 
ENDBRANCH  12  13
ENDBRANCH  11  12
ENDBRANCH   2  11
TORSDOF 4
ENDMDL
