MODEL 1
REMARK VINA RESULT:      -6.8      0.000      0.000
REMARK  Name = 
REMARK  10 active torsions:
REMARK  status: ('A' for Active; 'I' for Inactive)
REMARK    1  A    between atoms: C_2  and  C_3
REMARK    2  A    between atoms: C_3  and  N_4
REMARK    3  A    between atoms: N_4  and  C_5
REMARK    4  A    between atoms: C_5  and  C_6
REMARK    5  A    between atoms: C_6  and  O_7
REMARK    6  A    between atoms: C_6  and  C_8
REMARK    7  A    between atoms: C_8  and  O_9
REMARK    8  A    between atoms: O_9  and  C_10
REMARK    9  A    between atoms: C_16  and  C_17
REMARK   10  A    between atoms: C_23  and  C_24
REMARK                            x       y       z     vdW  Elec       q    Type
REMARK                         _______ _______ _______ _____ _____    ______ ____
ROOT
ATOM      1  C   UNL     1       1.661  10.396  18.575  0.00  0.00    +0.000 A 
ATOM      2  C   UNL     1       0.831   9.769  19.509  0.00  0.00    +0.000 A 
ATOM      3  C   UNL     1       0.991   8.410  19.796  0.00  0.00    +0.000 A 
ATOM      4  C   UNL     1       1.978   7.672  19.142  0.00  0.00    +0.000 A 
ATOM      5  C   UNL     1       2.163   6.244  19.436  0.00  0.00    +0.000 A 
ATOM      6  O   UNL     1       1.470   5.686  20.282  0.00  0.00    +0.000 OA
ATOM      7  C   UNL     1       3.203   5.526  18.652  0.00  0.00    +0.000 A 
ATOM      8  C   UNL     1       3.901   6.239  17.741  0.00  0.00    +0.000 A 
ATOM      9  O   UNL     1       3.755   7.597  17.505  0.00  0.00    +0.000 OA
ATOM     10  C   UNL     1       2.797   8.283  18.202  0.00  0.00    +0.000 A 
ATOM     11  C   UNL     1       2.648   9.646  17.925  0.00  0.00    +0.000 A 
ENDROOT
BRANCH   7  12
ATOM     12  C   UNL     1       3.431   4.086  18.868  0.00  0.00    +0.000 A 
ATOM     13  C   UNL     1       4.462   3.655  19.714  0.00  0.00    +0.000 A 
ATOM     14  C   UNL     1       4.757   2.296  19.828  0.00  0.00    +0.000 A 
ATOM     15  C   UNL     1       4.020   1.359  19.104  0.00  0.00    +0.000 A 
ATOM     16  C   UNL     1       2.973   1.778  18.284  0.00  0.00    +0.000 A 
ATOM     17  C   UNL     1       2.675   3.136  18.170  0.00  0.00    +0.000 A 
ENDBRANCH   7  12
BRANCH   8  18
ATOM     18  C   UNL     1       4.896   5.624  16.846  0.00  0.00    +0.000 A 
ATOM     19  C   UNL     1       4.470   4.756  15.831  0.00  0.00    +0.000 A 
ATOM     20  C   UNL     1       5.399   4.147  14.988  0.00  0.00    +0.000 A 
ATOM     21  C   UNL     1       6.759   4.404  15.150  0.00  0.00    +0.000 A 
ATOM     22  C   UNL     1       7.191   5.268  16.156  0.00  0.00    +0.000 A 
ATOM     23  C   UNL     1       6.263   5.878  17.003  0.00  0.00    +0.000 A 
ENDBRANCH   8  18
BRANCH   1  24
ATOM     24  O   UNL     1       1.600  11.718  18.223  0.00  0.00    +0.000 OA
BRANCH  24  25
ATOM     25  C   UNL     1       1.541  12.662  19.304  0.00  0.00    +0.000 C 
BRANCH  25  26
ATOM     26  C   UNL     1       0.543  13.778  18.968  0.00  0.00    +0.000 C 
BRANCH  26  27
ATOM     27  O   UNL     1       0.688  14.855  19.905  0.00  0.00    +0.000 OA
ATOM     28  H   UNL     1       1.276  14.529  20.610  0.00  0.00    +0.000 HD
ENDBRANCH  26  27
BRANCH  26  29
ATOM     29  C   UNL     1      -0.908  13.262  18.988  0.00  0.00    +0.000 C 
BRANCH  29  30
ATOM     30  N   UNL     1      -1.236  12.603  17.718  0.00  0.00    +0.000 NA
ATOM     31  H   UNL     1      -1.565  13.317  17.063  0.00  0.00    +0.000 HD
BRANCH  30  32
ATOM     32  C   UNL     1      -2.268  11.593  17.909  0.00  0.00    +0.000 C 
BRANCH  32  34
ATOM     33  C   UNL     1      -2.680   9.822  16.185  0.00  0.00    +0.000 C 
ATOM     34  C   UNL     1      -1.912  10.361  17.138  0.00  0.00    +0.000 C 
ENDBRANCH  32  34
ENDBRANCH  30  32
ENDBRANCH  29  30
ENDBRANCH  26  29
ENDBRANCH  25  26
ENDBRANCH  24  25
ENDBRANCH   1  24
TORSDOF 10
ENDMDL
MODEL 2
REMARK VINA RESULT:      -6.7      0.873      1.298
REMARK  Name = 
REMARK  10 active torsions:
REMARK  status: ('A' for Active; 'I' for Inactive)
REMARK    1  A    between atoms: C_2  and  C_3
REMARK    2  A    between atoms: C_3  and  N_4
REMARK    3  A    between atoms: N_4  and  C_5
REMARK    4  A    between atoms: C_5  and  C_6
REMARK    5  A    between atoms: C_6  and  O_7
REMARK    6  A    between atoms: C_6  and  C_8
REMARK    7  A    between atoms: C_8  and  O_9
REMARK    8  A    between atoms: O_9  and  C_10
REMARK    9  A    between atoms: C_16  and  C_17
REMARK   10  A    between atoms: C_23  and  C_24
REMARK                            x       y       z     vdW  Elec       q    Type
REMARK                         _______ _______ _______ _____ _____    ______ ____
ROOT
ATOM      1  C   UNL     1       1.634  10.288  18.553  0.00  0.00    +0.000 A 
ATOM      2  C   UNL     1       0.803   9.599  19.442  0.00  0.00    +0.000 A 
ATOM      3  C   UNL     1       1.005   8.238  19.687  0.00  0.00    +0.000 A 
ATOM      4  C   UNL     1       2.035   7.559  19.035  0.00  0.00    +0.000 A 
ATOM      5  C   UNL     1       2.264   6.129  19.284  0.00  0.00    +0.000 A 
ATOM      6  O   UNL     1       1.571   5.518  20.092  0.00  0.00    +0.000 OA
ATOM      7  C   UNL     1       3.349   5.476  18.505  0.00  0.00    +0.000 A 
ATOM      8  C   UNL     1       4.043   6.245  17.638  0.00  0.00    +0.000 A 
ATOM      9  O   UNL     1       3.854   7.604  17.444  0.00  0.00    +0.000 OA
ATOM     10  C   UNL     1       2.854   8.231  18.138  0.00  0.00    +0.000 A 
ATOM     11  C   UNL     1       2.664   9.596  17.904  0.00  0.00    +0.000 A 
ENDROOT
BRANCH   7  12
ATOM     12  C   UNL     1       3.624   4.038  18.678  0.00  0.00    +0.000 A 
ATOM     13  C   UNL     1       3.071   3.104  17.792  0.00  0.00    +0.000 A 
ATOM     14  C   UNL     1       3.229   1.737  18.022  0.00  0.00    +0.000 A 
ATOM     15  C   UNL     1       3.947   1.295  19.132  0.00  0.00    +0.000 A 
ATOM     16  C   UNL     1       4.526   2.219  20.002  0.00  0.00    +0.000 A 
ATOM     17  C   UNL     1       4.370   3.586  19.773  0.00  0.00    +0.000 A 
ENDBRANCH   7  12
BRANCH   8  18
ATOM     18  C   UNL     1       5.082   5.697  16.749  0.00  0.00    +0.000 A 
ATOM     19  C   UNL     1       4.749   5.336  15.436  0.00  0.00    +0.000 A 
ATOM     20  C   UNL     1       5.714   4.794  14.587  0.00  0.00    +0.000 A 
ATOM     21  C   UNL     1       7.020   4.616  15.042  0.00  0.00    +0.000 A 
ATOM     22  C   UNL     1       7.360   4.975  16.346  0.00  0.00    +0.000 A 
ATOM     23  C   UNL     1       6.394   5.515  17.199  0.00  0.00    +0.000 A 
ENDBRANCH   8  18
BRANCH   1  24
ATOM     24  O   UNL     1       1.533  11.619  18.244  0.00  0.00    +0.000 OA
BRANCH  24  25
ATOM     25  C   UNL     1       0.720  12.415  19.120  0.00  0.00    +0.000 C 
BRANCH  25  26
ATOM     26  C   UNL     1      -0.444  13.031  18.335  0.00  0.00    +0.000 C 
BRANCH  26  27
ATOM     27  O   UNL     1      -0.832  14.274  18.937  0.00  0.00    +0.000 OA
ATOM     28  H   UNL     1      -0.606  14.203  19.883  0.00  0.00    +0.000 HD
ENDBRANCH  26  27
BRANCH  26  29
ATOM     29  C   UNL     1      -1.655  12.079  18.282  0.00  0.00    +0.000 C 
BRANCH  29  30
ATOM     30  N   UNL     1      -1.572  11.209  17.102  0.00  0.00    +0.000 NA
ATOM     31  H   UNL     1      -1.400  11.797  16.283  0.00  0.00    +0.000 HD
BRANCH  30  32
ATOM     32  C   UNL     1      -2.808  10.459  16.924  0.00  0.00    +0.000 C 
BRANCH  32  34
ATOM     33  C   UNL     1      -5.141  11.169  17.499  0.00  0.00    +0.000 C 
ATOM     34  C   UNL     1      -3.968  11.404  16.901  0.00  0.00    +0.000 C 
ENDBRANCH  32  34
ENDBRANCH  30  32
ENDBRANCH  29  30
ENDBRANCH  26  29
ENDBRANCH  25  26
ENDBRANCH  24  25
ENDBRANCH   1  24
TORSDOF 10
ENDMDL
MODEL 3
REMARK VINA RESULT:      -6.7      0.768      1.505
REMARK  Name = 
REMARK  10 active torsions:
REMARK  status: ('A' for Active; 'I' for Inactive)
REMARK    1  A    between atoms: C_2  and  C_3
REMARK    2  A    between atoms: C_3  and  N_4
REMARK    3  A    between atoms: N_4  and  C_5
REMARK    4  A    between atoms: C_5  and  C_6
REMARK    5  A    between atoms: C_6  and  O_7
REMARK    6  A    between atoms: C_6  and  C_8
REMARK    7  A    between atoms: C_8  and  O_9
REMARK    8  A    between atoms: O_9  and  C_10
REMARK    9  A    between atoms: C_16  and  C_17
REMARK   10  A    between atoms: C_23  and  C_24
REMARK                            x       y       z     vdW  Elec       q    Type
REMARK                         _______ _______ _______ _____ _____    ______ ____
ROOT
ATOM      1  C   UNL     1       1.563  10.122  18.806  0.00  0.00    +0.000 A 
ATOM      2  C   UNL     1       0.821   9.419  19.760  0.00  0.00    +0.000 A 
ATOM      3  C   UNL     1       1.075   8.064  19.994  0.00  0.00    +0.000 A 
ATOM      4  C   UNL     1       2.066   7.406  19.265  0.00  0.00    +0.000 A 
ATOM      5  C   UNL     1       2.349   5.983  19.501  0.00  0.00    +0.000 A 
ATOM      6  O   UNL     1       1.736   5.361  20.363  0.00  0.00    +0.000 OA
ATOM      7  C   UNL     1       3.385   5.352  18.641  0.00  0.00    +0.000 A 
ATOM      8  C   UNL     1       3.990   6.132  17.719  0.00  0.00    +0.000 A 
ATOM      9  O   UNL     1       3.754   7.486  17.536  0.00  0.00    +0.000 OA
ATOM     10  C   UNL     1       2.796   8.092  18.304  0.00  0.00    +0.000 A 
ATOM     11  C   UNL     1       2.555   9.451  18.081  0.00  0.00    +0.000 A 
ENDROOT
BRANCH   7  12
ATOM     12  C   UNL     1       3.707   3.922  18.797  0.00  0.00    +0.000 A 
ATOM     13  C   UNL     1       3.091   2.968  17.977  0.00  0.00    +0.000 A 
ATOM     14  C   UNL     1       3.301   1.607  18.201  0.00  0.00    +0.000 A 
ATOM     15  C   UNL     1       4.134   1.191  19.239  0.00  0.00    +0.000 A 
ATOM     16  C   UNL     1       4.775   2.135  20.040  0.00  0.00    +0.000 A 
ATOM     17  C   UNL     1       4.567   3.497  19.818  0.00  0.00    +0.000 A 
ENDBRANCH   7  12
BRANCH   8  18
ATOM     18  C   UNL     1       4.969   5.604  16.753  0.00  0.00    +0.000 A 
ATOM     19  C   UNL     1       6.336   5.834  16.959  0.00  0.00    +0.000 A 
ATOM     20  C   UNL     1       7.276   5.362  16.044  0.00  0.00    +0.000 A 
ATOM     21  C   UNL     1       6.857   4.652  14.919  0.00  0.00    +0.000 A 
ATOM     22  C   UNL     1       5.499   4.418  14.709  0.00  0.00    +0.000 A 
ATOM     23  C   UNL     1       4.555   4.892  15.623  0.00  0.00    +0.000 A 
ENDBRANCH   8  18
BRANCH   1  24
ATOM     24  O   UNL     1       1.406  11.448  18.502  0.00  0.00    +0.000 OA
BRANCH  24  25
ATOM     25  C   UNL     1       0.410  12.160  19.252  0.00  0.00    +0.000 C 
BRANCH  25  26
ATOM     26  C   UNL     1      -0.655  12.723  18.302  0.00  0.00    +0.000 C 
BRANCH  26  27
ATOM     27  O   UNL     1      -0.794  14.135  18.513  0.00  0.00    +0.000 OA
ATOM     28  H   UNL     1      -1.674  14.268  18.911  0.00  0.00    +0.000 HD
ENDBRANCH  26  27
BRANCH  26  29
ATOM     29  C   UNL     1      -2.016  12.030  18.507  0.00  0.00    +0.000 C 
BRANCH  29  30
ATOM     30  N   UNL     1      -1.900  10.588  18.258  0.00  0.00    +0.000 NA
ATOM     31  H   UNL     1      -1.006  10.414  17.792  0.00  0.00    +0.000 HD
BRANCH  30  32
ATOM     32  C   UNL     1      -2.995  10.116  17.422  0.00  0.00    +0.000 C 
BRANCH  32  34
ATOM     33  C   UNL     1      -3.101  10.537  14.954  0.00  0.00    +0.000 C 
ATOM     34  C   UNL     1      -2.517   9.963  16.012  0.00  0.00    +0.000 C 
ENDBRANCH  32  34
ENDBRANCH  30  32
ENDBRANCH  29  30
ENDBRANCH  26  29
ENDBRANCH  25  26
ENDBRANCH  24  25
ENDBRANCH   1  24
TORSDOF 10
ENDMDL
MODEL 4
REMARK VINA RESULT:      -6.6      1.377      1.799
REMARK  Name = 
REMARK  10 active torsions:
REMARK  status: ('A' for Active; 'I' for Inactive)
REMARK    1  A    between atoms: C_2  and  C_3
REMARK    2  A    between atoms: C_3  and  N_4
REMARK    3  A    between atoms: N_4  and  C_5
REMARK    4  A    between atoms: C_5  and  C_6
REMARK    5  A    between atoms: C_6  and  O_7
REMARK    6  A    between atoms: C_6  and  C_8
REMARK    7  A    between atoms: C_8  and  O_9
REMARK    8  A    between atoms: O_9  and  C_10
REMARK    9  A    between atoms: C_16  and  C_17
REMARK   10  A    between atoms: C_23  and  C_24
REMARK                            x       y       z     vdW  Elec       q    Type
REMARK                         _______ _______ _______ _____ _____    ______ ____
ROOT
ATOM      1  C   UNL     1       0.891   9.828  19.903  0.00  0.00    +0.000 A 
ATOM      2  C   UNL     1       0.180   8.961  20.738  0.00  0.00    +0.000 A 
ATOM      3  C   UNL     1       0.525   7.609  20.812  0.00  0.00    +0.000 A 
ATOM      4  C   UNL     1       1.579   7.117  20.041  0.00  0.00    +0.000 A 
ATOM      5  C   UNL     1       1.959   5.699  20.109  0.00  0.00    +0.000 A 
ATOM      6  O   UNL     1       1.372   4.933  20.867  0.00  0.00    +0.000 OA
ATOM      7  C   UNL     1       3.058   5.254  19.212  0.00  0.00    +0.000 A 
ATOM      8  C   UNL     1       3.627   6.183  18.414  0.00  0.00    +0.000 A 
ATOM      9  O   UNL     1       3.298   7.529  18.391  0.00  0.00    +0.000 OA
ATOM     10  C   UNL     1       2.281   7.967  19.196  0.00  0.00    +0.000 A 
ATOM     11  C   UNL     1       1.947   9.323  19.134  0.00  0.00    +0.000 A 
ENDROOT
BRANCH   7  12
ATOM     12  C   UNL     1       3.480   3.841  19.202  0.00  0.00    +0.000 A 
ATOM     13  C   UNL     1       2.845   2.923  18.354  0.00  0.00    +0.000 A 
ATOM     14  C   UNL     1       3.158   1.565  18.428  0.00  0.00    +0.000 A 
ATOM     15  C   UNL     1       4.111   1.117  19.341  0.00  0.00    +0.000 A 
ATOM     16  C   UNL     1       4.769   2.028  20.167  0.00  0.00    +0.000 A 
ATOM     17  C   UNL     1       4.459   3.387  20.095  0.00  0.00    +0.000 A 
ENDBRANCH   7  12
BRANCH   8  18
ATOM     18  C   UNL     1       4.665   5.849  17.424  0.00  0.00    +0.000 A 
ATOM     19  C   UNL     1       4.321   5.106  16.286  0.00  0.00    +0.000 A 
ATOM     20  C   UNL     1       5.294   4.761  15.348  0.00  0.00    +0.000 A 
ATOM     21  C   UNL     1       6.617   5.160  15.539  0.00  0.00    +0.000 A 
ATOM     22  C   UNL     1       6.966   5.901  16.667  0.00  0.00    +0.000 A 
ATOM     23  C   UNL     1       5.994   6.246  17.609  0.00  0.00    +0.000 A 
ENDBRANCH   8  18
BRANCH   1  24
ATOM     24  O   UNL     1       0.646  11.168  19.759  0.00  0.00    +0.000 OA
BRANCH  24  25
ATOM     25  C   UNL     1      -0.732  11.571  19.801  0.00  0.00    +0.000 C 
BRANCH  25  26
ATOM     26  C   UNL     1      -1.330  11.529  18.389  0.00  0.00    +0.000 C 
BRANCH  26  27
ATOM     27  O   UNL     1      -1.133  12.794  17.742  0.00  0.00    +0.000 OA
ATOM     28  H   UNL     1      -0.171  12.948  17.727  0.00  0.00    +0.000 HD
ENDBRANCH  26  27
BRANCH  26  29
ATOM     29  C   UNL     1      -2.833  11.191  18.425  0.00  0.00    +0.000 C 
BRANCH  29  30
ATOM     30  N   UNL     1      -3.559  11.973  17.416  0.00  0.00    +0.000 NA
ATOM     31  H   UNL     1      -4.288  12.510  17.891  0.00  0.00    +0.000 HD
BRANCH  30  32
ATOM     32  C   UNL     1      -4.159  11.100  16.416  0.00  0.00    +0.000 C 
BRANCH  32  34
ATOM     33  C   UNL     1      -3.143   9.915  14.456  0.00  0.00    +0.000 C 
ATOM     34  C   UNL     1      -3.251  11.000  15.230  0.00  0.00    +0.000 C 
ENDBRANCH  32  34
ENDBRANCH  30  32
ENDBRANCH  29  30
ENDBRANCH  26  29
ENDBRANCH  25  26
ENDBRANCH  24  25
ENDBRANCH   1  24
TORSDOF 10
ENDMDL
MODEL 5
REMARK VINA RESULT:      -6.5      3.017      8.975
REMARK  Name = 
REMARK  10 active torsions:
REMARK  status: ('A' for Active; 'I' for Inactive)
REMARK    1  A    between atoms: C_2  and  C_3
REMARK    2  A    between atoms: C_3  and  N_4
REMARK    3  A    between atoms: N_4  and  C_5
REMARK    4  A    between atoms: C_5  and  C_6
REMARK    5  A    between atoms: C_6  and  O_7
REMARK    6  A    between atoms: C_6  and  C_8
REMARK    7  A    between atoms: C_8  and  O_9
REMARK    8  A    between atoms: O_9  and  C_10
REMARK    9  A    between atoms: C_16  and  C_17
REMARK   10  A    between atoms: C_23  and  C_24
REMARK                            x       y       z     vdW  Elec       q    Type
REMARK                         _______ _______ _______ _____ _____    ______ ____
ROOT
ATOM      1  C   UNL     1       3.846   5.259  18.976  0.00  0.00    +0.000 A 
ATOM      2  C   UNL     1       3.997   5.784  17.689  0.00  0.00    +0.000 A 
ATOM      3  C   UNL     1       3.435   7.021  17.361  0.00  0.00    +0.000 A 
ATOM      4  C   UNL     1       2.711   7.733  18.319  0.00  0.00    +0.000 A 
ATOM      5  C   UNL     1       2.118   9.037  17.992  0.00  0.00    +0.000 A 
ATOM      6  O   UNL     1       2.275   9.532  16.881  0.00  0.00    +0.000 OA
ATOM      7  C   UNL     1       1.318   9.697  19.058  0.00  0.00    +0.000 A 
ATOM      8  C   UNL     1       1.206   9.056  20.242  0.00  0.00    +0.000 A 
ATOM      9  O   UNL     1       1.810   7.850  20.559  0.00  0.00    +0.000 OA
ATOM     10  C   UNL     1       2.542   7.211  19.594  0.00  0.00    +0.000 A 
ATOM     11  C   UNL     1       3.118   5.981  19.929  0.00  0.00    +0.000 A 
ENDROOT
BRANCH   7  12
ATOM     12  C   UNL     1       0.668  10.995  18.800  0.00  0.00    +0.000 A 
ATOM     13  C   UNL     1      -0.639  11.040  18.296  0.00  0.00    +0.000 A 
ATOM     14  C   UNL     1      -1.213  12.260  17.938  0.00  0.00    +0.000 A 
ATOM     15  C   UNL     1      -0.490  13.442  18.088  0.00  0.00    +0.000 A 
ATOM     16  C   UNL     1       0.800  13.409  18.618  0.00  0.00    +0.000 A 
ATOM     17  C   UNL     1       1.376  12.190  18.978  0.00  0.00    +0.000 A 
ENDBRANCH   7  12
BRANCH   8  18
ATOM     18  C   UNL     1       0.373   9.566  21.344  0.00  0.00    +0.000 A 
ATOM     19  C   UNL     1      -0.475  10.660  21.121  0.00  0.00    +0.000 A 
ATOM     20  C   UNL     1      -1.254  11.172  22.159  0.00  0.00    +0.000 A 
ATOM     21  C   UNL     1      -1.195  10.590  23.424  0.00  0.00    +0.000 A 
ATOM     22  C   UNL     1      -0.356   9.501  23.654  0.00  0.00    +0.000 A 
ATOM     23  C   UNL     1       0.427   8.988  22.617  0.00  0.00    +0.000 A 
ENDBRANCH   8  18
BRANCH   1  24
ATOM     24  O   UNL     1       4.358   4.064  19.409  0.00  0.00    +0.000 OA
BRANCH  24  25
ATOM     25  C   UNL     1       4.536   3.049  18.409  0.00  0.00    +0.000 C 
BRANCH  25  26
ATOM     26  C   UNL     1       3.545   1.902  18.649  0.00  0.00    +0.000 C 
BRANCH  26  27
ATOM     27  O   UNL     1       4.146   0.655  18.271  0.00  0.00    +0.000 OA
ATOM     28  H   UNL     1       4.373   0.735  17.326  0.00  0.00    +0.000 HD
ENDBRANCH  26  27
BRANCH  26  29
ATOM     29  C   UNL     1       2.239   2.111  17.858  0.00  0.00    +0.000 C 
BRANCH  29  30
ATOM     30  N   UNL     1       1.075   1.956  18.739  0.00  0.00    +0.000 NA
ATOM     31  H   UNL     1       0.250   1.804  18.154  0.00  0.00    +0.000 HD
BRANCH  30  32
ATOM     32  C   UNL     1       0.887   3.141  19.563  0.00  0.00    +0.000 C 
BRANCH  32  34
ATOM     33  C   UNL     1       2.060   3.100  21.777  0.00  0.00    +0.000 C 
ATOM     34  C   UNL     1       1.016   2.772  21.008  0.00  0.00    +0.000 C 
ENDBRANCH  32  34
ENDBRANCH  30  32
ENDBRANCH  29  30
ENDBRANCH  26  29
ENDBRANCH  25  26
ENDBRANCH  24  25
ENDBRANCH   1  24
TORSDOF 10
ENDMDL
MODEL 6
REMARK VINA RESULT:      -6.5      1.411      2.126
REMARK  Name = 
REMARK  10 active torsions:
REMARK  status: ('A' for Active; 'I' for Inactive)
REMARK    1  A    between atoms: C_2  and  C_3
REMARK    2  A    between atoms: C_3  and  N_4
REMARK    3  A    between atoms: N_4  and  C_5
REMARK    4  A    between atoms: C_5  and  C_6
REMARK    5  A    between atoms: C_6  and  O_7
REMARK    6  A    between atoms: C_6  and  C_8
REMARK    7  A    between atoms: C_8  and  O_9
REMARK    8  A    between atoms: O_9  and  C_10
REMARK    9  A    between atoms: C_16  and  C_17
REMARK   10  A    between atoms: C_23  and  C_24
REMARK                            x       y       z     vdW  Elec       q    Type
REMARK                         _______ _______ _______ _____ _____    ______ ____
ROOT
ATOM      1  C   UNL     1       1.616  10.243  18.578  0.00  0.00    +0.000 A 
ATOM      2  C   UNL     1       0.817   9.556  19.496  0.00  0.00    +0.000 A 
ATOM      3  C   UNL     1       1.038   8.199  19.748  0.00  0.00    +0.000 A 
ATOM      4  C   UNL     1       2.055   7.523  19.073  0.00  0.00    +0.000 A 
ATOM      5  C   UNL     1       2.305   6.097  19.328  0.00  0.00    +0.000 A 
ATOM      6  O   UNL     1       1.640   5.487  20.161  0.00  0.00    +0.000 OA
ATOM      7  C   UNL     1       3.372   5.447  18.523  0.00  0.00    +0.000 A 
ATOM      8  C   UNL     1       4.035   6.213  17.630  0.00  0.00    +0.000 A 
ATOM      9  O   UNL     1       3.828   7.569  17.430  0.00  0.00    +0.000 OA
ATOM     10  C   UNL     1       2.843   8.193  18.146  0.00  0.00    +0.000 A 
ATOM     11  C   UNL     1       2.633   9.555  17.906  0.00  0.00    +0.000 A 
ENDROOT
BRANCH   7  12
ATOM     12  C   UNL     1       3.665   4.012  18.702  0.00  0.00    +0.000 A 
ATOM     13  C   UNL     1       3.072   3.063  17.858  0.00  0.00    +0.000 A 
ATOM     14  C   UNL     1       3.251   1.700  18.098  0.00  0.00    +0.000 A 
ATOM     15  C   UNL     1       4.029   1.278  19.176  0.00  0.00    +0.000 A 
ATOM     16  C   UNL     1       4.646   2.217  20.001  0.00  0.00    +0.000 A 
ATOM     17  C   UNL     1       4.470   3.580  19.763  0.00  0.00    +0.000 A 
ENDBRANCH   7  12
BRANCH   8  18
ATOM     18  C   UNL     1       5.053   5.666  16.717  0.00  0.00    +0.000 A 
ATOM     19  C   UNL     1       4.666   5.189  15.457  0.00  0.00    +0.000 A 
ATOM     20  C   UNL     1       5.612   4.647  14.587  0.00  0.00    +0.000 A 
ATOM     21  C   UNL     1       6.952   4.583  14.969  0.00  0.00    +0.000 A 
ATOM     22  C   UNL     1       7.344   5.057  16.220  0.00  0.00    +0.000 A 
ATOM     23  C   UNL     1       6.398   5.599  17.094  0.00  0.00    +0.000 A 
ENDBRANCH   8  18
BRANCH   1  24
ATOM     24  O   UNL     1       1.495  11.571  18.260  0.00  0.00    +0.000 OA
BRANCH  24  25
ATOM     25  C   UNL     1       0.755  12.381  19.187  0.00  0.00    +0.000 C 
BRANCH  25  26
ATOM     26  C   UNL     1      -0.556  12.848  18.540  0.00  0.00    +0.000 C 
BRANCH  26  27
ATOM     27  O   UNL     1      -0.579  14.281  18.472  0.00  0.00    +0.000 OA
ATOM     28  H   UNL     1       0.139  14.538  17.864  0.00  0.00    +0.000 HD
ENDBRANCH  26  27
BRANCH  26  29
ATOM     29  C   UNL     1      -1.782  12.344  19.326  0.00  0.00    +0.000 C 
BRANCH  29  30
ATOM     30  N   UNL     1      -1.367  11.768  20.611  0.00  0.00    +0.000 NA
ATOM     31  H   UNL     1      -1.570  10.766  20.592  0.00  0.00    +0.000 HD
BRANCH  30  32
ATOM     32  C   UNL     1      -2.077  12.398  21.715  0.00  0.00    +0.000 C 
BRANCH  32  34
ATOM     33  C   UNL     1      -0.961  10.615  23.076  0.00  0.00    +0.000 C 
ATOM     34  C   UNL     1      -1.822  11.634  22.976  0.00  0.00    +0.000 C 
ENDBRANCH  32  34
ENDBRANCH  30  32
ENDBRANCH  29  30
ENDBRANCH  26  29
ENDBRANCH  25  26
ENDBRANCH  24  25
ENDBRANCH   1  24
TORSDOF 10
ENDMDL
MODEL 7
REMARK VINA RESULT:      -6.5      1.263      1.706
REMARK  Name = 
REMARK  10 active torsions:
REMARK  status: ('A' for Active; 'I' for Inactive)
REMARK    1  A    between atoms: C_2  and  C_3
REMARK    2  A    between atoms: C_3  and  N_4
REMARK    3  A    between atoms: N_4  and  C_5
REMARK    4  A    between atoms: C_5  and  C_6
REMARK    5  A    between atoms: C_6  and  O_7
REMARK    6  A    between atoms: C_6  and  C_8
REMARK    7  A    between atoms: C_8  and  O_9
REMARK    8  A    between atoms: O_9  and  C_10
REMARK    9  A    between atoms: C_16  and  C_17
REMARK   10  A    between atoms: C_23  and  C_24
REMARK                            x       y       z     vdW  Elec       q    Type
REMARK                         _______ _______ _______ _____ _____    ______ ____
ROOT
ATOM      1  C   UNL     1       0.841   9.747  20.244  0.00  0.00    +0.000 A 
ATOM      2  C   UNL     1       0.061   8.845  20.973  0.00  0.00    +0.000 A 
ATOM      3  C   UNL     1       0.369   7.482  20.969  0.00  0.00    +0.000 A 
ATOM      4  C   UNL     1       1.454   7.016  20.227  0.00  0.00    +0.000 A 
ATOM      5  C   UNL     1       1.795   5.586  20.215  0.00  0.00    +0.000 A 
ATOM      6  O   UNL     1       1.146   4.785  20.882  0.00  0.00    +0.000 OA
ATOM      7  C   UNL     1       2.934   5.173  19.353  0.00  0.00    +0.000 A 
ATOM      8  C   UNL     1       3.572   6.139  18.657  0.00  0.00    +0.000 A 
ATOM      9  O   UNL     1       3.277   7.493  18.712  0.00  0.00    +0.000 OA
ATOM     10  C   UNL     1       2.225   7.902  19.486  0.00  0.00    +0.000 A 
ATOM     11  C   UNL     1       1.928   9.268  19.503  0.00  0.00    +0.000 A 
ENDROOT
BRANCH   7  12
ATOM     12  C   UNL     1       3.321   3.753  19.266  0.00  0.00    +0.000 A 
ATOM     13  C   UNL     1       4.204   3.205  20.206  0.00  0.00    +0.000 A 
ATOM     14  C   UNL     1       4.665   1.897  20.058  0.00  0.00    +0.000 A 
ATOM     15  C   UNL     1       4.241   1.125  18.976  0.00  0.00    +0.000 A 
ATOM     16  C   UNL     1       3.339   1.654  18.054  0.00  0.00    +0.000 A 
ATOM     17  C   UNL     1       2.875   2.961  18.200  0.00  0.00    +0.000 A 
ENDBRANCH   7  12
BRANCH   8  18
ATOM     18  C   UNL     1       4.658   5.846  17.707  0.00  0.00    +0.000 A 
ATOM     19  C   UNL     1       5.986   5.838  18.155  0.00  0.00    +0.000 A 
ATOM     20  C   UNL     1       7.029   5.586  17.265  0.00  0.00    +0.000 A 
ATOM     21  C   UNL     1       6.753   5.333  15.922  0.00  0.00    +0.000 A 
ATOM     22  C   UNL     1       5.434   5.337  15.469  0.00  0.00    +0.000 A 
ATOM     23  C   UNL     1       4.387   5.592  16.358  0.00  0.00    +0.000 A 
ENDBRANCH   8  18
BRANCH   1  24
ATOM     24  O   UNL     1       0.638  11.101  20.182  0.00  0.00    +0.000 OA
BRANCH  24  25
ATOM     25  C   UNL     1      -0.729  11.540  20.210  0.00  0.00    +0.000 C 
BRANCH  25  26
ATOM     26  C   UNL     1      -0.958  12.601  19.125  0.00  0.00    +0.000 C 
BRANCH  26  27
ATOM     27  O   UNL     1      -1.772  13.660  19.648  0.00  0.00    +0.000 OA
ATOM     28  H   UNL     1      -2.698  13.406  19.477  0.00  0.00    +0.000 HD
ENDBRANCH  26  27
BRANCH  26  29
ATOM     29  C   UNL     1      -1.631  11.994  17.879  0.00  0.00    +0.000 C 
BRANCH  29  30
ATOM     30  N   UNL     1      -1.118  10.642  17.626  0.00  0.00    +0.000 NA
ATOM     31  H   UNL     1      -0.264  10.723  17.069  0.00  0.00    +0.000 HD
BRANCH  30  32
ATOM     32  C   UNL     1      -2.102   9.841  16.910  0.00  0.00    +0.000 C 
BRANCH  32  34
ATOM     33  C   UNL     1      -3.164  10.240  14.676  0.00  0.00    +0.000 C 
ATOM     34  C   UNL     1      -2.780  10.685  15.877  0.00  0.00    +0.000 C 
ENDBRANCH  32  34
ENDBRANCH  30  32
ENDBRANCH  29  30
ENDBRANCH  26  29
ENDBRANCH  25  26
ENDBRANCH  24  25
ENDBRANCH   1  24
TORSDOF 10
ENDMDL
MODEL 8
REMARK VINA RESULT:      -6.5      1.549      2.042
REMARK  Name = 
REMARK  10 active torsions:
REMARK  status: ('A' for Active; 'I' for Inactive)
REMARK    1  A    between atoms: C_2  and  C_3
REMARK    2  A    between atoms: C_3  and  N_4
REMARK    3  A    between atoms: N_4  and  C_5
REMARK    4  A    between atoms: C_5  and  C_6
REMARK    5  A    between atoms: C_6  and  O_7
REMARK    6  A    between atoms: C_6  and  C_8
REMARK    7  A    between atoms: C_8  and  O_9
REMARK    8  A    between atoms: O_9  and  C_10
REMARK    9  A    between atoms: C_16  and  C_17
REMARK   10  A    between atoms: C_23  and  C_24
REMARK                            x       y       z     vdW  Elec       q    Type
REMARK                         _______ _______ _______ _____ _____    ______ ____
ROOT
ATOM      1  C   UNL     1       0.677   9.540  20.879  0.00  0.00    +0.000 A 
ATOM      2  C   UNL     1      -0.132   8.560  21.462  0.00  0.00    +0.000 A 
ATOM      3  C   UNL     1       0.168   7.205  21.295  0.00  0.00    +0.000 A 
ATOM      4  C   UNL     1       1.275   6.827  20.535  0.00  0.00    +0.000 A 
ATOM      5  C   UNL     1       1.609   5.406  20.352  0.00  0.00    +0.000 A 
ATOM      6  O   UNL     1       0.934   4.534  20.890  0.00  0.00    +0.000 OA
ATOM      7  C   UNL     1       2.773   5.096  19.482  0.00  0.00    +0.000 A 
ATOM      8  C   UNL     1       3.439   6.137  18.935  0.00  0.00    +0.000 A 
ATOM      9  O   UNL     1       3.149   7.475  19.152  0.00  0.00    +0.000 OA
ATOM     10  C   UNL     1       2.074   7.792  19.938  0.00  0.00    +0.000 A 
ATOM     11  C   UNL     1       1.785   9.148  20.118  0.00  0.00    +0.000 A 
ENDROOT
BRANCH   7  12
ATOM     12  C   UNL     1       3.155   3.695  19.227  0.00  0.00    +0.000 A 
ATOM     13  C   UNL     1       4.022   3.031  20.105  0.00  0.00    +0.000 A 
ATOM     14  C   UNL     1       4.480   1.748  19.804  0.00  0.00    +0.000 A 
ATOM     15  C   UNL     1       4.069   1.117  18.631  0.00  0.00    +0.000 A 
ATOM     16  C   UNL     1       3.182   1.759  17.768  0.00  0.00    +0.000 A 
ATOM     17  C   UNL     1       2.721   3.042  18.066  0.00  0.00    +0.000 A 
ENDBRANCH   7  12
BRANCH   8  18
ATOM     18  C   UNL     1       4.554   5.956  17.990  0.00  0.00    +0.000 A 
ATOM     19  C   UNL     1       5.841   5.698  18.481  0.00  0.00    +0.000 A 
ATOM     20  C   UNL     1       6.914   5.547  17.603  0.00  0.00    +0.000 A 
ATOM     21  C   UNL     1       6.707   5.647  16.228  0.00  0.00    +0.000 A 
ATOM     22  C   UNL     1       5.429   5.902  15.731  0.00  0.00    +0.000 A 
ATOM     23  C   UNL     1       4.353   6.056  16.609  0.00  0.00    +0.000 A 
ENDBRANCH   8  18
BRANCH   1  24
ATOM     24  O   UNL     1       0.482  10.892  20.984  0.00  0.00    +0.000 OA
BRANCH  24  25
ATOM     25  C   UNL     1       0.324  11.609  19.750  0.00  0.00    +0.000 C 
BRANCH  25  26
ATOM     26  C   UNL     1      -0.807  10.982  18.924  0.00  0.00    +0.000 C 
BRANCH  26  27
ATOM     27  O   UNL     1      -0.285  10.495  17.679  0.00  0.00    +0.000 OA
ATOM     28  H   UNL     1       0.180  11.245  17.264  0.00  0.00    +0.000 HD
ENDBRANCH  26  27
BRANCH  26  29
ATOM     29  C   UNL     1      -1.936  11.995  18.654  0.00  0.00    +0.000 C 
BRANCH  29  30
ATOM     30  N   UNL     1      -2.287  12.005  17.228  0.00  0.00    +0.000 NA
ATOM     31  H   UNL     1      -2.324  12.978  16.915  0.00  0.00    +0.000 HD
BRANCH  30  32
ATOM     32  C   UNL     1      -3.575  11.363  17.008  0.00  0.00    +0.000 C 
BRANCH  32  34
ATOM     33  C   UNL     1      -2.956  10.105  14.930  0.00  0.00    +0.000 C 
ATOM     34  C   UNL     1      -3.382  10.119  16.198  0.00  0.00    +0.000 C 
ENDBRANCH  32  34
ENDBRANCH  30  32
ENDBRANCH  29  30
ENDBRANCH  26  29
ENDBRANCH  25  26
ENDBRANCH  24  25
ENDBRANCH   1  24
TORSDOF 10
ENDMDL
MODEL 9
REMARK VINA RESULT:      -6.5      1.838      3.888
REMARK  Name = 
REMARK  10 active torsions:
REMARK  status: ('A' for Active; 'I' for Inactive)
REMARK    1  A    between atoms: C_2  and  C_3
REMARK    2  A    between atoms: C_3  and  N_4
REMARK    3  A    between atoms: N_4  and  C_5
REMARK    4  A    between atoms: C_5  and  C_6
REMARK    5  A    between atoms: C_6  and  O_7
REMARK    6  A    between atoms: C_6  and  C_8
REMARK    7  A    between atoms: C_8  and  O_9
REMARK    8  A    between atoms: O_9  and  C_10
REMARK    9  A    between atoms: C_16  and  C_17
REMARK   10  A    between atoms: C_23  and  C_24
REMARK                            x       y       z     vdW  Elec       q    Type
REMARK                         _______ _______ _______ _____ _____    ______ ____
ROOT
ATOM      1  C   UNL     1       0.509  10.968  20.137  0.00  0.00    +0.000 A 
ATOM      2  C   UNL     1       1.316  11.339  19.057  0.00  0.00    +0.000 A 
ATOM      3  C   UNL     1       2.057  10.377  18.366  0.00  0.00    +0.000 A 
ATOM      4  C   UNL     1       2.001   9.040  18.761  0.00  0.00    +0.000 A 
ATOM      5  C   UNL     1       2.771   8.014  18.043  0.00  0.00    +0.000 A 
ATOM      6  O   UNL     1       3.452   8.315  17.067  0.00  0.00    +0.000 OA
ATOM      7  C   UNL     1       2.692   6.625  18.567  0.00  0.00    +0.000 A 
ATOM      8  C   UNL     1       1.917   6.410  19.652  0.00  0.00    +0.000 A 
ATOM      9  O   UNL     1       1.154   7.373  20.294  0.00  0.00    +0.000 OA
ATOM     10  C   UNL     1       1.216   8.665  19.843  0.00  0.00    +0.000 A 
ATOM     11  C   UNL     1       0.461   9.624  20.524  0.00  0.00    +0.000 A 
ENDROOT
BRANCH   7  12
ATOM     12  C   UNL     1       3.457   5.544  17.919  0.00  0.00    +0.000 A 
ATOM     13  C   UNL     1       4.850   5.643  17.795  0.00  0.00    +0.000 A 
ATOM     14  C   UNL     1       5.562   4.681  17.077  0.00  0.00    +0.000 A 
ATOM     15  C   UNL     1       4.890   3.612  16.487  0.00  0.00    +0.000 A 
ATOM     16  C   UNL     1       3.508   3.490  16.632  0.00  0.00    +0.000 A 
ATOM     17  C   UNL     1       2.794   4.449  17.350  0.00  0.00    +0.000 A 
ENDBRANCH   7  12
BRANCH   8  18
ATOM     18  C   UNL     1       1.825   5.098  20.314  0.00  0.00    +0.000 A 
ATOM     19  C   UNL     1       2.849   4.686  21.178  0.00  0.00    +0.000 A 
ATOM     20  C   UNL     1       2.791   3.437  21.796  0.00  0.00    +0.000 A 
ATOM     21  C   UNL     1       1.706   2.594  21.560  0.00  0.00    +0.000 A 
ATOM     22  C   UNL     1       0.682   2.997  20.704  0.00  0.00    +0.000 A 
ATOM     23  C   UNL     1       0.739   4.247  20.081  0.00  0.00    +0.000 A 
ENDBRANCH   8  18
BRANCH   1  24
ATOM     24  O   UNL     1      -0.264  11.823  20.879  0.00  0.00    +0.000 OA
BRANCH  24  25
ATOM     25  C   UNL     1      -1.684  11.722  20.689  0.00  0.00    +0.000 C 
BRANCH  25  26
ATOM     26  C   UNL     1      -2.119  12.619  19.523  0.00  0.00    +0.000 C 
BRANCH  26  27
ATOM     27  O   UNL     1      -2.993  13.649  20.005  0.00  0.00    +0.000 OA
ATOM     28  H   UNL     1      -3.105  14.281  19.270  0.00  0.00    +0.000 HD
ENDBRANCH  26  27
BRANCH  26  29
ATOM     29  C   UNL     1      -2.829  11.807  18.422  0.00  0.00    +0.000 C 
BRANCH  29  30
ATOM     30  N   UNL     1      -1.980  11.710  17.228  0.00  0.00    +0.000 NA
ATOM     31  H   UNL     1      -2.170  12.521  16.635  0.00  0.00    +0.000 HD
BRANCH  30  32
ATOM     32  C   UNL     1      -2.257  10.483  16.494  0.00  0.00    +0.000 C 
BRANCH  32  34
ATOM     33  C   UNL     1      -3.313   9.929  14.290  0.00  0.00    +0.000 C 
ATOM     34  C   UNL     1      -3.059  10.802  15.271  0.00  0.00    +0.000 C 
ENDBRANCH  32  34
ENDBRANCH  30  32
ENDBRANCH  29  30
ENDBRANCH  26  29
ENDBRANCH  25  26
ENDBRANCH  24  25
ENDBRANCH   1  24
TORSDOF 10
ENDMDL
