MODEL 1
REMARK VINA RESULT:      -6.9      0.000      0.000
REMARK  Name = 
REMARK  5 active torsions:
REMARK  status: ('A' for Active; 'I' for Inactive)
REMARK    1  A    between atoms: C_1  and  C_2
REMARK    2  A    between atoms: C_2  and  C_3
REMARK    3  A    between atoms: C_2  and  N_10
REMARK    4  A    between atoms: C_17  and  C_18
REMARK    5  A    between atoms: C_18  and  C_19
REMARK                            x       y       z     vdW  Elec       q    Type
REMARK                         _______ _______ _______ _____ _____    ______ ____
ROOT
ATOM      1  N   UNL     1       2.864   6.752  18.910  0.00  0.00    +0.000 NA
ATOM      2  C   UNL     1       2.275   5.870  19.912  0.00  0.00    +0.000 C 
ATOM      3  C   UNL     1       1.947   4.603  19.213  0.00  0.00    +0.000 A 
ATOM      4  C   UNL     1       0.886   3.743  19.394  0.00  0.00    +0.000 A 
ATOM      5  N   UNL     1       0.891   2.760  18.447  0.00  0.00    +0.000 NA
ATOM      6  C   UNL     1       1.933   3.010  17.691  0.00  0.00    +0.000 A 
ATOM      7  N   UNL     1       2.659   4.072  18.158  0.00  0.00    +0.000 N 
ATOM      8  C   UNL     1       3.814   4.671  17.489  0.00  0.00    +0.000 C 
ATOM      9  S   UNL     1       4.337   6.236  18.293  0.00  0.00    +0.000 S 
ATOM     10  O   UNL     1       4.748   7.162  17.259  0.00  0.00    +0.000 OA
ATOM     11  O   UNL     1       5.207   5.945  19.414  0.00  0.00    +0.000 OA
ENDROOT
BRANCH   1  13
ATOM     12  C   UNL     1       1.763   8.328  17.390  0.00  0.00    +0.000 C 
ATOM     13  C   UNL     1       2.392   8.146  18.781  0.00  0.00    +0.000 C 
BRANCH  13  14
ATOM     14  C   UNL     1       1.489   8.567  19.934  0.00  0.00    +0.000 A 
ATOM     15  C   UNL     1       1.789   8.285  21.279  0.00  0.00    +0.000 A 
ATOM     16  C   UNL     1       1.013   8.813  22.312  0.00  0.00    +0.000 A 
ATOM     17  C   UNL     1      -0.086   9.611  22.012  0.00  0.00    +0.000 A 
ATOM     18 CL   UNL     1      -0.993  10.321  23.289  0.00  0.00    +0.000 Cl
ATOM     19  C   UNL     1      -0.437   9.854  20.689  0.00  0.00    +0.000 A 
ATOM     20  C   UNL     1       0.347   9.338  19.653  0.00  0.00    +0.000 A 
ENDBRANCH  13  14
ENDBRANCH   1  13
BRANCH   8  21
ATOM     21  C   UNL     1       5.055   3.767  17.333  0.00  0.00    +0.000 C 
BRANCH  21  22
ATOM     22  C   UNL     1       5.650   3.698  15.948  0.00  0.00    +0.000 C 
ATOM     23  C   UNL     1       5.504   4.811  14.937  0.00  0.00    +0.000 C 
ATOM     24  C   UNL     1       6.835   4.561  15.583  0.00  0.00    +0.000 C 
ENDBRANCH  21  22
ENDBRANCH   8  21
TORSDOF 4
ENDMDL
MODEL 2
REMARK VINA RESULT:      -6.8      3.120      6.087
REMARK  Name = 
REMARK  5 active torsions:
REMARK  status: ('A' for Active; 'I' for Inactive)
REMARK    1  A    between atoms: C_1  and  C_2
REMARK    2  A    between atoms: C_2  and  C_3
REMARK    3  A    between atoms: C_2  and  N_10
REMARK    4  A    between atoms: C_17  and  C_18
REMARK    5  A    between atoms: C_18  and  C_19
REMARK                            x       y       z     vdW  Elec       q    Type
REMARK                         _______ _______ _______ _____ _____    ______ ____
ROOT
ATOM      1  N   UNL     1       3.745   4.155  17.971  0.00  0.00    +0.000 NA
ATOM      2  C   UNL     1       2.990   2.963  18.341  0.00  0.00    +0.000 C 
ATOM      3  C   UNL     1       2.745   3.059  19.801  0.00  0.00    +0.000 A 
ATOM      4  C   UNL     1       2.705   2.069  20.758  0.00  0.00    +0.000 A 
ATOM      5  N   UNL     1       2.582   2.605  22.007  0.00  0.00    +0.000 NA
ATOM      6  C   UNL     1       2.551   3.904  21.827  0.00  0.00    +0.000 A 
ATOM      7  N   UNL     1       2.566   4.236  20.499  0.00  0.00    +0.000 N 
ATOM      8  C   UNL     1       2.647   5.595  19.964  0.00  0.00    +0.000 C 
ATOM      9  S   UNL     1       2.914   5.602  18.148  0.00  0.00    +0.000 S 
ATOM     10  O   UNL     1       3.816   6.688  17.827  0.00  0.00    +0.000 OA
ATOM     11  O   UNL     1       1.644   5.468  17.464  0.00  0.00    +0.000 OA
ENDROOT
BRANCH   1  13
ATOM     12  C   UNL     1       4.556   4.071  15.659  0.00  0.00    +0.000 C 
ATOM     13  C   UNL     1       4.962   4.033  17.141  0.00  0.00    +0.000 C 
BRANCH  13  14
ATOM     14  C   UNL     1       6.034   5.048  17.521  0.00  0.00    +0.000 A 
ATOM     15  C   UNL     1       6.472   6.056  16.645  0.00  0.00    +0.000 A 
ATOM     16  C   UNL     1       7.348   7.053  17.080  0.00  0.00    +0.000 A 
ATOM     17  C   UNL     1       7.813   7.039  18.390  0.00  0.00    +0.000 A 
ATOM     18 CL   UNL     1       8.830   8.311  18.943  0.00  0.00    +0.000 Cl
ATOM     19  C   UNL     1       7.440   6.018  19.258  0.00  0.00    +0.000 A 
ATOM     20  C   UNL     1       6.552   5.028  18.827  0.00  0.00    +0.000 A 
ENDBRANCH  13  14
ENDBRANCH   1  13
BRANCH   8  21
ATOM     21  C   UNL     1       1.456   6.524  20.283  0.00  0.00    +0.000 C 
BRANCH  21  22
ATOM     22  C   UNL     1       1.806   7.957  20.600  0.00  0.00    +0.000 C 
ATOM     23  C   UNL     1       0.934   9.122  20.194  0.00  0.00    +0.000 C 
ATOM     24  C   UNL     1       1.019   8.723  21.638  0.00  0.00    +0.000 C 
ENDBRANCH  21  22
ENDBRANCH   8  21
TORSDOF 4
ENDMDL
MODEL 3
REMARK VINA RESULT:      -6.6      3.572      7.043
REMARK  Name = 
REMARK  5 active torsions:
REMARK  status: ('A' for Active; 'I' for Inactive)
REMARK    1  A    between atoms: C_1  and  C_2
REMARK    2  A    between atoms: C_2  and  C_3
REMARK    3  A    between atoms: C_2  and  N_10
REMARK    4  A    between atoms: C_17  and  C_18
REMARK    5  A    between atoms: C_18  and  C_19
REMARK                            x       y       z     vdW  Elec       q    Type
REMARK                         _______ _______ _______ _____ _____    ______ ____
ROOT
ATOM      1  N   UNL     1       4.258   5.237  18.406  0.00  0.00    +0.000 NA
ATOM      2  C   UNL     1       3.760   3.865  18.399  0.00  0.00    +0.000 C 
ATOM      3  C   UNL     1       3.228   3.607  19.760  0.00  0.00    +0.000 A 
ATOM      4  C   UNL     1       3.251   2.454  20.513  0.00  0.00    +0.000 A 
ATOM      5  N   UNL     1       2.768   2.684  21.769  0.00  0.00    +0.000 NA
ATOM      6  C   UNL     1       2.456   3.958  21.793  0.00  0.00    +0.000 A 
ATOM      7  N   UNL     1       2.639   4.552  20.574  0.00  0.00    +0.000 N 
ATOM      8  C   UNL     1       2.485   5.979  20.293  0.00  0.00    +0.000 C 
ATOM      9  S   UNL     1       3.080   6.415  18.612  0.00  0.00    +0.000 S 
ATOM     10  O   UNL     1       3.734   7.705  18.682  0.00  0.00    +0.000 OA
ATOM     11  O   UNL     1       2.034   6.168  17.641  0.00  0.00    +0.000 OA
ENDROOT
BRANCH   1  13
ATOM     12  C   UNL     1       6.653   5.127  18.914  0.00  0.00    +0.000 C 
ATOM     13  C   UNL     1       5.602   5.540  17.871  0.00  0.00    +0.000 C 
BRANCH  13  14
ATOM     14  C   UNL     1       5.829   4.944  16.487  0.00  0.00    +0.000 A 
ATOM     15  C   UNL     1       4.792   4.384  15.719  0.00  0.00    +0.000 A 
ATOM     16  C   UNL     1       5.014   3.981  14.401  0.00  0.00    +0.000 A 
ATOM     17  C   UNL     1       6.281   4.113  13.843  0.00  0.00    +0.000 A 
ATOM     18 CL   UNL     1       6.531   3.688  12.195  0.00  0.00    +0.000 Cl
ATOM     19  C   UNL     1       7.335   4.609  14.602  0.00  0.00    +0.000 A 
ATOM     20  C   UNL     1       7.111   5.025  15.918  0.00  0.00    +0.000 A 
ENDBRANCH  13  14
ENDBRANCH   1  13
BRANCH   8  21
ATOM     21  C   UNL     1       1.066   6.559  20.471  0.00  0.00    +0.000 C 
BRANCH  21  22
ATOM     22  C   UNL     1       0.978   7.870  21.213  0.00  0.00    +0.000 C 
ATOM     23  C   UNL     1       0.544   9.157  20.553  0.00  0.00    +0.000 C 
ATOM     24  C   UNL     1      -0.368   8.477  21.531  0.00  0.00    +0.000 C 
ENDBRANCH  21  22
ENDBRANCH   8  21
TORSDOF 4
ENDMDL
MODEL 4
REMARK VINA RESULT:      -6.6      4.585      7.848
REMARK  Name = 
REMARK  5 active torsions:
REMARK  status: ('A' for Active; 'I' for Inactive)
REMARK    1  A    between atoms: C_1  and  C_2
REMARK    2  A    between atoms: C_2  and  C_3
REMARK    3  A    between atoms: C_2  and  N_10
REMARK    4  A    between atoms: C_17  and  C_18
REMARK    5  A    between atoms: C_18  and  C_19
REMARK                            x       y       z     vdW  Elec       q    Type
REMARK                         _______ _______ _______ _____ _____    ______ ____
ROOT
ATOM      1  N   UNL     1       0.600  10.057  19.547  0.00  0.00    +0.000 NA
ATOM      2  C   UNL     1       0.061   9.579  18.278  0.00  0.00    +0.000 C 
ATOM      3  C   UNL     1      -1.211  10.311  18.061  0.00  0.00    +0.000 A 
ATOM      4  C   UNL     1      -2.389   9.885  17.488  0.00  0.00    +0.000 A 
ATOM      5  N   UNL     1      -3.360  10.838  17.608  0.00  0.00    +0.000 NA
ATOM      6  C   UNL     1      -2.793  11.833  18.247  0.00  0.00    +0.000 A 
ATOM      7  N   UNL     1      -1.464  11.602  18.477  0.00  0.00    +0.000 N 
ATOM      8  C   UNL     1      -0.575  12.463  19.256  0.00  0.00    +0.000 C 
ATOM      9  S   UNL     1       1.054  11.672  19.558  0.00  0.00    +0.000 S 
ATOM     10  O   UNL     1       1.483  12.016  20.898  0.00  0.00    +0.000 OA
ATOM     11  O   UNL     1       1.925  11.893  18.423  0.00  0.00    +0.000 OA
ENDROOT
BRANCH   1  13
ATOM     12  C   UNL     1      -0.110   8.744  21.491  0.00  0.00    +0.000 C 
ATOM     13  C   UNL     1       1.066   9.092  20.564  0.00  0.00    +0.000 C 
BRANCH  13  14
ATOM     14  C   UNL     1       1.755   7.880  19.948  0.00  0.00    +0.000 A 
ATOM     15  C   UNL     1       1.680   6.593  20.512  0.00  0.00    +0.000 A 
ATOM     16  C   UNL     1       2.202   5.486  19.841  0.00  0.00    +0.000 A 
ATOM     17  C   UNL     1       2.825   5.655  18.609  0.00  0.00    +0.000 A 
ATOM     18 CL   UNL     1       3.398   4.279  17.751  0.00  0.00    +0.000 Cl
ATOM     19  C   UNL     1       2.964   6.926  18.060  0.00  0.00    +0.000 A 
ATOM     20  C   UNL     1       2.429   8.033  18.725  0.00  0.00    +0.000 A 
ENDBRANCH  13  14
ENDBRANCH   1  13
BRANCH   8  21
ATOM     21  C   UNL     1      -0.330  13.878  18.690  0.00  0.00    +0.000 C 
BRANCH  21  22
ATOM     22  C   UNL     1      -0.088  14.962  19.711  0.00  0.00    +0.000 C 
ATOM     23  C   UNL     1       1.283  15.532  19.992  0.00  0.00    +0.000 C 
ATOM     24  C   UNL     1       0.265  16.363  19.267  0.00  0.00    +0.000 C 
ENDBRANCH  21  22
ENDBRANCH   8  21
TORSDOF 4
ENDMDL
MODEL 5
REMARK VINA RESULT:      -6.6      4.607      7.927
REMARK  Name = 
REMARK  5 active torsions:
REMARK  status: ('A' for Active; 'I' for Inactive)
REMARK    1  A    between atoms: C_1  and  C_2
REMARK    2  A    between atoms: C_2  and  C_3
REMARK    3  A    between atoms: C_2  and  N_10
REMARK    4  A    between atoms: C_17  and  C_18
REMARK    5  A    between atoms: C_18  and  C_19
REMARK                            x       y       z     vdW  Elec       q    Type
REMARK                         _______ _______ _______ _____ _____    ______ ____
ROOT
ATOM      1  N   UNL     1       0.652  10.071  19.486  0.00  0.00    +0.000 NA
ATOM      2  C   UNL     1       0.105   9.651  18.201  0.00  0.00    +0.000 C 
ATOM      3  C   UNL     1      -1.201  10.341  18.057  0.00  0.00    +0.000 A 
ATOM      4  C   UNL     1      -2.374   9.903  17.483  0.00  0.00    +0.000 A 
ATOM      5  N   UNL     1      -3.380  10.804  17.683  0.00  0.00    +0.000 NA
ATOM      6  C   UNL     1      -2.840  11.780  18.373  0.00  0.00    +0.000 A 
ATOM      7  N   UNL     1      -1.497  11.591  18.561  0.00  0.00    +0.000 N 
ATOM      8  C   UNL     1      -0.626  12.439  19.374  0.00  0.00    +0.000 C 
ATOM      9  S   UNL     1       1.040  11.700  19.592  0.00  0.00    +0.000 S 
ATOM     10  O   UNL     1       1.486  11.976  20.941  0.00  0.00    +0.000 OA
ATOM     11  O   UNL     1       1.875  12.029  18.455  0.00  0.00    +0.000 OA
ENDROOT
BRANCH   1  13
ATOM     12  C   UNL     1       0.063   8.666  21.407  0.00  0.00    +0.000 C 
ATOM     13  C   UNL     1       1.182   9.064  20.430  0.00  0.00    +0.000 C 
BRANCH  13  14
ATOM     14  C   UNL     1       1.838   7.886  19.721  0.00  0.00    +0.000 A 
ATOM     15  C   UNL     1       2.530   8.019  18.503  0.00  0.00    +0.000 A 
ATOM     16  C   UNL     1       3.239   6.945  17.962  0.00  0.00    +0.000 A 
ATOM     17  C   UNL     1       3.247   5.720  18.620  0.00  0.00    +0.000 A 
ATOM     18 CL   UNL     1       4.185   4.424  17.988  0.00  0.00    +0.000 Cl
ATOM     19  C   UNL     1       2.521   5.548  19.793  0.00  0.00    +0.000 A 
ATOM     20  C   UNL     1       1.822   6.626  20.344  0.00  0.00    +0.000 A 
ENDBRANCH  13  14
ENDBRANCH   1  13
BRANCH   8  21
ATOM     21  C   UNL     1      -0.453  13.896  18.896  0.00  0.00    +0.000 C 
BRANCH  21  22
ATOM     22  C   UNL     1       0.146  14.851  19.898  0.00  0.00    +0.000 C 
ATOM     23  C   UNL     1       1.327  15.737  19.581  0.00  0.00    +0.000 C 
ATOM     24  C   UNL     1      -0.038  16.342  19.734  0.00  0.00    +0.000 C 
ENDBRANCH  21  22
ENDBRANCH   8  21
TORSDOF 4
ENDMDL
MODEL 6
REMARK VINA RESULT:      -6.5      4.432      6.845
REMARK  Name = 
REMARK  5 active torsions:
REMARK  status: ('A' for Active; 'I' for Inactive)
REMARK    1  A    between atoms: C_1  and  C_2
REMARK    2  A    between atoms: C_2  and  C_3
REMARK    3  A    between atoms: C_2  and  N_10
REMARK    4  A    between atoms: C_17  and  C_18
REMARK    5  A    between atoms: C_18  and  C_19
REMARK                            x       y       z     vdW  Elec       q    Type
REMARK                         _______ _______ _______ _____ _____    ______ ____
ROOT
ATOM      1  N   UNL     1       4.957   5.733  17.621  0.00  0.00    +0.000 NA
ATOM      2  C   UNL     1       3.664   6.346  17.906  0.00  0.00    +0.000 C 
ATOM      3  C   UNL     1       2.663   5.252  17.860  0.00  0.00    +0.000 A 
ATOM      4  C   UNL     1       1.360   5.264  17.413  0.00  0.00    +0.000 A 
ATOM      5  N   UNL     1       0.831   4.005  17.425  0.00  0.00    +0.000 NA
ATOM      6  C   UNL     1       1.791   3.228  17.866  0.00  0.00    +0.000 A 
ATOM      7  N   UNL     1       2.903   3.942  18.224  0.00  0.00    +0.000 N 
ATOM      8  C   UNL     1       4.178   3.370  18.652  0.00  0.00    +0.000 C 
ATOM      9  S   UNL     1       5.494   4.645  18.780  0.00  0.00    +0.000 S 
ATOM     10  O   UNL     1       6.736   4.062  18.318  0.00  0.00    +0.000 OA
ATOM     11  O   UNL     1       5.418   5.300  20.070  0.00  0.00    +0.000 OA
ENDROOT
BRANCH   1  13
ATOM     12  C   UNL     1       7.127   6.837  17.335  0.00  0.00    +0.000 C 
ATOM     13  C   UNL     1       5.860   6.339  16.620  0.00  0.00    +0.000 C 
BRANCH  13  14
ATOM     14  C   UNL     1       6.132   5.413  15.441  0.00  0.00    +0.000 A 
ATOM     15  C   UNL     1       5.205   4.454  14.996  0.00  0.00    +0.000 A 
ATOM     16  C   UNL     1       5.432   3.727  13.826  0.00  0.00    +0.000 A 
ATOM     17  C   UNL     1       6.600   3.934  13.100  0.00  0.00    +0.000 A 
ATOM     18 CL   UNL     1       6.840   3.092  11.620  0.00  0.00    +0.000 Cl
ATOM     19  C   UNL     1       7.559   4.833  13.554  0.00  0.00    +0.000 A 
ATOM     20  C   UNL     1       7.326   5.572  14.717  0.00  0.00    +0.000 A 
ENDBRANCH  13  14
ENDBRANCH   1  13
BRANCH   8  21
ATOM     21  C   UNL     1       4.155   2.563  19.968  0.00  0.00    +0.000 C 
BRANCH  21  22
ATOM     22  C   UNL     1       3.348   3.160  21.093  0.00  0.00    +0.000 C 
ATOM     23  C   UNL     1       1.871   3.454  20.975  0.00  0.00    +0.000 C 
ATOM     24  C   UNL     1       2.338   2.318  21.838  0.00  0.00    +0.000 C 
ENDBRANCH  21  22
ENDBRANCH   8  21
TORSDOF 4
ENDMDL
MODEL 7
REMARK VINA RESULT:      -6.4      3.844      5.540
REMARK  Name = 
REMARK  5 active torsions:
REMARK  status: ('A' for Active; 'I' for Inactive)
REMARK    1  A    between atoms: C_1  and  C_2
REMARK    2  A    between atoms: C_2  and  C_3
REMARK    3  A    between atoms: C_2  and  N_10
REMARK    4  A    between atoms: C_17  and  C_18
REMARK    5  A    between atoms: C_18  and  C_19
REMARK                            x       y       z     vdW  Elec       q    Type
REMARK                         _______ _______ _______ _____ _____    ______ ____
ROOT
ATOM      1  N   UNL     1       0.370  10.284  20.820  0.00  0.00    +0.000 NA
ATOM      2  C   UNL     1      -0.067  10.068  19.444  0.00  0.00    +0.000 C 
ATOM      3  C   UNL     1       0.973   9.226  18.802  0.00  0.00    +0.000 A 
ATOM      4  C   UNL     1       1.450   9.243  17.510  0.00  0.00    +0.000 A 
ATOM      5  N   UNL     1       2.505   8.388  17.371  0.00  0.00    +0.000 NA
ATOM      6  C   UNL     1       2.680   7.855  18.557  0.00  0.00    +0.000 A 
ATOM      7  N   UNL     1       1.726   8.267  19.448  0.00  0.00    +0.000 N 
ATOM      8  C   UNL     1       1.699   7.942  20.873  0.00  0.00    +0.000 C 
ATOM      9  S   UNL     1       0.418   8.902  21.771  0.00  0.00    +0.000 S 
ATOM     10  O   UNL     1       0.947   9.262  23.070  0.00  0.00    +0.000 OA
ATOM     11  O   UNL     1      -0.865   8.240  21.653  0.00  0.00    +0.000 OA
ENDROOT
BRANCH   1  13
ATOM     12  C   UNL     1       1.112  12.588  20.437  0.00  0.00    +0.000 C 
ATOM     13  C   UNL     1       0.364  11.645  21.393  0.00  0.00    +0.000 C 
BRANCH  13  14
ATOM     14  C   UNL     1      -1.037  12.118  21.765  0.00  0.00    +0.000 A 
ATOM     15  C   UNL     1      -1.866  12.819  20.872  0.00  0.00    +0.000 A 
ATOM     16  C   UNL     1      -3.192  13.106  21.200  0.00  0.00    +0.000 A 
ATOM     17  C   UNL     1      -3.698  12.714  22.436  0.00  0.00    +0.000 A 
ATOM     18 CL   UNL     1      -5.353  13.002  22.805  0.00  0.00    +0.000 Cl
ATOM     19  C   UNL     1      -2.879  12.073  23.359  0.00  0.00    +0.000 A 
ATOM     20  C   UNL     1      -1.555  11.773  23.025  0.00  0.00    +0.000 A 
ENDBRANCH  13  14
ENDBRANCH   1  13
BRANCH   8  21
ATOM     21  C   UNL     1       1.525   6.450  21.229  0.00  0.00    +0.000 C 
BRANCH  21  22
ATOM     22  C   UNL     1       1.834   5.469  20.124  0.00  0.00    +0.000 C 
ATOM     23  C   UNL     1       2.674   4.232  20.338  0.00  0.00    +0.000 C 
ATOM     24  C   UNL     1       1.195   4.100  20.120  0.00  0.00    +0.000 C 
ENDBRANCH  21  22
ENDBRANCH   8  21
TORSDOF 4
ENDMDL
MODEL 8
REMARK VINA RESULT:      -6.4      4.015      5.867
REMARK  Name = 
REMARK  5 active torsions:
REMARK  status: ('A' for Active; 'I' for Inactive)
REMARK    1  A    between atoms: C_1  and  C_2
REMARK    2  A    between atoms: C_2  and  C_3
REMARK    3  A    between atoms: C_2  and  N_10
REMARK    4  A    between atoms: C_17  and  C_18
REMARK    5  A    between atoms: C_18  and  C_19
REMARK                            x       y       z     vdW  Elec       q    Type
REMARK                         _______ _______ _______ _____ _____    ______ ____
ROOT
ATOM      1  N   UNL     1      -0.097  10.535  21.055  0.00  0.00    +0.000 NA
ATOM      2  C   UNL     1      -0.624  10.228  19.729  0.00  0.00    +0.000 C 
ATOM      3  C   UNL     1       0.472   9.553  18.990  0.00  0.00    +0.000 A 
ATOM      4  C   UNL     1       0.813   9.624  17.657  0.00  0.00    +0.000 A 
ATOM      5  N   UNL     1       1.974   8.948  17.416  0.00  0.00    +0.000 NA
ATOM      6  C   UNL     1       2.347   8.472  18.580  0.00  0.00    +0.000 A 
ATOM      7  N   UNL     1       1.430   8.740  19.559  0.00  0.00    +0.000 N 
ATOM      8  C   UNL     1       1.594   8.440  20.981  0.00  0.00    +0.000 C 
ATOM      9  S   UNL     1       0.266   9.197  21.999  0.00  0.00    +0.000 S 
ATOM     10  O   UNL     1       0.854   9.660  23.239  0.00  0.00    +0.000 OA
ATOM     11  O   UNL     1      -0.897   8.334  22.009  0.00  0.00    +0.000 OA
ENDROOT
BRANCH   1  13
ATOM     12  C   UNL     1       0.301  12.917  20.634  0.00  0.00    +0.000 C 
ATOM     13  C   UNL     1      -0.268  11.888  21.624  0.00  0.00    +0.000 C 
BRANCH  13  14
ATOM     14  C   UNL     1      -1.704  12.165  22.054  0.00  0.00    +0.000 A 
ATOM     15  C   UNL     1      -2.191  11.846  23.334  0.00  0.00    +0.000 A 
ATOM     16  C   UNL     1      -3.466  12.247  23.736  0.00  0.00    +0.000 A 
ATOM     17  C   UNL     1      -4.279  12.951  22.853  0.00  0.00    +0.000 A 
ATOM     18 CL   UNL     1      -5.819  13.508  23.379  0.00  0.00    +0.000 Cl
ATOM     19  C   UNL     1      -3.842  13.225  21.562  0.00  0.00    +0.000 A 
ATOM     20  C   UNL     1      -2.559  12.837  21.163  0.00  0.00    +0.000 A 
ENDBRANCH  13  14
ENDBRANCH   1  13
BRANCH   8  21
ATOM     21  C   UNL     1       1.700   6.946  21.354  0.00  0.00    +0.000 C 
BRANCH  21  22
ATOM     22  C   UNL     1       1.545   5.970  20.215  0.00  0.00    +0.000 C 
ATOM     23  C   UNL     1       2.576   4.913  19.896  0.00  0.00    +0.000 C 
ATOM     24  C   UNL     1       1.258   4.513  20.492  0.00  0.00    +0.000 C 
ENDBRANCH  21  22
ENDBRANCH   8  21
TORSDOF 4
ENDMDL
MODEL 9
REMARK VINA RESULT:      -6.4      2.576      3.947
REMARK  Name = 
REMARK  5 active torsions:
REMARK  status: ('A' for Active; 'I' for Inactive)
REMARK    1  A    between atoms: C_1  and  C_2
REMARK    2  A    between atoms: C_2  and  C_3
REMARK    3  A    between atoms: C_2  and  N_10
REMARK    4  A    between atoms: C_17  and  C_18
REMARK    5  A    between atoms: C_18  and  C_19
REMARK                            x       y       z     vdW  Elec       q    Type
REMARK                         _______ _______ _______ _____ _____    ______ ____
ROOT
ATOM      1  N   UNL     1       4.400   5.767  17.964  0.00  0.00    +0.000 NA
ATOM      2  C   UNL     1       5.421   6.649  18.520  0.00  0.00    +0.000 C 
ATOM      3  C   UNL     1       6.685   5.871  18.529  0.00  0.00    +0.000 A 
ATOM      4  C   UNL     1       7.718   5.874  19.440  0.00  0.00    +0.000 A 
ATOM      5  N   UNL     1       8.633   4.907  19.141  0.00  0.00    +0.000 NA
ATOM      6  C   UNL     1       8.172   4.312  18.066  0.00  0.00    +0.000 A 
ATOM      7  N   UNL     1       7.031   4.909  17.603  0.00  0.00    +0.000 N 
ATOM      8  C   UNL     1       6.212   4.427  16.491  0.00  0.00    +0.000 C 
ATOM      9  S   UNL     1       4.628   5.346  16.357  0.00  0.00    +0.000 S 
ATOM     10  O   UNL     1       3.591   4.409  15.979  0.00  0.00    +0.000 OA
ATOM     11  O   UNL     1       4.832   6.567  15.605  0.00  0.00    +0.000 OA
ENDROOT
BRANCH   1  13
ATOM     12  C   UNL     1       3.280   4.681  19.855  0.00  0.00    +0.000 C 
ATOM     13  C   UNL     1       3.099   5.618  18.649  0.00  0.00    +0.000 C 
BRANCH  13  14
ATOM     14  C   UNL     1       2.460   6.958  18.991  0.00  0.00    +0.000 A 
ATOM     15  C   UNL     1       2.220   7.956  18.029  0.00  0.00    +0.000 A 
ATOM     16  C   UNL     1       1.503   9.108  18.355  0.00  0.00    +0.000 A 
ATOM     17  C   UNL     1       1.036   9.287  19.653  0.00  0.00    +0.000 A 
ATOM     18 CL   UNL     1       0.088  10.671  20.031  0.00  0.00    +0.000 Cl
ATOM     19  C   UNL     1       1.313   8.343  20.636  0.00  0.00    +0.000 A 
ATOM     20  C   UNL     1       2.019   7.182  20.307  0.00  0.00    +0.000 A 
ENDBRANCH  13  14
ENDBRANCH   1  13
BRANCH   8  21
ATOM     21  C   UNL     1       6.887   4.417  15.102  0.00  0.00    +0.000 C 
BRANCH  21  22
ATOM     22  C   UNL     1       6.254   3.518  14.069  0.00  0.00    +0.000 C 
ATOM     23  C   UNL     1       5.255   4.015  13.052  0.00  0.00    +0.000 C 
ATOM     24  C   UNL     1       6.640   3.640  12.614  0.00  0.00    +0.000 C 
ENDBRANCH  21  22
ENDBRANCH   8  21
TORSDOF 4
ENDMDL
