MODEL 1
REMARK VINA RESULT:      -8.5      0.000      0.000
REMARK  Name = 
REMARK  7 active torsions:
REMARK  status: ('A' for Active; 'I' for Inactive)
REMARK    1  A    between atoms: C_1  and  O_2
REMARK    2  A    between atoms: O_2  and  C_3
REMARK    3  A    between atoms: C_7  and  C_8
REMARK    4  A    between atoms: C_8  and  C_9
REMARK    5  A    between atoms: N_11  and  C_12
REMARK    6  A    between atoms: N_16  and  C_17
REMARK    7  A    between atoms: C_17  and  C_18
REMARK                            x       y       z     vdW  Elec       q    Type
REMARK                         _______ _______ _______ _____ _____    ______ ____
ROOT
ATOM      1  C   UNL     1       7.313   6.270  17.259  0.00  0.00    +0.000 C 
ATOM      2  C   UNL     1       6.790   5.629  15.970  0.00  0.00    +0.000 C 
ATOM      3  C   UNL     1       5.286   5.832  15.841  0.00  0.00    +0.000 C 
ATOM      4  C   UNL     1       4.545   5.317  17.077  0.00  0.00    +0.000 C 
ATOM      5  N   UNL     1       5.021   5.933  18.333  0.00  0.00    +0.000 NA
ATOM      6  C   UNL     1       6.490   5.782  18.470  0.00  0.00    +0.000 C 
ENDROOT
BRANCH   1   9
ATOM      7  C   UNL     1       8.126   8.480  17.979  0.00  0.00    +0.000 C 
ATOM      8  O   UNL     1       8.764   7.997  18.912  0.00  0.00    +0.000 OA
ATOM      9  N   UNL     1       7.330   7.725  17.142  0.00  0.00    +0.000 N 
ATOM     10  H   UNL     1       7.041   8.119  16.254  0.00  0.00    +0.000 HD
BRANCH   7  11
ATOM     11  C   UNL     1       8.152   9.963  17.684  0.00  0.00    +0.000 C 
BRANCH  11  16
ATOM     12  C   UNL     1       9.995  11.764  20.493  0.00  0.00    +0.000 A 
ATOM     13  C   UNL     1      11.226  12.029  19.892  0.00  0.00    +0.000 A 
ATOM     14  C   UNL     1      11.468  11.638  18.574  0.00  0.00    +0.000 A 
ATOM     15  C   UNL     1      10.476  10.981  17.848  0.00  0.00    +0.000 A 
ATOM     16  C   UNL     1       9.228  10.715  18.433  0.00  0.00    +0.000 A 
ATOM     17  C   UNL     1       9.006  11.106  19.759  0.00  0.00    +0.000 A 
BRANCH  12  19
ATOM     18  C   UNL     1       8.603  12.023  22.398  0.00  0.00    +0.000 C 
ATOM     19  O   UNL     1       9.877  12.191  21.788  0.00  0.00    +0.000 OA
ENDBRANCH  12  19
ENDBRANCH  11  16
ENDBRANCH   7  11
ENDBRANCH   1   9
BRANCH   5  20
ATOM     20  C   UNL     1       4.388   5.272  19.507  0.00  0.00    +0.000 C 
BRANCH  20  21
ATOM     21  C   UNL     1       3.341   4.241  19.162  0.00  0.00    +0.000 A 
ATOM     22  C   UNL     1       2.065   4.622  18.727  0.00  0.00    +0.000 A 
ATOM     23  C   UNL     1       1.122   3.654  18.369  0.00  0.00    +0.000 A 
ATOM     24  C   UNL     1       1.443   2.298  18.445  0.00  0.00    +0.000 A 
ATOM     25  C   UNL     1       2.700   1.907  18.899  0.00  0.00    +0.000 A 
ATOM     26  C   UNL     1       3.631   2.875  19.261  0.00  0.00    +0.000 A 
ATOM     27  F   UNL     1       4.834   2.474  19.700  0.00  0.00    +0.000 F 
ENDBRANCH  20  21
ENDBRANCH   5  20
TORSDOF 6
ENDMDL
MODEL 2
REMARK VINA RESULT:      -8.4      1.020      1.809
REMARK  Name = 
REMARK  7 active torsions:
REMARK  status: ('A' for Active; 'I' for Inactive)
REMARK    1  A    between atoms: C_1  and  O_2
REMARK    2  A    between atoms: O_2  and  C_3
REMARK    3  A    between atoms: C_7  and  C_8
REMARK    4  A    between atoms: C_8  and  C_9
REMARK    5  A    between atoms: N_11  and  C_12
REMARK    6  A    between atoms: N_16  and  C_17
REMARK    7  A    between atoms: C_17  and  C_18
REMARK                            x       y       z     vdW  Elec       q    Type
REMARK                         _______ _______ _______ _____ _____    ______ ____
ROOT
ATOM      1  C   UNL     1       7.317   6.194  17.290  0.00  0.00    +0.000 C 
ATOM      2  C   UNL     1       6.827   5.514  16.010  0.00  0.00    +0.000 C 
ATOM      3  C   UNL     1       5.328   5.724  15.829  0.00  0.00    +0.000 C 
ATOM      4  C   UNL     1       4.548   5.259  17.060  0.00  0.00    +0.000 C 
ATOM      5  N   UNL     1       4.992   5.914  18.307  0.00  0.00    +0.000 NA
ATOM      6  C   UNL     1       6.455   5.755  18.492  0.00  0.00    +0.000 C 
ENDROOT
BRANCH   1   9
ATOM      7  C   UNL     1       8.144   8.420  17.946  0.00  0.00    +0.000 C 
ATOM      8  O   UNL     1       8.764   7.962  18.904  0.00  0.00    +0.000 OA
ATOM      9  N   UNL     1       7.351   7.644  17.124  0.00  0.00    +0.000 N 
ATOM     10  H   UNL     1       7.080   8.010  16.218  0.00  0.00    +0.000 HD
BRANCH   7  11
ATOM     11  C   UNL     1       8.190   9.892  17.601  0.00  0.00    +0.000 C 
BRANCH  11  16
ATOM     12  C   UNL     1      10.823  12.457  18.607  0.00  0.00    +0.000 A 
ATOM     13  C   UNL     1      10.904  12.247  19.983  0.00  0.00    +0.000 A 
ATOM     14  C   UNL     1      10.117  11.270  20.597  0.00  0.00    +0.000 A 
ATOM     15  C   UNL     1       9.246  10.495  19.834  0.00  0.00    +0.000 A 
ATOM     16  C   UNL     1       9.159  10.685  18.445  0.00  0.00    +0.000 A 
ATOM     17  C   UNL     1       9.949  11.676  17.848  0.00  0.00    +0.000 A 
BRANCH  12  19
ATOM     18  C   UNL     1      12.243  13.202  16.856  0.00  0.00    +0.000 C 
ATOM     19  O   UNL     1      11.638  13.443  18.121  0.00  0.00    +0.000 OA
ENDBRANCH  12  19
ENDBRANCH  11  16
ENDBRANCH   7  11
ENDBRANCH   1   9
BRANCH   5  20
ATOM     20  C   UNL     1       4.318   5.299  19.484  0.00  0.00    +0.000 C 
BRANCH  20  21
ATOM     21  C   UNL     1       3.305   4.234  19.146  0.00  0.00    +0.000 A 
ATOM     22  C   UNL     1       2.005   4.571  18.748  0.00  0.00    +0.000 A 
ATOM     23  C   UNL     1       1.092   3.572  18.395  0.00  0.00    +0.000 A 
ATOM     24  C   UNL     1       1.467   2.229  18.439  0.00  0.00    +0.000 A 
ATOM     25  C   UNL     1       2.750   1.880  18.857  0.00  0.00    +0.000 A 
ATOM     26  C   UNL     1       3.651   2.879  19.213  0.00  0.00    +0.000 A 
ATOM     27  F   UNL     1       4.879   2.518  19.616  0.00  0.00    +0.000 F 
ENDBRANCH  20  21
ENDBRANCH   5  20
TORSDOF 6
ENDMDL
MODEL 3
REMARK VINA RESULT:      -8.3      4.582      5.630
REMARK  Name = 
REMARK  7 active torsions:
REMARK  status: ('A' for Active; 'I' for Inactive)
REMARK    1  A    between atoms: C_1  and  O_2
REMARK    2  A    between atoms: O_2  and  C_3
REMARK    3  A    between atoms: C_7  and  C_8
REMARK    4  A    between atoms: C_8  and  C_9
REMARK    5  A    between atoms: N_11  and  C_12
REMARK    6  A    between atoms: N_16  and  C_17
REMARK    7  A    between atoms: C_17  and  C_18
REMARK                            x       y       z     vdW  Elec       q    Type
REMARK                         _______ _______ _______ _____ _____    ______ ____
ROOT
ATOM      1  C   UNL     1       4.832   6.714  17.795  0.00  0.00    +0.000 C 
ATOM      2  C   UNL     1       5.847   6.618  16.654  0.00  0.00    +0.000 C 
ATOM      3  C   UNL     1       5.341   5.682  15.562  0.00  0.00    +0.000 C 
ATOM      4  C   UNL     1       4.983   4.307  16.128  0.00  0.00    +0.000 C 
ATOM      5  N   UNL     1       3.992   4.372  17.221  0.00  0.00    +0.000 NA
ATOM      6  C   UNL     1       4.441   5.304  18.284  0.00  0.00    +0.000 C 
ENDROOT
BRANCH   1   9
ATOM      7  C   UNL     1       2.652   7.751  18.286  0.00  0.00    +0.000 C 
ATOM      8  O   UNL     1       2.605   7.242  19.404  0.00  0.00    +0.000 OA
ATOM      9  N   UNL     1       3.674   7.508  17.391  0.00  0.00    +0.000 N 
ATOM     10  H   UNL     1       3.800   8.138  16.607  0.00  0.00    +0.000 HD
BRANCH   7  11
ATOM     11  C   UNL     1       1.568   8.684  17.793  0.00  0.00    +0.000 C 
BRANCH  11  16
ATOM     12  C   UNL     1       0.884  11.188  20.584  0.00  0.00    +0.000 A 
ATOM     13  C   UNL     1       1.413  12.359  20.042  0.00  0.00    +0.000 A 
ATOM     14  C   UNL     1       1.987  12.353  18.768  0.00  0.00    +0.000 A 
ATOM     15  C   UNL     1       2.030  11.173  18.029  0.00  0.00    +0.000 A 
ATOM     16  C   UNL     1       1.493   9.987  18.554  0.00  0.00    +0.000 A 
ATOM     17  C   UNL     1       0.930  10.009  19.837  0.00  0.00    +0.000 A 
BRANCH  12  19
ATOM     18  C   UNL     1      -0.358  10.194  22.346  0.00  0.00    +0.000 C 
ATOM     19  O   UNL     1       0.353  11.317  21.839  0.00  0.00    +0.000 OA
ENDBRANCH  12  19
ENDBRANCH  11  16
ENDBRANCH   7  11
ENDBRANCH   1   9
BRANCH   5  20
ATOM     20  C   UNL     1       3.813   3.031  17.841  0.00  0.00    +0.000 C 
BRANCH  20  21
ATOM     21  C   UNL     1       2.928   3.014  19.063  0.00  0.00    +0.000 A 
ATOM     22  C   UNL     1       1.580   3.386  18.985  0.00  0.00    +0.000 A 
ATOM     23  C   UNL     1       0.762   3.323  20.117  0.00  0.00    +0.000 A 
ATOM     24  C   UNL     1       1.282   2.890  21.337  0.00  0.00    +0.000 A 
ATOM     25  C   UNL     1       2.628   2.540  21.432  0.00  0.00    +0.000 A 
ATOM     26  C   UNL     1       3.438   2.612  20.304  0.00  0.00    +0.000 A 
ATOM     27  F   UNL     1       4.730   2.274  20.421  0.00  0.00    +0.000 F 
ENDBRANCH  20  21
ENDBRANCH   5  20
TORSDOF 6
ENDMDL
MODEL 4
REMARK VINA RESULT:      -8.3      4.660      5.871
REMARK  Name = 
REMARK  7 active torsions:
REMARK  status: ('A' for Active; 'I' for Inactive)
REMARK    1  A    between atoms: C_1  and  O_2
REMARK    2  A    between atoms: O_2  and  C_3
REMARK    3  A    between atoms: C_7  and  C_8
REMARK    4  A    between atoms: C_8  and  C_9
REMARK    5  A    between atoms: N_11  and  C_12
REMARK    6  A    between atoms: N_16  and  C_17
REMARK    7  A    between atoms: C_17  and  C_18
REMARK                            x       y       z     vdW  Elec       q    Type
REMARK                         _______ _______ _______ _____ _____    ______ ____
ROOT
ATOM      1  C   UNL     1       4.914   6.734  17.761  0.00  0.00    +0.000 C 
ATOM      2  C   UNL     1       5.900   6.635  16.596  0.00  0.00    +0.000 C 
ATOM      3  C   UNL     1       5.361   5.709  15.512  0.00  0.00    +0.000 C 
ATOM      4  C   UNL     1       5.005   4.333  16.080  0.00  0.00    +0.000 C 
ATOM      5  N   UNL     1       4.041   4.401  17.197  0.00  0.00    +0.000 NA
ATOM      6  C   UNL     1       4.524   5.324  18.253  0.00  0.00    +0.000 C 
ENDROOT
BRANCH   1   9
ATOM      7  C   UNL     1       2.696   7.680  18.266  0.00  0.00    +0.000 C 
ATOM      8  O   UNL     1       2.623   7.070  19.331  0.00  0.00    +0.000 OA
ATOM      9  N   UNL     1       3.754   7.538  17.390  0.00  0.00    +0.000 N 
ATOM     10  H   UNL     1       3.892   8.240  16.671  0.00  0.00    +0.000 HD
BRANCH   7  11
ATOM     11  C   UNL     1       1.610   8.633  17.821  0.00  0.00    +0.000 C 
BRANCH  11  16
ATOM     12  C   UNL     1       0.766  10.642  20.948  0.00  0.00    +0.000 A 
ATOM     13  C   UNL     1       1.103  11.935  20.547  0.00  0.00    +0.000 A 
ATOM     14  C   UNL     1       1.596  12.170  19.262  0.00  0.00    +0.000 A 
ATOM     15  C   UNL     1       1.752  11.111  18.369  0.00  0.00    +0.000 A 
ATOM     16  C   UNL     1       1.408   9.805  18.752  0.00  0.00    +0.000 A 
ATOM     17  C   UNL     1       0.923   9.586  20.048  0.00  0.00    +0.000 A 
BRANCH  12  19
ATOM     18  C   UNL     1      -0.907  11.230  22.526  0.00  0.00    +0.000 C 
ATOM     19  O   UNL     1       0.299  10.535  22.230  0.00  0.00    +0.000 OA
ENDBRANCH  12  19
ENDBRANCH  11  16
ENDBRANCH   7  11
ENDBRANCH   1   9
BRANCH   5  20
ATOM     20  C   UNL     1       3.867   3.058  17.815  0.00  0.00    +0.000 C 
BRANCH  20  21
ATOM     21  C   UNL     1       2.983   3.037  19.037  0.00  0.00    +0.000 A 
ATOM     22  C   UNL     1       3.472   2.610  20.278  0.00  0.00    +0.000 A 
ATOM     23  C   UNL     1       2.653   2.639  21.410  0.00  0.00    +0.000 A 
ATOM     24  C   UNL     1       1.336   3.091  21.314  0.00  0.00    +0.000 A 
ATOM     25  C   UNL     1       0.830   3.495  20.080  0.00  0.00    +0.000 A 
ATOM     26  C   UNL     1       1.649   3.457  18.956  0.00  0.00    +0.000 A 
ATOM     27  F   UNL     1       1.139   3.848  17.779  0.00  0.00    +0.000 F 
ENDBRANCH  20  21
ENDBRANCH   5  20
TORSDOF 6
ENDMDL
MODEL 5
REMARK VINA RESULT:      -8.2      4.555      5.712
REMARK  Name = 
REMARK  7 active torsions:
REMARK  status: ('A' for Active; 'I' for Inactive)
REMARK    1  A    between atoms: C_1  and  O_2
REMARK    2  A    between atoms: O_2  and  C_3
REMARK    3  A    between atoms: C_7  and  C_8
REMARK    4  A    between atoms: C_8  and  C_9
REMARK    5  A    between atoms: N_11  and  C_12
REMARK    6  A    between atoms: N_16  and  C_17
REMARK    7  A    between atoms: C_17  and  C_18
REMARK                            x       y       z     vdW  Elec       q    Type
REMARK                         _______ _______ _______ _____ _____    ______ ____
ROOT
ATOM      1  C   UNL     1       4.698   6.691  17.849  0.00  0.00    +0.000 C 
ATOM      2  C   UNL     1       5.788   6.640  16.776  0.00  0.00    +0.000 C 
ATOM      3  C   UNL     1       5.382   5.706  15.642  0.00  0.00    +0.000 C 
ATOM      4  C   UNL     1       5.028   4.313  16.166  0.00  0.00    +0.000 C 
ATOM      5  N   UNL     1       3.965   4.335  17.191  0.00  0.00    +0.000 NA
ATOM      6  C   UNL     1       4.317   5.264  18.294  0.00  0.00    +0.000 C 
ENDROOT
BRANCH   1   9
ATOM      7  C   UNL     1       2.566   7.853  18.267  0.00  0.00    +0.000 C 
ATOM      8  O   UNL     1       2.549   7.502  19.445  0.00  0.00    +0.000 OA
ATOM      9  N   UNL     1       3.548   7.458  17.380  0.00  0.00    +0.000 N 
ATOM     10  H   UNL     1       3.660   7.972  16.513  0.00  0.00    +0.000 HD
BRANCH   7  11
ATOM     11  C   UNL     1       1.489   8.743  17.688  0.00  0.00    +0.000 C 
BRANCH  11  16
ATOM     12  C   UNL     1       2.160  12.393  18.558  0.00  0.00    +0.000 A 
ATOM     13  C   UNL     1       1.174  12.636  19.514  0.00  0.00    +0.000 A 
ATOM     14  C   UNL     1       0.291  11.623  19.893  0.00  0.00    +0.000 A 
ATOM     15  C   UNL     1       0.393  10.357  19.317  0.00  0.00    +0.000 A 
ATOM     16  C   UNL     1       1.386  10.091  18.361  0.00  0.00    +0.000 A 
ATOM     17  C   UNL     1       2.257  11.122  17.986  0.00  0.00    +0.000 A 
BRANCH  12  19
ATOM     18  C   UNL     1       2.717  14.658  18.996  0.00  0.00    +0.000 C 
ATOM     19  O   UNL     1       2.962  13.462  18.266  0.00  0.00    +0.000 OA
ENDBRANCH  12  19
ENDBRANCH  11  16
ENDBRANCH   7  11
ENDBRANCH   1   9
BRANCH   5  20
ATOM     20  C   UNL     1       3.785   2.981  17.782  0.00  0.00    +0.000 C 
BRANCH  20  21
ATOM     21  C   UNL     1       2.932   2.944  19.026  0.00  0.00    +0.000 A 
ATOM     22  C   UNL     1       3.470   2.568  20.263  0.00  0.00    +0.000 A 
ATOM     23  C   UNL     1       2.677   2.582  21.414  0.00  0.00    +0.000 A 
ATOM     24  C   UNL     1       1.338   2.968  21.340  0.00  0.00    +0.000 A 
ATOM     25  C   UNL     1       0.784   3.321  20.111  0.00  0.00    +0.000 A 
ATOM     26  C   UNL     1       1.578   3.298  18.968  0.00  0.00    +0.000 A 
ATOM     27  F   UNL     1       1.022   3.638  17.796  0.00  0.00    +0.000 F 
ENDBRANCH  20  21
ENDBRANCH   5  20
TORSDOF 6
ENDMDL
MODEL 6
REMARK VINA RESULT:      -8.2      4.499      5.730
REMARK  Name = 
REMARK  7 active torsions:
REMARK  status: ('A' for Active; 'I' for Inactive)
REMARK    1  A    between atoms: C_1  and  O_2
REMARK    2  A    between atoms: O_2  and  C_3
REMARK    3  A    between atoms: C_7  and  C_8
REMARK    4  A    between atoms: C_8  and  C_9
REMARK    5  A    between atoms: N_11  and  C_12
REMARK    6  A    between atoms: N_16  and  C_17
REMARK    7  A    between atoms: C_17  and  C_18
REMARK                            x       y       z     vdW  Elec       q    Type
REMARK                         _______ _______ _______ _____ _____    ______ ____
ROOT
ATOM      1  C   UNL     1       4.777   6.658  17.820  0.00  0.00    +0.000 C 
ATOM      2  C   UNL     1       5.840   6.569  16.723  0.00  0.00    +0.000 C 
ATOM      3  C   UNL     1       5.374   5.658  15.595  0.00  0.00    +0.000 C 
ATOM      4  C   UNL     1       4.978   4.277  16.121  0.00  0.00    +0.000 C 
ATOM      5  N   UNL     1       3.940   4.335  17.170  0.00  0.00    +0.000 NA
ATOM      6  C   UNL     1       4.351   5.244  18.268  0.00  0.00    +0.000 C 
ENDROOT
BRANCH   1   9
ATOM      7  C   UNL     1       2.647   7.813  18.268  0.00  0.00    +0.000 C 
ATOM      8  O   UNL     1       2.596   7.379  19.417  0.00  0.00    +0.000 OA
ATOM      9  N   UNL     1       3.647   7.471  17.379  0.00  0.00    +0.000 N 
ATOM     10  H   UNL     1       3.786   8.044  16.554  0.00  0.00    +0.000 HD
BRANCH   7  11
ATOM     11  C   UNL     1       1.595   8.756  17.728  0.00  0.00    +0.000 C 
BRANCH  11  16
ATOM     12  C   UNL     1       1.465  12.231  19.287  0.00  0.00    +0.000 A 
ATOM     13  C   UNL     1       0.563  12.033  20.332  0.00  0.00    +0.000 A 
ATOM     14  C   UNL     1      -0.003  10.775  20.548  0.00  0.00    +0.000 A 
ATOM     15  C   UNL     1       0.334   9.707  19.720  0.00  0.00    +0.000 A 
ATOM     16  C   UNL     1       1.248   9.885  18.669  0.00  0.00    +0.000 A 
ATOM     17  C   UNL     1       1.799  11.156  18.461  0.00  0.00    +0.000 A 
BRANCH  12  19
ATOM     18  C   UNL     1       3.085  13.681  18.332  0.00  0.00    +0.000 C 
ATOM     19  O   UNL     1       1.950  13.506  19.171  0.00  0.00    +0.000 OA
ENDBRANCH  12  19
ENDBRANCH  11  16
ENDBRANCH   7  11
ENDBRANCH   1   9
BRANCH   5  20
ATOM     20  C   UNL     1       3.720   2.986  17.760  0.00  0.00    +0.000 C 
BRANCH  20  21
ATOM     21  C   UNL     1       2.870   2.973  19.006  0.00  0.00    +0.000 A 
ATOM     22  C   UNL     1       1.507   3.292  18.955  0.00  0.00    +0.000 A 
ATOM     23  C   UNL     1       0.723   3.233  20.111  0.00  0.00    +0.000 A 
ATOM     24  C   UNL     1       1.292   2.856  21.328  0.00  0.00    +0.000 A 
ATOM     25  C   UNL     1       2.652   2.560  21.396  0.00  0.00    +0.000 A 
ATOM     26  C   UNL     1       3.428   2.629  20.243  0.00  0.00    +0.000 A 
ATOM     27  F   UNL     1       4.735   2.342  20.334  0.00  0.00    +0.000 F 
ENDBRANCH  20  21
ENDBRANCH   5  20
TORSDOF 6
ENDMDL
MODEL 7
REMARK VINA RESULT:      -8.1      0.898      1.038
REMARK  Name = 
REMARK  7 active torsions:
REMARK  status: ('A' for Active; 'I' for Inactive)
REMARK    1  A    between atoms: C_1  and  O_2
REMARK    2  A    between atoms: O_2  and  C_3
REMARK    3  A    between atoms: C_7  and  C_8
REMARK    4  A    between atoms: C_8  and  C_9
REMARK    5  A    between atoms: N_11  and  C_12
REMARK    6  A    between atoms: N_16  and  C_17
REMARK    7  A    between atoms: C_17  and  C_18
REMARK                            x       y       z     vdW  Elec       q    Type
REMARK                         _______ _______ _______ _____ _____    ______ ____
ROOT
ATOM      1  C   UNL     1       7.431   6.092  16.960  0.00  0.00    +0.000 C 
ATOM      2  C   UNL     1       6.762   5.536  15.701  0.00  0.00    +0.000 C 
ATOM      3  C   UNL     1       5.245   5.545  15.849  0.00  0.00    +0.000 C 
ATOM      4  C   UNL     1       4.803   4.799  17.110  0.00  0.00    +0.000 C 
ATOM      5  N   UNL     1       5.423   5.328  18.341  0.00  0.00    +0.000 NA
ATOM      6  C   UNL     1       6.901   5.364  18.213  0.00  0.00    +0.000 C 
ENDROOT
BRANCH   1   9
ATOM      7  C   UNL     1       8.010   8.281  17.931  0.00  0.00    +0.000 C 
ATOM      8  O   UNL     1       8.763   7.770  18.759  0.00  0.00    +0.000 OA
ATOM      9  N   UNL     1       7.261   7.540  17.039  0.00  0.00    +0.000 N 
ATOM     10  H   UNL     1       6.869   8.002  16.226  0.00  0.00    +0.000 HD
BRANCH   7  11
ATOM     11  C   UNL     1       7.834   9.780  17.836  0.00  0.00    +0.000 C 
BRANCH  11  16
ATOM     12  C   UNL     1       9.910  11.670  20.414  0.00  0.00    +0.000 A 
ATOM     13  C   UNL     1      11.068  11.948  19.688  0.00  0.00    +0.000 A 
ATOM     14  C   UNL     1      11.185  11.536  18.359  0.00  0.00    +0.000 A 
ATOM     15  C   UNL     1      10.140  10.846  17.748  0.00  0.00    +0.000 A 
ATOM     16  C   UNL     1       8.963  10.566  18.460  0.00  0.00    +0.000 A 
ATOM     17  C   UNL     1       8.866  10.979  19.795  0.00  0.00    +0.000 A 
BRANCH  12  19
ATOM     18  C   UNL     1       9.695  13.512  21.896  0.00  0.00    +0.000 C 
ATOM     19  O   UNL     1       9.913  12.119  21.707  0.00  0.00    +0.000 OA
ENDBRANCH  12  19
ENDBRANCH  11  16
ENDBRANCH   7  11
ENDBRANCH   1   9
BRANCH   5  20
ATOM     20  C   UNL     1       5.091   4.460  19.504  0.00  0.00    +0.000 C 
BRANCH  20  21
ATOM     21  C   UNL     1       3.615   4.270  19.747  0.00  0.00    +0.000 A 
ATOM     22  C   UNL     1       2.818   5.320  20.221  0.00  0.00    +0.000 A 
ATOM     23  C   UNL     1       1.443   5.140  20.399  0.00  0.00    +0.000 A 
ATOM     24  C   UNL     1       0.851   3.911  20.109  0.00  0.00    +0.000 A 
ATOM     25  C   UNL     1       1.637   2.851  19.660  0.00  0.00    +0.000 A 
ATOM     26  C   UNL     1       3.006   3.035  19.492  0.00  0.00    +0.000 A 
ATOM     27  F   UNL     1       3.743   1.999  19.063  0.00  0.00    +0.000 F 
ENDBRANCH  20  21
ENDBRANCH   5  20
TORSDOF 6
ENDMDL
MODEL 8
REMARK VINA RESULT:      -8.0      1.613      2.314
REMARK  Name = 
REMARK  7 active torsions:
REMARK  status: ('A' for Active; 'I' for Inactive)
REMARK    1  A    between atoms: C_1  and  O_2
REMARK    2  A    between atoms: O_2  and  C_3
REMARK    3  A    between atoms: C_7  and  C_8
REMARK    4  A    between atoms: C_8  and  C_9
REMARK    5  A    between atoms: N_11  and  C_12
REMARK    6  A    between atoms: N_16  and  C_17
REMARK    7  A    between atoms: C_17  and  C_18
REMARK                            x       y       z     vdW  Elec       q    Type
REMARK                         _______ _______ _______ _____ _____    ______ ____
ROOT
ATOM      1  C   UNL     1       7.089   5.480  17.237  0.00  0.00    +0.000 C 
ATOM      2  C   UNL     1       7.597   4.895  15.917  0.00  0.00    +0.000 C 
ATOM      3  C   UNL     1       6.513   4.962  14.847  0.00  0.00    +0.000 C 
ATOM      4  C   UNL     1       5.224   4.285  15.316  0.00  0.00    +0.000 C 
ATOM      5  N   UNL     1       4.705   4.844  16.581  0.00  0.00    +0.000 NA
ATOM      6  C   UNL     1       5.750   4.823  17.633  0.00  0.00    +0.000 C 
ENDROOT
BRANCH   1   9
ATOM      7  C   UNL     1       7.822   7.728  17.930  0.00  0.00    +0.000 C 
ATOM      8  O   UNL     1       8.581   7.272  18.783  0.00  0.00    +0.000 OA
ATOM      9  N   UNL     1       6.998   6.935  17.156  0.00  0.00    +0.000 N 
ATOM     10  H   UNL     1       6.597   7.324  16.310  0.00  0.00    +0.000 HD
BRANCH   7  11
ATOM     11  C   UNL     1       7.720   9.214  17.671  0.00  0.00    +0.000 C 
BRANCH  11  16
ATOM     12  C   UNL     1      10.620  11.621  18.243  0.00  0.00    +0.000 A 
ATOM     13  C   UNL     1      10.702  11.629  19.635  0.00  0.00    +0.000 A 
ATOM     14  C   UNL     1       9.831  10.852  20.400  0.00  0.00    +0.000 A 
ATOM     15  C   UNL     1       8.872  10.058  19.774  0.00  0.00    +0.000 A 
ATOM     16  C   UNL     1       8.780  10.029  18.373  0.00  0.00    +0.000 A 
ATOM     17  C   UNL     1       9.657  10.822  17.622  0.00  0.00    +0.000 A 
BRANCH  12  19
ATOM     18  C   UNL     1      12.301  13.287  18.424  0.00  0.00    +0.000 C 
ATOM     19  O   UNL     1      11.523  12.425  17.602  0.00  0.00    +0.000 OA
ENDBRANCH  12  19
ENDBRANCH  11  16
ENDBRANCH   7  11
ENDBRANCH   1   9
BRANCH   5  20
ATOM     20  C   UNL     1       3.554   4.037  17.072  0.00  0.00    +0.000 C 
BRANCH  20  21
ATOM     21  C   UNL     1       3.065   4.409  18.450  0.00  0.00    +0.000 A 
ATOM     22  C   UNL     1       2.584   5.696  18.724  0.00  0.00    +0.000 A 
ATOM     23  C   UNL     1       2.094   6.012  19.995  0.00  0.00    +0.000 A 
ATOM     24  C   UNL     1       2.081   5.047  21.003  0.00  0.00    +0.000 A 
ATOM     25  C   UNL     1       2.580   3.771  20.749  0.00  0.00    +0.000 A 
ATOM     26  C   UNL     1       3.073   3.466  19.485  0.00  0.00    +0.000 A 
ATOM     27  F   UNL     1       3.551   2.232  19.265  0.00  0.00    +0.000 F 
ENDBRANCH  20  21
ENDBRANCH   5  20
TORSDOF 6
ENDMDL
MODEL 9
REMARK VINA RESULT:      -8.0      1.234      1.535
REMARK  Name = 
REMARK  7 active torsions:
REMARK  status: ('A' for Active; 'I' for Inactive)
REMARK    1  A    between atoms: C_1  and  O_2
REMARK    2  A    between atoms: O_2  and  C_3
REMARK    3  A    between atoms: C_7  and  C_8
REMARK    4  A    between atoms: C_8  and  C_9
REMARK    5  A    between atoms: N_11  and  C_12
REMARK    6  A    between atoms: N_16  and  C_17
REMARK    7  A    between atoms: C_17  and  C_18
REMARK                            x       y       z     vdW  Elec       q    Type
REMARK                         _______ _______ _______ _____ _____    ______ ____
ROOT
ATOM      1  C   UNL     1       7.462   5.708  16.949  0.00  0.00    +0.000 C 
ATOM      2  C   UNL     1       6.932   5.148  15.627  0.00  0.00    +0.000 C 
ATOM      3  C   UNL     1       5.409   5.083  15.643  0.00  0.00    +0.000 C 
ATOM      4  C   UNL     1       4.897   4.289  16.846  0.00  0.00    +0.000 C 
ATOM      5  N   UNL     1       5.382   4.820  18.136  0.00  0.00    +0.000 NA
ATOM      6  C   UNL     1       6.862   4.928  18.138  0.00  0.00    +0.000 C 
ENDROOT
BRANCH   1   9
ATOM      7  C   UNL     1       7.899   7.911  17.960  0.00  0.00    +0.000 C 
ATOM      8  O   UNL     1       8.653   7.430  18.804  0.00  0.00    +0.000 OA
ATOM      9  N   UNL     1       7.214   7.144  17.039  0.00  0.00    +0.000 N 
ATOM     10  H   UNL     1       6.823   7.595  16.220  0.00  0.00    +0.000 HD
BRANCH   7  11
ATOM     11  C   UNL     1       7.648   9.400  17.876  0.00  0.00    +0.000 C 
BRANCH  11  16
ATOM     12  C   UNL     1       9.936  11.345  20.224  0.00  0.00    +0.000 A 
ATOM     13  C   UNL     1      10.964  11.722  19.360  0.00  0.00    +0.000 A 
ATOM     14  C   UNL     1      10.924  11.360  18.012  0.00  0.00    +0.000 A 
ATOM     15  C   UNL     1       9.850  10.621  17.520  0.00  0.00    +0.000 A 
ATOM     16  C   UNL     1       8.801  10.241  18.373  0.00  0.00    +0.000 A 
ATOM     17  C   UNL     1       8.862  10.605  19.724  0.00  0.00    +0.000 A 
BRANCH  12  19
ATOM     18  C   UNL     1       9.368  12.916  21.911  0.00  0.00    +0.000 C 
ATOM     19  O   UNL     1      10.088  11.752  21.522  0.00  0.00    +0.000 OA
ENDBRANCH  12  19
ENDBRANCH  11  16
ENDBRANCH   7  11
ENDBRANCH   1   9
BRANCH   5  20
ATOM     20  C   UNL     1       4.995   3.912  19.250  0.00  0.00    +0.000 C 
BRANCH  20  21
ATOM     21  C   UNL     1       3.515   3.869  19.542  0.00  0.00    +0.000 A 
ATOM     22  C   UNL     1       2.775   2.692  19.364  0.00  0.00    +0.000 A 
ATOM     23  C   UNL     1       1.415   2.657  19.681  0.00  0.00    +0.000 A 
ATOM     24  C   UNL     1       0.778   3.795  20.177  0.00  0.00    +0.000 A 
ATOM     25  C   UNL     1       1.498   4.978  20.336  0.00  0.00    +0.000 A 
ATOM     26  C   UNL     1       2.850   5.008  20.011  0.00  0.00    +0.000 A 
ATOM     27  F   UNL     1       3.521   6.159  20.170  0.00  0.00    +0.000 F 
ENDBRANCH  20  21
ENDBRANCH   5  20
TORSDOF 6
ENDMDL
