MODEL 1
REMARK VINA RESULT:      -7.4      0.000      0.000
REMARK  Name = 
REMARK  4 active torsions:
REMARK  status: ('A' for Active; 'I' for Inactive)
REMARK    1  A    between atoms: C_1  and  C_2
REMARK    2  A    between atoms: C_2  and  N_3
REMARK    3  A    between atoms: C_6  and  C_7
REMARK    4  A    between atoms: C_9  and  C_10
REMARK                            x       y       z     vdW  Elec       q    Type
REMARK                         _______ _______ _______ _____ _____    ______ ____
ROOT
ATOM      1  C   UNL     1       4.144   4.200  16.923  0.00  0.00    +0.000 A 
ATOM      2  N   UNL     1       3.130   4.824  17.470  0.00  0.00    +0.000 NA
ATOM      3  C   UNL     1       2.667   3.912  18.375  0.00  0.00    +0.000 A 
ATOM      4  N   UNL     1       3.324   2.747  18.381  0.00  0.00    +0.000 NA
ATOM      5  O   UNL     1       4.317   2.935  17.402  0.00  0.00    +0.000 OA
ENDROOT
BRANCH   1   9
ATOM      6  N   UNL     1       7.224   6.207  17.250  0.00  0.00    +0.000 NA
ATOM      7  C   UNL     1       7.208   4.733  17.241  0.00  0.00    +0.000 C 
ATOM      8  C   UNL     1       6.490   4.160  16.016  0.00  0.00    +0.000 C 
ATOM      9  C   UNL     1       5.071   4.708  15.870  0.00  0.00    +0.000 C 
ATOM     10  C   UNL     1       5.128   6.243  15.905  0.00  0.00    +0.000 C 
ATOM     11  C   UNL     1       5.867   6.765  17.143  0.00  0.00    +0.000 C 
BRANCH   6  13
ATOM     12  C   UNL     1       7.865   5.678  19.637  0.00  0.00    +0.000 C 
ATOM     13  C   UNL     1       7.908   6.669  18.477  0.00  0.00    +0.000 C 
ENDBRANCH   6  13
ENDBRANCH   1   9
BRANCH   3  14
ATOM     14  C   UNL     1       1.502   4.216  19.254  0.00  0.00    +0.000 C 
ATOM     15  C   UNL     1       1.902   4.937  20.529  0.00  0.00    +0.000 C 
ATOM     16  C   UNL     1       2.255   3.804  21.473  0.00  0.00    +0.000 C 
ATOM     17  O   UNL     1       1.425   2.694  21.110  0.00  0.00    +0.000 OA
ATOM     18  C   UNL     1       0.859   2.953  19.811  0.00  0.00    +0.000 C 
ENDBRANCH   3  14
TORSDOF 3
ENDMDL
MODEL 2
REMARK VINA RESULT:      -7.4      1.399      2.660
REMARK  Name = 
REMARK  4 active torsions:
REMARK  status: ('A' for Active; 'I' for Inactive)
REMARK    1  A    between atoms: C_1  and  C_2
REMARK    2  A    between atoms: C_2  and  N_3
REMARK    3  A    between atoms: C_6  and  C_7
REMARK    4  A    between atoms: C_9  and  C_10
REMARK                            x       y       z     vdW  Elec       q    Type
REMARK                         _______ _______ _______ _____ _____    ______ ____
ROOT
ATOM      1  C   UNL     1       5.233   5.008  18.783  0.00  0.00    +0.000 A 
ATOM      2  N   UNL     1       3.937   5.165  18.664  0.00  0.00    +0.000 NA
ATOM      3  C   UNL     1       3.445   3.981  19.133  0.00  0.00    +0.000 A 
ATOM      4  N   UNL     1       4.377   3.093  19.497  0.00  0.00    +0.000 NA
ATOM      5  O   UNL     1       5.582   3.779  19.260  0.00  0.00    +0.000 OA
ENDROOT
BRANCH   1   9
ATOM      6  N   UNL     1       7.136   5.462  15.654  0.00  0.00    +0.000 NA
ATOM      7  C   UNL     1       5.880   6.173  15.955  0.00  0.00    +0.000 C 
ATOM      8  C   UNL     1       5.930   6.913  17.295  0.00  0.00    +0.000 C 
ATOM      9  C   UNL     1       6.308   5.988  18.451  0.00  0.00    +0.000 C 
ATOM     10  C   UNL     1       7.607   5.252  18.091  0.00  0.00    +0.000 C 
ATOM     11  C   UNL     1       7.511   4.540  16.736  0.00  0.00    +0.000 C 
BRANCH   6  13
ATOM     12  C   UNL     1       5.609   4.146  14.131  0.00  0.00    +0.000 C 
ATOM     13  C   UNL     1       6.987   4.758  14.363  0.00  0.00    +0.000 C 
ENDBRANCH   6  13
ENDBRANCH   1   9
BRANCH   3  14
ATOM     14  C   UNL     1       1.979   3.722  19.197  0.00  0.00    +0.000 C 
ATOM     15  C   UNL     1       1.317   4.392  20.389  0.00  0.00    +0.000 C 
ATOM     16  C   UNL     1       1.493   3.376  21.501  0.00  0.00    +0.000 C 
ATOM     17  O   UNL     1       1.482   2.083  20.882  0.00  0.00    +0.000 OA
ATOM     18  C   UNL     1       1.666   2.255  19.463  0.00  0.00    +0.000 C 
ENDBRANCH   3  14
TORSDOF 3
ENDMDL
MODEL 3
REMARK VINA RESULT:      -7.2      1.209      1.599
REMARK  Name = 
REMARK  4 active torsions:
REMARK  status: ('A' for Active; 'I' for Inactive)
REMARK    1  A    between atoms: C_1  and  C_2
REMARK    2  A    between atoms: C_2  and  N_3
REMARK    3  A    between atoms: C_6  and  C_7
REMARK    4  A    between atoms: C_9  and  C_10
REMARK                            x       y       z     vdW  Elec       q    Type
REMARK                         _______ _______ _______ _____ _____    ______ ____
ROOT
ATOM      1  C   UNL     1       4.736   3.961  17.504  0.00  0.00    +0.000 A 
ATOM      2  N   UNL     1       3.532   3.508  17.751  0.00  0.00    +0.000 NA
ATOM      3  C   UNL     1       3.631   3.076  19.042  0.00  0.00    +0.000 A 
ATOM      4  N   UNL     1       4.847   3.207  19.584  0.00  0.00    +0.000 NA
ATOM      5  O   UNL     1       5.595   3.800  18.550  0.00  0.00    +0.000 OA
ENDROOT
BRANCH   1   9
ATOM      6  N   UNL     1       7.179   6.689  17.035  0.00  0.00    +0.000 NA
ATOM      7  C   UNL     1       7.546   5.261  17.066  0.00  0.00    +0.000 C 
ATOM      8  C   UNL     1       6.745   4.426  16.062  0.00  0.00    +0.000 C 
ATOM      9  C   UNL     1       5.237   4.592  16.247  0.00  0.00    +0.000 C 
ATOM     10  C   UNL     1       4.899   6.090  16.231  0.00  0.00    +0.000 C 
ATOM     11  C   UNL     1       5.736   6.883  17.243  0.00  0.00    +0.000 C 
BRANCH   6  13
ATOM     12  C   UNL     1       8.072   8.915  17.831  0.00  0.00    +0.000 C 
ATOM     13  C   UNL     1       7.978   7.407  18.051  0.00  0.00    +0.000 C 
ENDBRANCH   6  13
ENDBRANCH   1   9
BRANCH   3  14
ATOM     14  C   UNL     1       2.462   2.485  19.754  0.00  0.00    +0.000 C 
ATOM     15  C   UNL     1       1.175   3.253  19.504  0.00  0.00    +0.000 C 
ATOM     16  C   UNL     1       1.207   4.338  20.563  0.00  0.00    +0.000 C 
ATOM     17  O   UNL     1       1.903   3.792  21.690  0.00  0.00    +0.000 OA
ATOM     18  C   UNL     1       2.593   2.600  21.267  0.00  0.00    +0.000 C 
ENDBRANCH   3  14
TORSDOF 3
ENDMDL
MODEL 4
REMARK VINA RESULT:      -7.2      1.733      3.032
REMARK  Name = 
REMARK  4 active torsions:
REMARK  status: ('A' for Active; 'I' for Inactive)
REMARK    1  A    between atoms: C_1  and  C_2
REMARK    2  A    between atoms: C_2  and  N_3
REMARK    3  A    between atoms: C_6  and  C_7
REMARK    4  A    between atoms: C_9  and  C_10
REMARK                            x       y       z     vdW  Elec       q    Type
REMARK                         _______ _______ _______ _____ _____    ______ ____
ROOT
ATOM      1  C   UNL     1       5.408   5.095  19.037  0.00  0.00    +0.000 A 
ATOM      2  N   UNL     1       4.116   5.270  19.170  0.00  0.00    +0.000 NA
ATOM      3  C   UNL     1       3.693   4.057  19.632  0.00  0.00    +0.000 A 
ATOM      4  N   UNL     1       4.657   3.137  19.751  0.00  0.00    +0.000 NA
ATOM      5  O   UNL     1       5.812   3.831  19.348  0.00  0.00    +0.000 OA
ENDROOT
BRANCH   1   9
ATOM      6  N   UNL     1       7.123   5.421  15.785  0.00  0.00    +0.000 NA
ATOM      7  C   UNL     1       5.858   6.104  16.112  0.00  0.00    +0.000 C 
ATOM      8  C   UNL     1       5.950   6.928  17.400  0.00  0.00    +0.000 C 
ATOM      9  C   UNL     1       6.425   6.090  18.587  0.00  0.00    +0.000 C 
ATOM     10  C   UNL     1       7.731   5.380  18.200  0.00  0.00    +0.000 C 
ATOM     11  C   UNL     1       7.590   4.581  16.898  0.00  0.00    +0.000 C 
BRANCH   6  13
ATOM     12  C   UNL     1       5.485   4.241  14.265  0.00  0.00    +0.000 C 
ATOM     13  C   UNL     1       6.932   4.633  14.549  0.00  0.00    +0.000 C 
ENDBRANCH   6  13
ENDBRANCH   1   9
BRANCH   3  14
ATOM     14  C   UNL     1       2.258   3.805  19.944  0.00  0.00    +0.000 C 
ATOM     15  C   UNL     1       1.898   2.330  19.893  0.00  0.00    +0.000 C 
ATOM     16  C   UNL     1       1.567   2.103  18.430  0.00  0.00    +0.000 C 
ATOM     17  O   UNL     1       1.026   3.334  17.936  0.00  0.00    +0.000 OA
ATOM     18  C   UNL     1       1.330   4.378  18.881  0.00  0.00    +0.000 C 
ENDBRANCH   3  14
TORSDOF 3
ENDMDL
MODEL 5
REMARK VINA RESULT:      -7.0      1.667      3.041
REMARK  Name = 
REMARK  4 active torsions:
REMARK  status: ('A' for Active; 'I' for Inactive)
REMARK    1  A    between atoms: C_1  and  C_2
REMARK    2  A    between atoms: C_2  and  N_3
REMARK    3  A    between atoms: C_6  and  C_7
REMARK    4  A    between atoms: C_9  and  C_10
REMARK                            x       y       z     vdW  Elec       q    Type
REMARK                         _______ _______ _______ _____ _____    ______ ____
ROOT
ATOM      1  C   UNL     1       5.389   5.110  18.904  0.00  0.00    +0.000 A 
ATOM      2  N   UNL     1       5.209   3.911  19.400  0.00  0.00    +0.000 NA
ATOM      3  C   UNL     1       3.850   3.790  19.417  0.00  0.00    +0.000 A 
ATOM      4  N   UNL     1       3.188   4.871  18.990  0.00  0.00    +0.000 NA
ATOM      5  O   UNL     1       4.220   5.764  18.648  0.00  0.00    +0.000 OA
ENDROOT
BRANCH   1   9
ATOM      6  N   UNL     1       7.244   5.445  15.731  0.00  0.00    +0.000 NA
ATOM      7  C   UNL     1       6.242   6.421  16.197  0.00  0.00    +0.000 C 
ATOM      8  C   UNL     1       6.536   6.937  17.609  0.00  0.00    +0.000 C 
ATOM      9  C   UNL     1       6.681   5.800  18.620  0.00  0.00    +0.000 C 
ATOM     10  C   UNL     1       7.715   4.796  18.089  0.00  0.00    +0.000 C 
ATOM     11  C   UNL     1       7.384   4.321  16.669  0.00  0.00    +0.000 C 
BRANCH   6  13
ATOM     12  C   UNL     1       5.843   3.852  14.358  0.00  0.00    +0.000 C 
ATOM     13  C   UNL     1       6.866   4.984  14.378  0.00  0.00    +0.000 C 
ENDBRANCH   6  13
ENDBRANCH   1   9
BRANCH   3  14
ATOM     14  C   UNL     1       3.188   2.546  19.902  0.00  0.00    +0.000 C 
ATOM     15  C   UNL     1       1.963   2.177  19.083  0.00  0.00    +0.000 C 
ATOM     16  C   UNL     1       0.851   2.966  19.746  0.00  0.00    +0.000 C 
ATOM     17  O   UNL     1       1.194   3.075  21.133  0.00  0.00    +0.000 OA
ATOM     18  C   UNL     1       2.583   2.721  21.288  0.00  0.00    +0.000 C 
ENDBRANCH   3  14
TORSDOF 3
ENDMDL
MODEL 6
REMARK VINA RESULT:      -7.0      1.606      2.930
REMARK  Name = 
REMARK  4 active torsions:
REMARK  status: ('A' for Active; 'I' for Inactive)
REMARK    1  A    between atoms: C_1  and  C_2
REMARK    2  A    between atoms: C_2  and  N_3
REMARK    3  A    between atoms: C_6  and  C_7
REMARK    4  A    between atoms: C_9  and  C_10
REMARK                            x       y       z     vdW  Elec       q    Type
REMARK                         _______ _______ _______ _____ _____    ______ ____
ROOT
ATOM      1  C   UNL     1       4.342   5.235  18.167  0.00  0.00    +0.000 A 
ATOM      2  N   UNL     1       4.450   4.182  18.938  0.00  0.00    +0.000 NA
ATOM      3  C   UNL     1       3.213   3.611  18.847  0.00  0.00    +0.000 A 
ATOM      4  N   UNL     1       2.342   4.285  18.089  0.00  0.00    +0.000 NA
ATOM      5  O   UNL     1       3.096   5.381  17.631  0.00  0.00    +0.000 OA
ENDROOT
BRANCH   1   9
ATOM      6  N   UNL     1       6.778   5.318  15.395  0.00  0.00    +0.000 NA
ATOM      7  C   UNL     1       5.441   5.936  15.325  0.00  0.00    +0.000 C 
ATOM      8  C   UNL     1       5.180   6.905  16.482  0.00  0.00    +0.000 C 
ATOM      9  C   UNL     1       5.391   6.247  17.845  0.00  0.00    +0.000 C 
ATOM     10  C   UNL     1       6.783   5.597  17.870  0.00  0.00    +0.000 C 
ATOM     11  C   UNL     1       6.999   4.648  16.686  0.00  0.00    +0.000 C 
BRANCH   6  13
ATOM     12  C   UNL     1       5.621   3.998  13.577  0.00  0.00    +0.000 C 
ATOM     13  C   UNL     1       6.930   4.382  14.261  0.00  0.00    +0.000 C 
ENDBRANCH   6  13
ENDBRANCH   1   9
BRANCH   3  14
ATOM     14  C   UNL     1       2.887   2.350  19.571  0.00  0.00    +0.000 C 
ATOM     15  C   UNL     1       1.429   2.277  19.992  0.00  0.00    +0.000 C 
ATOM     16  C   UNL     1       1.418   2.989  21.332  0.00  0.00    +0.000 C 
ATOM     17  O   UNL     1       2.699   2.754  21.931  0.00  0.00    +0.000 OA
ATOM     18  C   UNL     1       3.594   2.260  20.916  0.00  0.00    +0.000 C 
ENDBRANCH   3  14
TORSDOF 3
ENDMDL
MODEL 7
REMARK VINA RESULT:      -6.9      1.945      5.854
REMARK  Name = 
REMARK  4 active torsions:
REMARK  status: ('A' for Active; 'I' for Inactive)
REMARK    1  A    between atoms: C_1  and  C_2
REMARK    2  A    between atoms: C_2  and  N_3
REMARK    3  A    between atoms: C_6  and  C_7
REMARK    4  A    between atoms: C_9  and  C_10
REMARK                            x       y       z     vdW  Elec       q    Type
REMARK                         _______ _______ _______ _____ _____    ______ ____
ROOT
ATOM      1  C   UNL     1       4.119   3.824  17.765  0.00  0.00    +0.000 A 
ATOM      2  N   UNL     1       5.158   4.205  17.064  0.00  0.00    +0.000 NA
ATOM      3  C   UNL     1       6.125   4.358  18.015  0.00  0.00    +0.000 A 
ATOM      4  N   UNL     1       5.718   4.127  19.268  0.00  0.00    +0.000 NA
ATOM      5  O   UNL     1       4.366   3.771  19.105  0.00  0.00    +0.000 OA
ENDROOT
BRANCH   1   9
ATOM      6  N   UNL     1       1.084   2.880  19.640  0.00  0.00    +0.000 NA
ATOM      7  C   UNL     1       1.416   4.268  19.273  0.00  0.00    +0.000 C 
ATOM      8  C   UNL     1       1.677   4.433  17.773  0.00  0.00    +0.000 C 
ATOM      9  C   UNL     1       2.756   3.476  17.266  0.00  0.00    +0.000 C 
ATOM     10  C   UNL     1       2.384   2.046  17.687  0.00  0.00    +0.000 C 
ATOM     11  C   UNL     1       2.120   1.937  19.193  0.00  0.00    +0.000 C 
BRANCH   6  13
ATOM     12  C   UNL     1       2.145   2.990  21.931  0.00  0.00    +0.000 C 
ATOM     13  C   UNL     1       0.876   2.810  21.102  0.00  0.00    +0.000 C 
ENDBRANCH   6  13
ENDBRANCH   1   9
BRANCH   3  14
ATOM     14  C   UNL     1       7.509   4.775  17.654  0.00  0.00    +0.000 C 
ATOM     15  C   UNL     1       8.025   5.910  18.522  0.00  0.00    +0.000 C 
ATOM     16  C   UNL     1       7.519   7.150  17.810  0.00  0.00    +0.000 C 
ATOM     17  O   UNL     1       7.474   6.832  16.413  0.00  0.00    +0.000 OA
ATOM     18  C   UNL     1       7.576   5.402  16.267  0.00  0.00    +0.000 C 
ENDBRANCH   3  14
TORSDOF 3
ENDMDL
MODEL 8
REMARK VINA RESULT:      -6.9      1.131      1.427
REMARK  Name = 
REMARK  4 active torsions:
REMARK  status: ('A' for Active; 'I' for Inactive)
REMARK    1  A    between atoms: C_1  and  C_2
REMARK    2  A    between atoms: C_2  and  N_3
REMARK    3  A    between atoms: C_6  and  C_7
REMARK    4  A    between atoms: C_9  and  C_10
REMARK                            x       y       z     vdW  Elec       q    Type
REMARK                         _______ _______ _______ _____ _____    ______ ____
ROOT
ATOM      1  C   UNL     1       3.912   4.709  17.070  0.00  0.00    +0.000 A 
ATOM      2  N   UNL     1       3.267   3.688  17.579  0.00  0.00    +0.000 NA
ATOM      3  C   UNL     1       2.371   4.284  18.418  0.00  0.00    +0.000 A 
ATOM      4  N   UNL     1       2.461   5.617  18.476  0.00  0.00    +0.000 NA
ATOM      5  O   UNL     1       3.500   5.907  17.573  0.00  0.00    +0.000 OA
ENDROOT
BRANCH   1   9
ATOM      6  N   UNL     1       7.290   6.190  17.204  0.00  0.00    +0.000 NA
ATOM      7  C   UNL     1       6.983   4.817  17.645  0.00  0.00    +0.000 C 
ATOM      8  C   UNL     1       6.271   3.997  16.564  0.00  0.00    +0.000 C 
ATOM      9  C   UNL     1       5.007   4.687  16.056  0.00  0.00    +0.000 C 
ATOM     10  C   UNL     1       5.363   6.119  15.627  0.00  0.00    +0.000 C 
ATOM     11  C   UNL     1       6.085   6.892  16.737  0.00  0.00    +0.000 C 
BRANCH   6  13
ATOM     12  C   UNL     1       8.179   8.397  18.055  0.00  0.00    +0.000 C 
ATOM     13  C   UNL     1       7.947   6.911  18.314  0.00  0.00    +0.000 C 
ENDBRANCH   6  13
ENDBRANCH   1   9
BRANCH   3  14
ATOM     14  C   UNL     1       1.399   3.480  19.212  0.00  0.00    +0.000 C 
ATOM     15  C   UNL     1       1.006   4.155  20.515  0.00  0.00    +0.000 C 
ATOM     16  C   UNL     1       2.087   3.707  21.479  0.00  0.00    +0.000 C 
ATOM     17  O   UNL     1       2.500   2.402  21.054  0.00  0.00    +0.000 OA
ATOM     18  C   UNL     1       2.008   2.179  19.718  0.00  0.00    +0.000 C 
ENDBRANCH   3  14
TORSDOF 3
ENDMDL
MODEL 9
REMARK VINA RESULT:      -6.8      1.370      2.742
REMARK  Name = 
REMARK  4 active torsions:
REMARK  status: ('A' for Active; 'I' for Inactive)
REMARK    1  A    between atoms: C_1  and  C_2
REMARK    2  A    between atoms: C_2  and  N_3
REMARK    3  A    between atoms: C_6  and  C_7
REMARK    4  A    between atoms: C_9  and  C_10
REMARK                            x       y       z     vdW  Elec       q    Type
REMARK                         _______ _______ _______ _____ _____    ______ ____
ROOT
ATOM      1  C   UNL     1       4.756   4.581  18.240  0.00  0.00    +0.000 A 
ATOM      2  N   UNL     1       3.987   4.282  19.258  0.00  0.00    +0.000 NA
ATOM      3  C   UNL     1       3.408   3.110  18.866  0.00  0.00    +0.000 A 
ATOM      4  N   UNL     1       3.756   2.697  17.642  0.00  0.00    +0.000 NA
ATOM      5  O   UNL     1       4.661   3.686  17.216  0.00  0.00    +0.000 OA
ENDROOT
BRANCH   1   9
ATOM      6  N   UNL     1       7.011   5.494  15.465  0.00  0.00    +0.000 NA
ATOM      7  C   UNL     1       5.613   5.951  15.564  0.00  0.00    +0.000 C 
ATOM      8  C   UNL     1       5.311   6.637  16.900  0.00  0.00    +0.000 C 
ATOM      9  C   UNL     1       5.668   5.754  18.095  0.00  0.00    +0.000 C 
ATOM     10  C   UNL     1       7.122   5.282  17.944  0.00  0.00    +0.000 C 
ATOM     11  C   UNL     1       7.376   4.615  16.587  0.00  0.00    +0.000 C 
BRANCH   6  13
ATOM     12  C   UNL     1       6.032   3.948  13.722  0.00  0.00    +0.000 C 
ATOM     13  C   UNL     1       7.203   4.823  14.161  0.00  0.00    +0.000 C 
ENDBRANCH   6  13
ENDBRANCH   1   9
BRANCH   3  14
ATOM     14  C   UNL     1       2.448   2.386  19.747  0.00  0.00    +0.000 C 
ATOM     15  C   UNL     1       1.008   2.814  19.520  0.00  0.00    +0.000 C 
ATOM     16  C   UNL     1       0.856   4.018  20.429  0.00  0.00    +0.000 C 
ATOM     17  O   UNL     1       1.724   3.801  21.548  0.00  0.00    +0.000 OA
ATOM     18  C   UNL     1       2.640   2.739  21.216  0.00  0.00    +0.000 C 
ENDBRANCH   3  14
TORSDOF 3
ENDMDL
