MODEL 1
REMARK VINA RESULT:      -8.2      0.000      0.000
REMARK  Name = 
REMARK  13 active torsions:
REMARK  status: ('A' for Active; 'I' for Inactive)
REMARK    1  A    between atoms: C_1  and  C_2
REMARK    2  A    between atoms: C_2  and  O_3
REMARK    3  A    between atoms: O_3  and  C_4
REMARK    4  A    between atoms: C_4  and  O_6
REMARK    5  A    between atoms: O_6  and  C_7
REMARK    6  A    between atoms: C_13  and  C_14
REMARK    7  A    between atoms: C_14  and  O_16
REMARK    8  A    between atoms: O_16  and  C_17
REMARK    9  A    between atoms: C_17  and  C_18
REMARK   10  A    between atoms: C_29  and  C_30
REMARK   11  A    between atoms: C_30  and  O_32
REMARK   12  A    between atoms: O_32  and  C_33
REMARK   13  A    between atoms: C_33  and  C_34
REMARK                            x       y       z     vdW  Elec       q    Type
REMARK                         _______ _______ _______ _____ _____    ______ ____
ROOT
ATOM      1  C   UNL     1       2.768   6.187  19.540  0.00  0.00    +0.000 A 
ATOM      2  C   UNL     1       1.974   7.213  19.994  0.00  0.00    +0.000 A 
ATOM      3  N   UNL     1       1.257   7.244  21.147  0.00  0.00    +0.000 N 
ATOM      4  C   UNL     1       0.740   8.481  21.368  0.00  0.00    +0.000 A 
ATOM      5  C   UNL     1      -0.018   8.884  22.484  0.00  0.00    +0.000 A 
ATOM      6  C   UNL     1      -0.463  10.192  22.504  0.00  0.00    +0.000 A 
ATOM      7  C   UNL     1      -0.144  11.065  21.475  0.00  0.00    +0.000 A 
ATOM      8  C   UNL     1       0.649  10.636  20.351  0.00  0.00    +0.000 A 
ATOM      9  C   UNL     1       1.109   9.290  20.275  0.00  0.00    +0.000 A 
ATOM     10  C   UNL     1       1.920   8.452  19.350  0.00  0.00    +0.000 A 
ATOM     11  C   UNL     1       2.657   8.570  18.085  0.00  0.00    +0.000 A 
ATOM     12  C   UNL     1       3.462   7.467  17.565  0.00  0.00    +0.000 A 
ATOM     13  C   UNL     1       3.595   6.422  18.469  0.00  0.00    +0.000 A 
ATOM     14  N   UNL     1       4.795   5.835  18.221  0.00  0.00    +0.000 N 
ATOM     15  C   UNL     1       5.565   6.734  17.499  0.00  0.00    +0.000 A 
ATOM     16  C   UNL     1       6.883   6.566  17.116  0.00  0.00    +0.000 A 
ATOM     17  C   UNL     1       6.804   5.426  16.341  0.00  0.00    +0.000 A 
ATOM     18  C   UNL     1       5.917   5.364  15.255  0.00  0.00    +0.000 A 
ATOM     19  C   UNL     1       4.816   6.333  15.305  0.00  0.00    +0.000 A 
ATOM     20  C   UNL     1       4.600   7.175  16.563  0.00  0.00    +0.000 A 
ATOM     21  H   UNL     1       1.196   6.471  21.795  0.00  0.00    +0.000 HD
ATOM     22  H   UNL     1       5.177   5.049  18.724  0.00  0.00    +0.000 HD
ENDROOT
BRANCH   7  23
ATOM     23  C   UNL     1      -0.785  12.390  21.552  0.00  0.00    +0.000 C 
ATOM     24  O   UNL     1      -0.160  13.435  21.638  0.00  0.00    +0.000 OA
BRANCH  23  25
ATOM     25  O   UNL     1      -2.125  12.280  21.578  0.00  0.00    +0.000 OA
BRANCH  25  26
ATOM     26  C   UNL     1      -2.798  13.168  22.490  0.00  0.00    +0.000 C 
ATOM     27  C   UNL     1      -3.273  12.333  23.663  0.00  0.00    +0.000 C 
ENDBRANCH  25  26
ENDBRANCH  23  25
ENDBRANCH   7  23
BRANCH  18  28
ATOM     28  C   UNL     1       6.409   4.231  14.330  0.00  0.00    +0.000 C 
ATOM     29  O   UNL     1       6.438   3.094  14.811  0.00  0.00    +0.000 OA
BRANCH  28  30
ATOM     30  O   UNL     1       6.794   4.417  13.037  0.00  0.00    +0.000 OA
BRANCH  30  31
ATOM     31  C   UNL     1       6.327   3.339  12.142  0.00  0.00    +0.000 C 
ATOM     32  C   UNL     1       4.838   3.373  11.779  0.00  0.00    +0.000 C 
ENDBRANCH  30  31
ENDBRANCH  28  30
ENDBRANCH  18  28
BRANCH   1  33
ATOM     33  O   UNL     1       2.977   5.051  20.342  0.00  0.00    +0.000 OA
BRANCH  33  34
ATOM     34  C   UNL     1       1.949   4.140  20.223  0.00  0.00    +0.000 C 
ATOM     35  O   UNL     1       0.957   4.027  20.925  0.00  0.00    +0.000 OA
BRANCH  34  36
ATOM     36  O   UNL     1       2.183   3.429  19.090  0.00  0.00    +0.000 OA
BRANCH  36  38
ATOM     37  C   UNL     1       3.844   2.490  17.693  0.00  0.00    +0.000 C 
ATOM     38  C   UNL     1       3.386   2.662  19.127  0.00  0.00    +0.000 C 
ENDBRANCH  36  38
ENDBRANCH  34  36
ENDBRANCH  33  34
ENDBRANCH   1  33
TORSDOF 10
ENDMDL
MODEL 2
REMARK VINA RESULT:      -8.1      0.817      1.232
REMARK  Name = 
REMARK  13 active torsions:
REMARK  status: ('A' for Active; 'I' for Inactive)
REMARK    1  A    between atoms: C_1  and  C_2
REMARK    2  A    between atoms: C_2  and  O_3
REMARK    3  A    between atoms: O_3  and  C_4
REMARK    4  A    between atoms: C_4  and  O_6
REMARK    5  A    between atoms: O_6  and  C_7
REMARK    6  A    between atoms: C_13  and  C_14
REMARK    7  A    between atoms: C_14  and  O_16
REMARK    8  A    between atoms: O_16  and  C_17
REMARK    9  A    between atoms: C_17  and  C_18
REMARK   10  A    between atoms: C_29  and  C_30
REMARK   11  A    between atoms: C_30  and  O_32
REMARK   12  A    between atoms: O_32  and  C_33
REMARK   13  A    between atoms: C_33  and  C_34
REMARK                            x       y       z     vdW  Elec       q    Type
REMARK                         _______ _______ _______ _____ _____    ______ ____
ROOT
ATOM      1  C   UNL     1       2.671   6.280  19.659  0.00  0.00    +0.000 A 
ATOM      2  C   UNL     1       1.877   7.312  20.096  0.00  0.00    +0.000 A 
ATOM      3  N   UNL     1       1.157   7.360  21.246  0.00  0.00    +0.000 N 
ATOM      4  C   UNL     1       0.640   8.601  21.448  0.00  0.00    +0.000 A 
ATOM      5  C   UNL     1      -0.120   9.020  22.556  0.00  0.00    +0.000 A 
ATOM      6  C   UNL     1      -0.565  10.329  22.556  0.00  0.00    +0.000 A 
ATOM      7  C   UNL     1      -0.243  11.187  21.516  0.00  0.00    +0.000 A 
ATOM      8  C   UNL     1       0.554  10.741  20.400  0.00  0.00    +0.000 A 
ATOM      9  C   UNL     1       1.013   9.394  20.345  0.00  0.00    +0.000 A 
ATOM     10  C   UNL     1       1.826   8.542  19.434  0.00  0.00    +0.000 A 
ATOM     11  C   UNL     1       2.566   8.642  18.169  0.00  0.00    +0.000 A 
ATOM     12  C   UNL     1       3.371   7.530  17.668  0.00  0.00    +0.000 A 
ATOM     13  C   UNL     1       3.502   6.499  18.587  0.00  0.00    +0.000 A 
ATOM     14  N   UNL     1       4.702   5.907  18.351  0.00  0.00    +0.000 N 
ATOM     15  C   UNL     1       5.475   6.795  17.618  0.00  0.00    +0.000 A 
ATOM     16  C   UNL     1       6.793   6.621  17.241  0.00  0.00    +0.000 A 
ATOM     17  C   UNL     1       6.716   5.470  16.483  0.00  0.00    +0.000 A 
ATOM     18  C   UNL     1       5.831   5.393  15.395  0.00  0.00    +0.000 A 
ATOM     19  C   UNL     1       4.732   6.363  15.428  0.00  0.00    +0.000 A 
ATOM     20  C   UNL     1       4.512   7.223  16.673  0.00  0.00    +0.000 A 
ATOM     21  H   UNL     1       1.093   6.597  21.905  0.00  0.00    +0.000 HD
ATOM     22  H   UNL     1       5.082   5.128  18.866  0.00  0.00    +0.000 HD
ENDROOT
BRANCH   7  23
ATOM     23  C   UNL     1      -0.883  12.513  21.572  0.00  0.00    +0.000 C 
ATOM     24  O   UNL     1      -1.969  12.714  22.091  0.00  0.00    +0.000 OA
BRANCH  23  25
ATOM     25  O   UNL     1      -0.145  13.435  20.927  0.00  0.00    +0.000 OA
BRANCH  25  26
ATOM     26  C   UNL     1       0.666  14.274  21.770  0.00  0.00    +0.000 C 
ATOM     27  C   UNL     1       0.016  15.642  21.804  0.00  0.00    +0.000 C 
ENDBRANCH  25  26
ENDBRANCH  23  25
ENDBRANCH   7  23
BRANCH  18  28
ATOM     28  C   UNL     1       6.325   4.246  14.488  0.00  0.00    +0.000 C 
ATOM     29  O   UNL     1       6.358   3.117  14.988  0.00  0.00    +0.000 OA
BRANCH  28  30
ATOM     30  O   UNL     1       6.709   4.412  13.192  0.00  0.00    +0.000 OA
BRANCH  30  31
ATOM     31  C   UNL     1       6.267   3.305  12.321  0.00  0.00    +0.000 C 
ATOM     32  C   UNL     1       4.821   3.388  11.819  0.00  0.00    +0.000 C 
ENDBRANCH  30  31
ENDBRANCH  28  30
ENDBRANCH  18  28
BRANCH   1  33
ATOM     33  O   UNL     1       2.877   5.155  20.478  0.00  0.00    +0.000 OA
BRANCH  33  34
ATOM     34  C   UNL     1       2.150   4.065  20.049  0.00  0.00    +0.000 C 
ATOM     35  O   UNL     1       0.940   3.902  20.095  0.00  0.00    +0.000 OA
BRANCH  34  36
ATOM     36  O   UNL     1       3.026   3.217  19.452  0.00  0.00    +0.000 OA
BRANCH  36  38
ATOM     37  C   UNL     1       2.742   3.266  17.106  0.00  0.00    +0.000 C 
ATOM     38  C   UNL     1       2.466   2.476  18.368  0.00  0.00    +0.000 C 
ENDBRANCH  36  38
ENDBRANCH  34  36
ENDBRANCH  33  34
ENDBRANCH   1  33
TORSDOF 10
ENDMDL
MODEL 3
REMARK VINA RESULT:      -8.1      0.942      1.436
REMARK  Name = 
REMARK  13 active torsions:
REMARK  status: ('A' for Active; 'I' for Inactive)
REMARK    1  A    between atoms: C_1  and  C_2
REMARK    2  A    between atoms: C_2  and  O_3
REMARK    3  A    between atoms: O_3  and  C_4
REMARK    4  A    between atoms: C_4  and  O_6
REMARK    5  A    between atoms: O_6  and  C_7
REMARK    6  A    between atoms: C_13  and  C_14
REMARK    7  A    between atoms: C_14  and  O_16
REMARK    8  A    between atoms: O_16  and  C_17
REMARK    9  A    between atoms: C_17  and  C_18
REMARK   10  A    between atoms: C_29  and  C_30
REMARK   11  A    between atoms: C_30  and  O_32
REMARK   12  A    between atoms: O_32  and  C_33
REMARK   13  A    between atoms: C_33  and  C_34
REMARK                            x       y       z     vdW  Elec       q    Type
REMARK                         _______ _______ _______ _____ _____    ______ ____
ROOT
ATOM      1  C   UNL     1       2.911   6.109  19.497  0.00  0.00    +0.000 A 
ATOM      2  C   UNL     1       2.065   7.080  19.976  0.00  0.00    +0.000 A 
ATOM      3  N   UNL     1       1.337   7.038  21.122  0.00  0.00    +0.000 N 
ATOM      4  C   UNL     1       0.759   8.242  21.378  0.00  0.00    +0.000 A 
ATOM      5  C   UNL     1      -0.027   8.571  22.499  0.00  0.00    +0.000 A 
ATOM      6  C   UNL     1      -0.534   9.855  22.557  0.00  0.00    +0.000 A 
ATOM      7  C   UNL     1      -0.249  10.776  21.561  0.00  0.00    +0.000 A 
ATOM      8  C   UNL     1       0.575  10.423  20.432  0.00  0.00    +0.000 A 
ATOM      9  C   UNL     1       1.099   9.104  20.317  0.00  0.00    +0.000 A 
ATOM     10  C   UNL     1       1.957   8.336  19.372  0.00  0.00    +0.000 A 
ATOM     11  C   UNL     1       2.699   8.532  18.120  0.00  0.00    +0.000 A 
ATOM     12  C   UNL     1       3.560   7.486  17.572  0.00  0.00    +0.000 A 
ATOM     13  C   UNL     1       3.736   6.419  18.443  0.00  0.00    +0.000 A 
ATOM     14  N   UNL     1       4.965   5.898  18.188  0.00  0.00    +0.000 N 
ATOM     15  C   UNL     1       5.697   6.856  17.505  0.00  0.00    +0.000 A 
ATOM     16  C   UNL     1       7.025   6.764  17.130  0.00  0.00    +0.000 A 
ATOM     17  C   UNL     1       7.008   5.648  16.318  0.00  0.00    +0.000 A 
ATOM     18  C   UNL     1       6.134   5.581  15.221  0.00  0.00    +0.000 A 
ATOM     19  C   UNL     1       4.988   6.493  15.291  0.00  0.00    +0.000 A 
ATOM     20  C   UNL     1       4.720   7.282  16.574  0.00  0.00    +0.000 A 
ATOM     21  H   UNL     1       1.307   6.243  21.743  0.00  0.00    +0.000 HD
ATOM     22  H   UNL     1       5.379   5.115  18.669  0.00  0.00    +0.000 HD
ENDROOT
BRANCH   7  23
ATOM     23  C   UNL     1      -0.953  12.065  21.675  0.00  0.00    +0.000 C 
ATOM     24  O   UNL     1      -1.984  12.324  21.074  0.00  0.00    +0.000 OA
BRANCH  23  25
ATOM     25  O   UNL     1      -0.277  12.919  22.465  0.00  0.00    +0.000 OA
BRANCH  25  26
ATOM     26  C   UNL     1      -0.791  14.263  22.501  0.00  0.00    +0.000 C 
ATOM     27  C   UNL     1      -1.377  14.485  23.881  0.00  0.00    +0.000 C 
ENDBRANCH  25  26
ENDBRANCH  23  25
ENDBRANCH   7  23
BRANCH  18  28
ATOM     28  C   UNL     1       6.688   4.504  14.264  0.00  0.00    +0.000 C 
ATOM     29  O   UNL     1       7.860   4.636  13.897  0.00  0.00    +0.000 OA
BRANCH  28  30
ATOM     30  O   UNL     1       5.968   3.436  13.822  0.00  0.00    +0.000 OA
BRANCH  30  31
ATOM     31  C   UNL     1       5.999   3.297  12.352  0.00  0.00    +0.000 C 
ATOM     32  C   UNL     1       4.634   3.296  11.654  0.00  0.00    +0.000 C 
ENDBRANCH  30  31
ENDBRANCH  28  30
ENDBRANCH  18  28
BRANCH   1  33
ATOM     33  O   UNL     1       3.167   4.958  20.263  0.00  0.00    +0.000 OA
BRANCH  33  34
ATOM     34  C   UNL     1       2.949   3.802  19.545  0.00  0.00    +0.000 C 
ATOM     35  O   UNL     1       3.778   3.020  19.106  0.00  0.00    +0.000 OA
BRANCH  34  36
ATOM     36  O   UNL     1       1.605   3.617  19.495  0.00  0.00    +0.000 OA
BRANCH  36  38
ATOM     37  C   UNL     1       1.341   2.627  21.626  0.00  0.00    +0.000 C 
ATOM     38  C   UNL     1       1.162   2.421  20.137  0.00  0.00    +0.000 C 
ENDBRANCH  36  38
ENDBRANCH  34  36
ENDBRANCH  33  34
ENDBRANCH   1  33
TORSDOF 10
ENDMDL
MODEL 4
REMARK VINA RESULT:      -7.7      1.052      1.279
REMARK  Name = 
REMARK  13 active torsions:
REMARK  status: ('A' for Active; 'I' for Inactive)
REMARK    1  A    between atoms: C_1  and  C_2
REMARK    2  A    between atoms: C_2  and  O_3
REMARK    3  A    between atoms: O_3  and  C_4
REMARK    4  A    between atoms: C_4  and  O_6
REMARK    5  A    between atoms: O_6  and  C_7
REMARK    6  A    between atoms: C_13  and  C_14
REMARK    7  A    between atoms: C_14  and  O_16
REMARK    8  A    between atoms: O_16  and  C_17
REMARK    9  A    between atoms: C_17  and  C_18
REMARK   10  A    between atoms: C_29  and  C_30
REMARK   11  A    between atoms: C_30  and  O_32
REMARK   12  A    between atoms: O_32  and  C_33
REMARK   13  A    between atoms: C_33  and  C_34
REMARK                            x       y       z     vdW  Elec       q    Type
REMARK                         _______ _______ _______ _____ _____    ______ ____
ROOT
ATOM      1  C   UNL     1       2.689   6.011  19.241  0.00  0.00    +0.000 A 
ATOM      2  C   UNL     1       1.922   7.014  19.781  0.00  0.00    +0.000 A 
ATOM      3  N   UNL     1       1.131   6.937  20.883  0.00  0.00    +0.000 N 
ATOM      4  C   UNL     1       0.666   8.164  21.238  0.00  0.00    +0.000 A 
ATOM      5  C   UNL     1      -0.143   8.462  22.350  0.00  0.00    +0.000 A 
ATOM      6  C   UNL     1      -0.519   9.781  22.520  0.00  0.00    +0.000 A 
ATOM      7  C   UNL     1      -0.087  10.760  21.639  0.00  0.00    +0.000 A 
ATOM      8  C   UNL     1       0.757  10.435  20.517  0.00  0.00    +0.000 A 
ATOM      9  C   UNL     1       1.150   9.086  20.288  0.00  0.00    +0.000 A 
ATOM     10  C   UNL     1       1.976   8.328  19.308  0.00  0.00    +0.000 A 
ATOM     11  C   UNL     1       2.803   8.567  18.117  0.00  0.00    +0.000 A 
ATOM     12  C   UNL     1       3.581   7.494  17.502  0.00  0.00    +0.000 A 
ATOM     13  C   UNL     1       3.599   6.333  18.263  0.00  0.00    +0.000 A 
ATOM     14  N   UNL     1       4.780   5.712  18.010  0.00  0.00    +0.000 N 
ATOM     15  C   UNL     1       5.643   6.649  17.464  0.00  0.00    +0.000 A 
ATOM     16  C   UNL     1       6.973   6.453  17.142  0.00  0.00    +0.000 A 
ATOM     17  C   UNL     1       6.887   5.432  16.217  0.00  0.00    +0.000 A 
ATOM     18  C   UNL     1       6.073   5.567  15.081  0.00  0.00    +0.000 A 
ATOM     19  C   UNL     1       5.024   6.586  15.195  0.00  0.00    +0.000 A 
ATOM     20  C   UNL     1       4.768   7.267  16.540  0.00  0.00    +0.000 A 
ATOM     21  H   UNL     1       0.986   6.092  21.415  0.00  0.00    +0.000 HD
ATOM     22  H   UNL     1       5.086   4.845  18.425  0.00  0.00    +0.000 HD
ENDROOT
BRANCH   7  23
ATOM     23  C   UNL     1      -0.661  12.100  21.855  0.00  0.00    +0.000 C 
ATOM     24  O   UNL     1      -0.077  12.995  22.446  0.00  0.00    +0.000 OA
BRANCH  23  25
ATOM     25  O   UNL     1      -1.916  12.174  21.377  0.00  0.00    +0.000 OA
BRANCH  25  26
ATOM     26  C   UNL     1      -2.061  12.889  20.136  0.00  0.00    +0.000 C 
ATOM     27  C   UNL     1      -2.589  11.906  19.109  0.00  0.00    +0.000 C 
ENDBRANCH  25  26
ENDBRANCH  23  25
ENDBRANCH   7  23
BRANCH  18  28
ATOM     28  C   UNL     1       6.566   4.538  14.042  0.00  0.00    +0.000 C 
ATOM     29  O   UNL     1       7.635   4.789  13.475  0.00  0.00    +0.000 OA
BRANCH  28  30
ATOM     30  O   UNL     1       5.903   3.389  13.735  0.00  0.00    +0.000 OA
BRANCH  30  31
ATOM     31  C   UNL     1       5.848   3.135  12.281  0.00  0.00    +0.000 C 
ATOM     32  C   UNL     1       4.475   3.316  11.624  0.00  0.00    +0.000 C 
ENDBRANCH  30  31
ENDBRANCH  28  30
ENDBRANCH  18  28
BRANCH   1  33
ATOM     33  O   UNL     1       2.784   4.769  19.894  0.00  0.00    +0.000 OA
BRANCH  33  34
ATOM     34  C   UNL     1       2.026   3.800  19.270  0.00  0.00    +0.000 C 
ATOM     35  O   UNL     1       1.147   3.952  18.437  0.00  0.00    +0.000 OA
BRANCH  34  36
ATOM     36  O   UNL     1       2.511   2.599  19.676  0.00  0.00    +0.000 OA
BRANCH  36  38
ATOM     37  C   UNL     1       4.671   1.915  20.353  0.00  0.00    +0.000 C 
ATOM     38  C   UNL     1       3.433   2.684  20.763  0.00  0.00    +0.000 C 
ENDBRANCH  36  38
ENDBRANCH  34  36
ENDBRANCH  33  34
ENDBRANCH   1  33
TORSDOF 10
ENDMDL
MODEL 5
REMARK VINA RESULT:      -7.7      1.018      1.772
REMARK  Name = 
REMARK  13 active torsions:
REMARK  status: ('A' for Active; 'I' for Inactive)
REMARK    1  A    between atoms: C_1  and  C_2
REMARK    2  A    between atoms: C_2  and  O_3
REMARK    3  A    between atoms: O_3  and  C_4
REMARK    4  A    between atoms: C_4  and  O_6
REMARK    5  A    between atoms: O_6  and  C_7
REMARK    6  A    between atoms: C_13  and  C_14
REMARK    7  A    between atoms: C_14  and  O_16
REMARK    8  A    between atoms: O_16  and  C_17
REMARK    9  A    between atoms: C_17  and  C_18
REMARK   10  A    between atoms: C_29  and  C_30
REMARK   11  A    between atoms: C_30  and  O_32
REMARK   12  A    between atoms: O_32  and  C_33
REMARK   13  A    between atoms: C_33  and  C_34
REMARK                            x       y       z     vdW  Elec       q    Type
REMARK                         _______ _______ _______ _____ _____    ______ ____
ROOT
ATOM      1  C   UNL     1       2.913   6.123  19.423  0.00  0.00    +0.000 A 
ATOM      2  C   UNL     1       2.066   7.099  19.889  0.00  0.00    +0.000 A 
ATOM      3  N   UNL     1       1.325   7.063  21.027  0.00  0.00    +0.000 N 
ATOM      4  C   UNL     1       0.749   8.270  21.274  0.00  0.00    +0.000 A 
ATOM      5  C   UNL     1      -0.048   8.605  22.384  0.00  0.00    +0.000 A 
ATOM      6  C   UNL     1      -0.550   9.892  22.433  0.00  0.00    +0.000 A 
ATOM      7  C   UNL     1      -0.250  10.808  21.437  0.00  0.00    +0.000 A 
ATOM      8  C   UNL     1       0.584  10.449  20.318  0.00  0.00    +0.000 A 
ATOM      9  C   UNL     1       1.104   9.127  20.213  0.00  0.00    +0.000 A 
ATOM     10  C   UNL     1       1.970   8.353  19.281  0.00  0.00    +0.000 A 
ATOM     11  C   UNL     1       2.726   8.542  18.036  0.00  0.00    +0.000 A 
ATOM     12  C   UNL     1       3.589   7.491  17.501  0.00  0.00    +0.000 A 
ATOM     13  C   UNL     1       3.750   6.426  18.377  0.00  0.00    +0.000 A 
ATOM     14  N   UNL     1       4.980   5.899  18.137  0.00  0.00    +0.000 N 
ATOM     15  C   UNL     1       5.724   6.852  17.459  0.00  0.00    +0.000 A 
ATOM     16  C   UNL     1       7.055   6.754  17.099  0.00  0.00    +0.000 A 
ATOM     17  C   UNL     1       7.042   5.635  16.290  0.00  0.00    +0.000 A 
ATOM     18  C   UNL     1       6.180   5.568  15.183  0.00  0.00    +0.000 A 
ATOM     19  C   UNL     1       5.037   6.485  15.238  0.00  0.00    +0.000 A 
ATOM     20  C   UNL     1       4.759   7.279  16.516  0.00  0.00    +0.000 A 
ATOM     21  H   UNL     1       1.285   6.270  21.650  0.00  0.00    +0.000 HD
ATOM     22  H   UNL     1       5.386   5.116  18.625  0.00  0.00    +0.000 HD
ENDROOT
BRANCH   7  23
ATOM     23  C   UNL     1      -0.950  12.101  21.539  0.00  0.00    +0.000 C 
ATOM     24  O   UNL     1      -1.572  12.453  22.529  0.00  0.00    +0.000 OA
BRANCH  23  25
ATOM     25  O   UNL     1      -0.862  12.793  20.389  0.00  0.00    +0.000 OA
BRANCH  25  26
ATOM     26  C   UNL     1      -0.249  14.091  20.496  0.00  0.00    +0.000 C 
ATOM     27  C   UNL     1       0.952  14.100  19.572  0.00  0.00    +0.000 C 
ENDBRANCH  25  26
ENDBRANCH  23  25
ENDBRANCH   7  23
BRANCH  18  28
ATOM     28  C   UNL     1       6.740   4.486  14.236  0.00  0.00    +0.000 C 
ATOM     29  O   UNL     1       7.910   4.625  13.864  0.00  0.00    +0.000 OA
BRANCH  28  30
ATOM     30  O   UNL     1       6.028   3.407  13.807  0.00  0.00    +0.000 OA
BRANCH  30  31
ATOM     31  C   UNL     1       5.802   3.417  12.348  0.00  0.00    +0.000 C 
ATOM     32  C   UNL     1       6.002   2.076  11.634  0.00  0.00    +0.000 C 
ENDBRANCH  30  31
ENDBRANCH  28  30
ENDBRANCH  18  28
BRANCH   1  33
ATOM     33  O   UNL     1       3.156   4.974  20.195  0.00  0.00    +0.000 OA
BRANCH  33  34
ATOM     34  C   UNL     1       2.951   3.816  19.475  0.00  0.00    +0.000 C 
ATOM     35  O   UNL     1       3.780   3.132  18.897  0.00  0.00    +0.000 OA
BRANCH  34  36
ATOM     36  O   UNL     1       1.638   3.496  19.609  0.00  0.00    +0.000 OA
BRANCH  36  38
ATOM     37  C   UNL     1       1.759   2.385  21.693  0.00  0.00    +0.000 C 
ATOM     38  C   UNL     1       1.161   3.563  20.952  0.00  0.00    +0.000 C 
ENDBRANCH  36  38
ENDBRANCH  34  36
ENDBRANCH  33  34
ENDBRANCH   1  33
TORSDOF 10
ENDMDL
MODEL 6
REMARK VINA RESULT:      -7.6      2.248     10.011
REMARK  Name = 
REMARK  13 active torsions:
REMARK  status: ('A' for Active; 'I' for Inactive)
REMARK    1  A    between atoms: C_1  and  C_2
REMARK    2  A    between atoms: C_2  and  O_3
REMARK    3  A    between atoms: O_3  and  C_4
REMARK    4  A    between atoms: C_4  and  O_6
REMARK    5  A    between atoms: O_6  and  C_7
REMARK    6  A    between atoms: C_13  and  C_14
REMARK    7  A    between atoms: C_14  and  O_16
REMARK    8  A    between atoms: O_16  and  C_17
REMARK    9  A    between atoms: C_17  and  C_18
REMARK   10  A    between atoms: C_29  and  C_30
REMARK   11  A    between atoms: C_30  and  O_32
REMARK   12  A    between atoms: O_32  and  C_33
REMARK   13  A    between atoms: C_33  and  C_34
REMARK                            x       y       z     vdW  Elec       q    Type
REMARK                         _______ _______ _______ _____ _____    ______ ____
ROOT
ATOM      1  C   UNL     1       1.400   8.488  20.088  0.00  0.00    +0.000 A 
ATOM      2  C   UNL     1       2.349   7.787  19.383  0.00  0.00    +0.000 A 
ATOM      3  N   UNL     1       2.881   6.580  19.704  0.00  0.00    +0.000 N 
ATOM      4  C   UNL     1       3.649   6.098  18.691  0.00  0.00    +0.000 A 
ATOM      5  C   UNL     1       4.316   4.859  18.663  0.00  0.00    +0.000 A 
ATOM      6  C   UNL     1       5.060   4.570  17.535  0.00  0.00    +0.000 A 
ATOM      7  C   UNL     1       5.114   5.460  16.474  0.00  0.00    +0.000 A 
ATOM      8  C   UNL     1       4.407   6.715  16.516  0.00  0.00    +0.000 A 
ATOM      9  C   UNL     1       3.647   7.067  17.668  0.00  0.00    +0.000 A 
ATOM     10  C   UNL     1       2.795   8.200  18.124  0.00  0.00    +0.000 A 
ATOM     11  C   UNL     1       2.295   9.493  17.639  0.00  0.00    +0.000 A 
ATOM     12  C   UNL     1       1.327  10.274  18.407  0.00  0.00    +0.000 A 
ATOM     13  C   UNL     1       0.816   9.580  19.495  0.00  0.00    +0.000 A 
ATOM     14  N   UNL     1      -0.444  10.046  19.704  0.00  0.00    +0.000 N 
ATOM     15  C   UNL     1      -0.861  10.675  18.542  0.00  0.00    +0.000 A 
ATOM     16  C   UNL     1      -2.111  11.212  18.300  0.00  0.00    +0.000 A 
ATOM     17  C   UNL     1      -2.206  12.160  19.300  0.00  0.00    +0.000 A 
ATOM     18  C   UNL     1      -1.215  13.145  19.441  0.00  0.00    +0.000 A 
ATOM     19  C   UNL     1       0.070  12.819  18.814  0.00  0.00    +0.000 A 
ATOM     20  C   UNL     1       0.306  11.420  18.244  0.00  0.00    +0.000 A 
ATOM     21  H   UNL     1       2.659   6.072  20.548  0.00  0.00    +0.000 HD
ATOM     22  H   UNL     1      -1.074   9.726  20.423  0.00  0.00    +0.000 HD
ENDROOT
BRANCH   7  23
ATOM     23  C   UNL     1       6.042   5.093  15.390  0.00  0.00    +0.000 C 
ATOM     24  O   UNL     1       7.186   5.513  15.312  0.00  0.00    +0.000 OA
BRANCH  23  25
ATOM     25  O   UNL     1       5.441   4.299  14.485  0.00  0.00    +0.000 OA
BRANCH  25  26
ATOM     26  C   UNL     1       6.305   3.764  13.465  0.00  0.00    +0.000 C 
ATOM     27  C   UNL     1       5.429   3.381  12.289  0.00  0.00    +0.000 C 
ENDBRANCH  25  26
ENDBRANCH  23  25
ENDBRANCH   7  23
BRANCH  18  28
ATOM     28  C   UNL     1      -1.834  14.296  20.262  0.00  0.00    +0.000 C 
ATOM     29  O   UNL     1      -1.388  15.430  20.055  0.00  0.00    +0.000 OA
BRANCH  28  30
ATOM     30  O   UNL     1      -2.829  14.130  21.176  0.00  0.00    +0.000 OA
BRANCH  30  31
ATOM     31  C   UNL     1      -4.003  14.983  20.903  0.00  0.00    +0.000 C 
ATOM     32  C   UNL     1      -5.291  14.244  20.523  0.00  0.00    +0.000 C 
ENDBRANCH  30  31
ENDBRANCH  28  30
ENDBRANCH  18  28
BRANCH   1  33
ATOM     33  O   UNL     1       0.809   7.918  21.229  0.00  0.00    +0.000 OA
BRANCH  33  34
ATOM     34  C   UNL     1       0.853   8.770  22.313  0.00  0.00    +0.000 C 
ATOM     35  O   UNL     1       1.838   9.216  22.880  0.00  0.00    +0.000 OA
BRANCH  34  36
ATOM     36  O   UNL     1      -0.428   9.125  22.587  0.00  0.00    +0.000 OA
BRANCH  36  38
ATOM     37  C   UNL     1      -1.512  11.212  22.828  0.00  0.00    +0.000 C 
ATOM     38  C   UNL     1      -0.542  10.242  23.469  0.00  0.00    +0.000 C 
ENDBRANCH  36  38
ENDBRANCH  34  36
ENDBRANCH  33  34
ENDBRANCH   1  33
TORSDOF 10
ENDMDL
MODEL 7
REMARK VINA RESULT:      -7.6      2.324      9.974
REMARK  Name = 
REMARK  13 active torsions:
REMARK  status: ('A' for Active; 'I' for Inactive)
REMARK    1  A    between atoms: C_1  and  C_2
REMARK    2  A    between atoms: C_2  and  O_3
REMARK    3  A    between atoms: O_3  and  C_4
REMARK    4  A    between atoms: C_4  and  O_6
REMARK    5  A    between atoms: O_6  and  C_7
REMARK    6  A    between atoms: C_13  and  C_14
REMARK    7  A    between atoms: C_14  and  O_16
REMARK    8  A    between atoms: O_16  and  C_17
REMARK    9  A    between atoms: C_17  and  C_18
REMARK   10  A    between atoms: C_29  and  C_30
REMARK   11  A    between atoms: C_30  and  O_32
REMARK   12  A    between atoms: O_32  and  C_33
REMARK   13  A    between atoms: C_33  and  C_34
REMARK                            x       y       z     vdW  Elec       q    Type
REMARK                         _______ _______ _______ _____ _____    ______ ____
ROOT
ATOM      1  C   UNL     1       1.491   8.348  20.084  0.00  0.00    +0.000 A 
ATOM      2  C   UNL     1       2.425   7.592  19.420  0.00  0.00    +0.000 A 
ATOM      3  N   UNL     1       2.908   6.377  19.790  0.00  0.00    +0.000 N 
ATOM      4  C   UNL     1       3.676   5.836  18.807  0.00  0.00    +0.000 A 
ATOM      5  C   UNL     1       4.298   4.574  18.831  0.00  0.00    +0.000 A 
ATOM      6  C   UNL     1       5.051   4.222  17.728  0.00  0.00    +0.000 A 
ATOM      7  C   UNL     1       5.156   5.075  16.640  0.00  0.00    +0.000 A 
ATOM      8  C   UNL     1       4.494   6.354  16.628  0.00  0.00    +0.000 A 
ATOM      9  C   UNL     1       3.727   6.771  17.754  0.00  0.00    +0.000 A 
ATOM     10  C   UNL     1       2.909   7.947  18.157  0.00  0.00    +0.000 A 
ATOM     11  C   UNL     1       2.465   9.241  17.622  0.00  0.00    +0.000 A 
ATOM     12  C   UNL     1       1.512  10.080  18.346  0.00  0.00    +0.000 A 
ATOM     13  C   UNL     1       0.957   9.441  19.446  0.00  0.00    +0.000 A 
ATOM     14  N   UNL     1      -0.289   9.957  19.616  0.00  0.00    +0.000 N 
ATOM     15  C   UNL     1      -0.662  10.563  18.426  0.00  0.00    +0.000 A 
ATOM     16  C   UNL     1      -1.888  11.136  18.144  0.00  0.00    +0.000 A 
ATOM     17  C   UNL     1      -1.965  12.118  19.111  0.00  0.00    +0.000 A 
ATOM     18  C   UNL     1      -0.943  13.072  19.239  0.00  0.00    +0.000 A 
ATOM     19  C   UNL     1       0.341  12.681  18.648  0.00  0.00    +0.000 A 
ATOM     20  C   UNL     1       0.536  11.256  18.127  0.00  0.00    +0.000 A 
ATOM     21  H   UNL     1       2.653   5.905  20.645  0.00  0.00    +0.000 HD
ATOM     22  H   UNL     1      -0.942   9.684  20.333  0.00  0.00    +0.000 HD
ENDROOT
BRANCH   7  23
ATOM     23  C   UNL     1       6.089   4.639  15.585  0.00  0.00    +0.000 C 
ATOM     24  O   UNL     1       7.297   4.562  15.746  0.00  0.00    +0.000 OA
BRANCH  23  25
ATOM     25  O   UNL     1       5.441   4.406  14.430  0.00  0.00    +0.000 OA
BRANCH  25  26
ATOM     26  C   UNL     1       6.236   3.811  13.387  0.00  0.00    +0.000 C 
ATOM     27  C   UNL     1       5.288   3.398  12.279  0.00  0.00    +0.000 C 
ENDBRANCH  25  26
ENDBRANCH  23  25
ENDBRANCH   7  23
BRANCH  18  28
ATOM     28  C   UNL     1      -1.534  14.271  20.012  0.00  0.00    +0.000 C 
ATOM     29  O   UNL     1      -2.591  14.073  20.620  0.00  0.00    +0.000 OA
BRANCH  28  30
ATOM     30  O   UNL     1      -0.957  15.503  20.062  0.00  0.00    +0.000 OA
BRANCH  30  31
ATOM     31  C   UNL     1      -1.140  16.165  21.369  0.00  0.00    +0.000 C 
ATOM     32  C   UNL     1      -1.868  17.514  21.338  0.00  0.00    +0.000 C 
ENDBRANCH  30  31
ENDBRANCH  28  30
ENDBRANCH  18  28
BRANCH   1  33
ATOM     33  O   UNL     1       0.859   7.838  21.232  0.00  0.00    +0.000 OA
BRANCH  33  34
ATOM     34  C   UNL     1       0.848   8.752  22.264  0.00  0.00    +0.000 C 
ATOM     35  O   UNL     1       1.803   9.250  22.839  0.00  0.00    +0.000 OA
BRANCH  34  36
ATOM     36  O   UNL     1      -0.449   9.096  22.471  0.00  0.00    +0.000 OA
BRANCH  36  38
ATOM     37  C   UNL     1      -1.431  11.236  22.683  0.00  0.00    +0.000 C 
ATOM     38  C   UNL     1      -0.622  10.171  23.394  0.00  0.00    +0.000 C 
ENDBRANCH  36  38
ENDBRANCH  34  36
ENDBRANCH  33  34
ENDBRANCH   1  33
TORSDOF 10
ENDMDL
MODEL 8
REMARK VINA RESULT:      -7.5      0.912      1.362
REMARK  Name = 
REMARK  13 active torsions:
REMARK  status: ('A' for Active; 'I' for Inactive)
REMARK    1  A    between atoms: C_1  and  C_2
REMARK    2  A    between atoms: C_2  and  O_3
REMARK    3  A    between atoms: O_3  and  C_4
REMARK    4  A    between atoms: C_4  and  O_6
REMARK    5  A    between atoms: O_6  and  C_7
REMARK    6  A    between atoms: C_13  and  C_14
REMARK    7  A    between atoms: C_14  and  O_16
REMARK    8  A    between atoms: O_16  and  C_17
REMARK    9  A    between atoms: C_17  and  C_18
REMARK   10  A    between atoms: C_29  and  C_30
REMARK   11  A    between atoms: C_30  and  O_32
REMARK   12  A    between atoms: O_32  and  C_33
REMARK   13  A    between atoms: C_33  and  C_34
REMARK                            x       y       z     vdW  Elec       q    Type
REMARK                         _______ _______ _______ _____ _____    ______ ____
ROOT
ATOM      1  C   UNL     1       2.645   5.863  19.042  0.00  0.00    +0.000 A 
ATOM      2  C   UNL     1       1.909   6.863  19.631  0.00  0.00    +0.000 A 
ATOM      3  N   UNL     1       1.080   6.747  20.701  0.00  0.00    +0.000 N 
ATOM      4  C   UNL     1       0.663   7.968  21.130  0.00  0.00    +0.000 A 
ATOM      5  C   UNL     1      -0.166   8.226  22.238  0.00  0.00    +0.000 A 
ATOM      6  C   UNL     1      -0.484   9.547  22.491  0.00  0.00    +0.000 A 
ATOM      7  C   UNL     1       0.023  10.563  21.696  0.00  0.00    +0.000 A 
ATOM      8  C   UNL     1       0.886  10.277  20.579  0.00  0.00    +0.000 A 
ATOM      9  C   UNL     1       1.221   8.929  20.264  0.00  0.00    +0.000 A 
ATOM     10  C   UNL     1       2.041   8.203  19.256  0.00  0.00    +0.000 A 
ATOM     11  C   UNL     1       2.915   8.483  18.109  0.00  0.00    +0.000 A 
ATOM     12  C   UNL     1       3.661   7.419  17.440  0.00  0.00    +0.000 A 
ATOM     13  C   UNL     1       3.599   6.208  18.116  0.00  0.00    +0.000 A 
ATOM     14  N   UNL     1       4.757   5.548  17.853  0.00  0.00    +0.000 N 
ATOM     15  C   UNL     1       5.681   6.477  17.400  0.00  0.00    +0.000 A 
ATOM     16  C   UNL     1       7.009   6.239  17.103  0.00  0.00    +0.000 A 
ATOM     17  C   UNL     1       6.905   5.291  16.104  0.00  0.00    +0.000 A 
ATOM     18  C   UNL     1       6.135   5.547  14.958  0.00  0.00    +0.000 A 
ATOM     19  C   UNL     1       5.132   6.606  15.116  0.00  0.00    +0.000 A 
ATOM     20  C   UNL     1       4.866   7.202  16.499  0.00  0.00    +0.000 A 
ATOM     21  H   UNL     1       0.878   5.875  21.167  0.00  0.00    +0.000 HD
ATOM     22  H   UNL     1       5.007   4.640  18.212  0.00  0.00    +0.000 HD
ENDROOT
BRANCH   7  23
ATOM     23  C   UNL     1      -0.494  11.911  21.993  0.00  0.00    +0.000 C 
ATOM     24  O   UNL     1      -0.031  12.931  21.505  0.00  0.00    +0.000 OA
BRANCH  23  25
ATOM     25  O   UNL     1      -1.480  11.864  22.905  0.00  0.00    +0.000 OA
BRANCH  25  26
ATOM     26  C   UNL     1      -2.731  12.444  22.492  0.00  0.00    +0.000 C 
ATOM     27  C   UNL     1      -3.451  12.902  23.744  0.00  0.00    +0.000 C 
ENDBRANCH  25  26
ENDBRANCH  23  25
ENDBRANCH   7  23
BRANCH  18  28
ATOM     28  C   UNL     1       6.611   4.570  13.863  0.00  0.00    +0.000 C 
ATOM     29  O   UNL     1       7.585   4.923  13.189  0.00  0.00    +0.000 OA
BRANCH  28  30
ATOM     30  O   UNL     1       6.031   3.364  13.614  0.00  0.00    +0.000 OA
BRANCH  30  31
ATOM     31  C   UNL     1       5.847   3.107  12.171  0.00  0.00    +0.000 C 
ATOM     32  C   UNL     1       4.435   3.351  11.626  0.00  0.00    +0.000 C 
ENDBRANCH  30  31
ENDBRANCH  28  30
ENDBRANCH  18  28
BRANCH   1  33
ATOM     33  O   UNL     1       2.659   4.575  19.605  0.00  0.00    +0.000 OA
BRANCH  33  34
ATOM     34  C   UNL     1       1.725   3.746  19.020  0.00  0.00    +0.000 C 
ATOM     35  O   UNL     1       1.478   3.610  17.832  0.00  0.00    +0.000 OA
BRANCH  34  36
ATOM     36  O   UNL     1       1.178   3.004  20.017  0.00  0.00    +0.000 OA
BRANCH  36  38
ATOM     37  C   UNL     1       1.221   2.309  22.276  0.00  0.00    +0.000 C 
ATOM     38  C   UNL     1       2.071   2.740  21.098  0.00  0.00    +0.000 C 
ENDBRANCH  36  38
ENDBRANCH  34  36
ENDBRANCH  33  34
ENDBRANCH   1  33
TORSDOF 10
ENDMDL
MODEL 9
REMARK VINA RESULT:      -7.5      2.418     10.053
REMARK  Name = 
REMARK  13 active torsions:
REMARK  status: ('A' for Active; 'I' for Inactive)
REMARK    1  A    between atoms: C_1  and  C_2
REMARK    2  A    between atoms: C_2  and  O_3
REMARK    3  A    between atoms: O_3  and  C_4
REMARK    4  A    between atoms: C_4  and  O_6
REMARK    5  A    between atoms: O_6  and  C_7
REMARK    6  A    between atoms: C_13  and  C_14
REMARK    7  A    between atoms: C_14  and  O_16
REMARK    8  A    between atoms: O_16  and  C_17
REMARK    9  A    between atoms: C_17  and  C_18
REMARK   10  A    between atoms: C_29  and  C_30
REMARK   11  A    between atoms: C_30  and  O_32
REMARK   12  A    between atoms: O_32  and  C_33
REMARK   13  A    between atoms: C_33  and  C_34
REMARK                            x       y       z     vdW  Elec       q    Type
REMARK                         _______ _______ _______ _____ _____    ______ ____
ROOT
ATOM      1  C   UNL     1       0.655   8.949  20.790  0.00  0.00    +0.000 A 
ATOM      2  C   UNL     1       1.543   8.094  20.184  0.00  0.00    +0.000 A 
ATOM      3  N   UNL     1       1.901   6.853  20.606  0.00  0.00    +0.000 N 
ATOM      4  C   UNL     1       2.655   6.217  19.670  0.00  0.00    +0.000 A 
ATOM      5  C   UNL     1       3.161   4.906  19.753  0.00  0.00    +0.000 A 
ATOM      6  C   UNL     1       3.921   4.456  18.691  0.00  0.00    +0.000 A 
ATOM      7  C   UNL     1       4.143   5.263  17.586  0.00  0.00    +0.000 A 
ATOM      8  C   UNL     1       3.598   6.596  17.513  0.00  0.00    +0.000 A 
ATOM      9  C   UNL     1       2.829   7.111  18.595  0.00  0.00    +0.000 A 
ATOM     10  C   UNL     1       2.104   8.367  18.933  0.00  0.00    +0.000 A 
ATOM     11  C   UNL     1       1.798   9.678  18.346  0.00  0.00    +0.000 A 
ATOM     12  C   UNL     1       0.897  10.619  19.008  0.00  0.00    +0.000 A 
ATOM     13  C   UNL     1       0.245  10.065  20.101  0.00  0.00    +0.000 A 
ATOM     14  N   UNL     1      -0.955  10.694  20.206  0.00  0.00    +0.000 N 
ATOM     15  C   UNL     1      -1.227  11.294  18.987  0.00  0.00    +0.000 A 
ATOM     16  C   UNL     1      -2.385  11.964  18.640  0.00  0.00    +0.000 A 
ATOM     17  C   UNL     1      -2.412  12.977  19.577  0.00  0.00    +0.000 A 
ATOM     18  C   UNL     1      -1.314  13.841  19.721  0.00  0.00    +0.000 A 
ATOM     19  C   UNL     1      -0.049  13.321  19.193  0.00  0.00    +0.000 A 
ATOM     20  C   UNL     1       0.038  11.869  18.719  0.00  0.00    +0.000 A 
ATOM     21  H   UNL     1       1.573   6.431  21.462  0.00  0.00    +0.000 HD
ATOM     22  H   UNL     1      -1.657  10.500  20.903  0.00  0.00    +0.000 HD
ENDROOT
BRANCH   7  23
ATOM     23  C   UNL     1       5.073   4.716  16.582  0.00  0.00    +0.000 C 
ATOM     24  O   UNL     1       5.088   3.541  16.250  0.00  0.00    +0.000 OA
BRANCH  23  25
ATOM     25  O   UNL     1       5.924   5.660  16.143  0.00  0.00    +0.000 OA
BRANCH  25  26
ATOM     26  C   UNL     1       7.211   5.678  16.789  0.00  0.00    +0.000 C 
ATOM     27  C   UNL     1       7.387   7.052  17.404  0.00  0.00    +0.000 C 
ENDBRANCH  25  26
ENDBRANCH  23  25
ENDBRANCH   7  23
BRANCH  18  28
ATOM     28  C   UNL     1      -1.825  15.110  20.436  0.00  0.00    +0.000 C 
ATOM     29  O   UNL     1      -1.064  16.083  20.453  0.00  0.00    +0.000 OA
BRANCH  28  30
ATOM     30  O   UNL     1      -3.047  15.210  21.028  0.00  0.00    +0.000 OA
BRANCH  30  31
ATOM     31  C   UNL     1      -2.960  15.563  22.459  0.00  0.00    +0.000 C 
ATOM     32  C   UNL     1      -4.160  15.156  23.321  0.00  0.00    +0.000 C 
ENDBRANCH  30  31
ENDBRANCH  28  30
ENDBRANCH  18  28
BRANCH   1  33
ATOM     33  O   UNL     1      -0.064   8.531  21.924  0.00  0.00    +0.000 OA
BRANCH  33  34
ATOM     34  C   UNL     1       0.144   9.365  23.002  0.00  0.00    +0.000 C 
ATOM     35  O   UNL     1       1.195   9.611  23.573  0.00  0.00    +0.000 OA
BRANCH  34  36
ATOM     36  O   UNL     1      -1.043   9.970  23.265  0.00  0.00    +0.000 OA
BRANCH  36  38
ATOM     37  C   UNL     1      -2.434  11.880  23.178  0.00  0.00    +0.000 C 
ATOM     38  C   UNL     1      -1.000  11.393  23.172  0.00  0.00    +0.000 C 
ENDBRANCH  36  38
ENDBRANCH  34  36
ENDBRANCH  33  34
ENDBRANCH   1  33
TORSDOF 10
ENDMDL
