MODEL 1
REMARK VINA RESULT:      -7.0      0.000      0.000
REMARK  Name = 
REMARK  5 active torsions:
REMARK  status: ('A' for Active; 'I' for Inactive)
REMARK    1  A    between atoms: C_1  and  N_2
REMARK    2  A    between atoms: C_6  and  N_7
REMARK    3  A    between atoms: C_9  and  C_10
REMARK    4  A    between atoms: C_17  and  C_18
REMARK    5  A    between atoms: C_23  and  O_24
REMARK                            x       y       z     vdW  Elec       q    Type
REMARK                         _______ _______ _______ _____ _____    ______ ____
ROOT
ATOM      1  N   UNL     1       0.242  11.789  19.828  0.00  0.00    +0.000 N 
ATOM      2  N   UNL     1      -1.048  12.223  19.910  0.00  0.00    +0.000 NA
ATOM      3  C   UNL     1      -1.747  11.597  19.019  0.00  0.00    +0.000 C 
ATOM      4  C   UNL     1      -0.974  10.621  18.177  0.00  0.00    +0.000 C 
ATOM      5  C   UNL     1       0.428  10.795  18.759  0.00  0.00    +0.000 C 
ENDROOT
BRANCH   1  11
ATOM      6  C   UNL     1       5.180  15.228  20.263  0.00  0.00    +0.000 C 
ATOM      7  N   UNL     1       3.784  14.923  20.023  0.00  0.00    +0.000 N 
ATOM      8  C   UNL     1       3.142  13.993  20.825  0.00  0.00    +0.000 C 
ATOM      9  O   UNL     1       3.561  13.523  21.873  0.00  0.00    +0.000 OA
ATOM     10  C   UNL     1       1.880  13.579  20.173  0.00  0.00    +0.000 C 
ATOM     11  C   UNL     1       1.253  12.445  20.505  0.00  0.00    +0.000 C 
ATOM     12  S   UNL     1       1.499  14.652  18.885  0.00  0.00    +0.000 S 
ATOM     13  C   UNL     1       3.079  15.401  18.936  0.00  0.00    +0.000 C 
ATOM     14  S   UNL     1       3.581  16.504  17.791  0.00  0.00    +0.000 S 
ENDBRANCH   1  11
BRANCH   3  15
ATOM     15  C   UNL     1      -3.196  11.834  18.835  0.00  0.00    +0.000 A 
ATOM     16  C   UNL     1      -3.798  11.445  17.631  0.00  0.00    +0.000 A 
ATOM     17  C   UNL     1      -5.159  11.672  17.419  0.00  0.00    +0.000 A 
ATOM     18  C   UNL     1      -5.921  12.290  18.409  0.00  0.00    +0.000 A 
ATOM     19  C   UNL     1      -5.327  12.671  19.613  0.00  0.00    +0.000 A 
ATOM     20  C   UNL     1      -3.967  12.442  19.830  0.00  0.00    +0.000 A 
ENDBRANCH   3  15
BRANCH   5  21
ATOM     21  C   UNL     1       0.986   9.489  19.299  0.00  0.00    +0.000 A 
ATOM     22  C   UNL     1       0.639   9.016  20.579  0.00  0.00    +0.000 A 
ATOM     23  C   UNL     1       1.192   7.839  21.086  0.00  0.00    +0.000 A 
ATOM     24  C   UNL     1       2.084   7.104  20.313  0.00  0.00    +0.000 A 
ATOM     25  C   UNL     1       2.405   7.527  19.023  0.00  0.00    +0.000 A 
ATOM     26  C   UNL     1       1.847   8.707  18.523  0.00  0.00    +0.000 A 
BRANCH  26  27
ATOM     27  O   UNL     1       2.133   9.109  17.247  0.00  0.00    +0.000 OA
ATOM     28  H   UNL     1       2.033   8.344  16.653  0.00  0.00    +0.000 HD
ENDBRANCH  26  27
ENDBRANCH   5  21
TORSDOF 4
ENDMDL
MODEL 2
REMARK VINA RESULT:      -7.0      0.576      1.092
REMARK  Name = 
REMARK  5 active torsions:
REMARK  status: ('A' for Active; 'I' for Inactive)
REMARK    1  A    between atoms: C_1  and  N_2
REMARK    2  A    between atoms: C_6  and  N_7
REMARK    3  A    between atoms: C_9  and  C_10
REMARK    4  A    between atoms: C_17  and  C_18
REMARK    5  A    between atoms: C_23  and  O_24
REMARK                            x       y       z     vdW  Elec       q    Type
REMARK                         _______ _______ _______ _____ _____    ______ ____
ROOT
ATOM      1  N   UNL     1      -0.280  12.090  19.931  0.00  0.00    +0.000 N 
ATOM      2  N   UNL     1      -1.599  12.424  20.020  0.00  0.00    +0.000 NA
ATOM      3  C   UNL     1      -2.249  11.765  19.116  0.00  0.00    +0.000 C 
ATOM      4  C   UNL     1      -1.404  10.866  18.256  0.00  0.00    +0.000 C 
ATOM      5  C   UNL     1      -0.019  11.134  18.844  0.00  0.00    +0.000 C 
ENDROOT
BRANCH   1  11
ATOM      6  C   UNL     1       4.639  15.547  20.435  0.00  0.00    +0.000 C 
ATOM      7  N   UNL     1       3.264  15.222  20.111  0.00  0.00    +0.000 N 
ATOM      8  C   UNL     1       2.551  14.376  20.944  0.00  0.00    +0.000 C 
ATOM      9  O   UNL     1       2.878  14.010  22.064  0.00  0.00    +0.000 OA
ATOM     10  C   UNL     1       1.342  13.903  20.234  0.00  0.00    +0.000 C 
ATOM     11  C   UNL     1       0.680  12.807  20.622  0.00  0.00    +0.000 C 
ATOM     12  S   UNL     1       1.077  14.846  18.822  0.00  0.00    +0.000 S 
ATOM     13  C   UNL     1       2.654  15.594  18.930  0.00  0.00    +0.000 C 
ATOM     14  S   UNL     1       3.259  16.579  17.728  0.00  0.00    +0.000 S 
ENDBRANCH   1  11
BRANCH   3  15
ATOM     15  C   UNL     1      -3.711  11.895  18.935  0.00  0.00    +0.000 A 
ATOM     16  C   UNL     1      -4.456  12.578  19.906  0.00  0.00    +0.000 A 
ATOM     17  C   UNL     1      -5.840  12.701  19.774  0.00  0.00    +0.000 A 
ATOM     18  C   UNL     1      -6.484  12.139  18.673  0.00  0.00    +0.000 A 
ATOM     19  C   UNL     1      -5.745  11.465  17.699  0.00  0.00    +0.000 A 
ATOM     20  C   UNL     1      -4.360  11.344  17.826  0.00  0.00    +0.000 A 
ENDBRANCH   3  15
BRANCH   5  21
ATOM     21  C   UNL     1       0.635   9.863  19.359  0.00  0.00    +0.000 A 
ATOM     22  C   UNL     1       0.320   9.336  20.626  0.00  0.00    +0.000 A 
ATOM     23  C   UNL     1       0.959   8.195  21.111  0.00  0.00    +0.000 A 
ATOM     24  C   UNL     1       1.910   7.548  20.329  0.00  0.00    +0.000 A 
ATOM     25  C   UNL     1       2.204   8.024  19.050  0.00  0.00    +0.000 A 
ATOM     26  C   UNL     1       1.558   9.168  18.573  0.00  0.00    +0.000 A 
BRANCH  26  27
ATOM     27  O   UNL     1       1.820   9.619  17.307  0.00  0.00    +0.000 OA
ATOM     28  H   UNL     1       1.998   8.850  16.737  0.00  0.00    +0.000 HD
ENDBRANCH  26  27
ENDBRANCH   5  21
TORSDOF 4
ENDMDL
MODEL 3
REMARK VINA RESULT:      -7.0      3.007      6.665
REMARK  Name = 
REMARK  5 active torsions:
REMARK  status: ('A' for Active; 'I' for Inactive)
REMARK    1  A    between atoms: C_1  and  N_2
REMARK    2  A    between atoms: C_6  and  N_7
REMARK    3  A    between atoms: C_9  and  C_10
REMARK    4  A    between atoms: C_17  and  C_18
REMARK    5  A    between atoms: C_23  and  O_24
REMARK                            x       y       z     vdW  Elec       q    Type
REMARK                         _______ _______ _______ _____ _____    ______ ____
ROOT
ATOM      1  N   UNL     1      -0.779  12.870  19.973  0.00  0.00    +0.000 N 
ATOM      2  N   UNL     1      -0.188  13.740  19.104  0.00  0.00    +0.000 NA
ATOM      3  C   UNL     1       1.010  13.987  19.525  0.00  0.00    +0.000 C 
ATOM      4  C   UNL     1       1.392  13.286  20.799  0.00  0.00    +0.000 C 
ATOM      5  C   UNL     1       0.102  12.523  21.099  0.00  0.00    +0.000 C 
ENDROOT
BRANCH   1  11
ATOM      6  C   UNL     1      -5.997  11.879  17.111  0.00  0.00    +0.000 C 
ATOM      7  N   UNL     1      -4.655  11.590  17.578  0.00  0.00    +0.000 N 
ATOM      8  C   UNL     1      -4.276  11.992  18.848  0.00  0.00    +0.000 C 
ATOM      9  O   UNL     1      -5.013  12.401  19.734  0.00  0.00    +0.000 OA
ATOM     10  C   UNL     1      -2.801  11.931  18.955  0.00  0.00    +0.000 C 
ATOM     11  C   UNL     1      -2.133  12.605  19.898  0.00  0.00    +0.000 C 
ATOM     12  S   UNL     1      -2.148  11.048  17.633  0.00  0.00    +0.000 S 
ATOM     13  C   UNL     1      -3.669  11.058  16.772  0.00  0.00    +0.000 C 
ATOM     14  S   UNL     1      -3.812  10.503  15.205  0.00  0.00    +0.000 S 
ENDBRANCH   1  11
BRANCH   3  15
ATOM     15  C   UNL     1       1.931  14.899  18.811  0.00  0.00    +0.000 A 
ATOM     16  C   UNL     1       1.521  16.216  18.562  0.00  0.00    +0.000 A 
ATOM     17  C   UNL     1       2.358  17.095  17.874  0.00  0.00    +0.000 A 
ATOM     18  C   UNL     1       3.606  16.661  17.432  0.00  0.00    +0.000 A 
ATOM     19  C   UNL     1       4.021  15.352  17.684  0.00  0.00    +0.000 A 
ATOM     20  C   UNL     1       3.188  14.471  18.376  0.00  0.00    +0.000 A 
ENDBRANCH   3  15
BRANCH   5  21
ATOM     21  C   UNL     1       0.336  11.025  21.188  0.00  0.00    +0.000 A 
ATOM     22  C   UNL     1       0.960  10.315  20.144  0.00  0.00    +0.000 A 
ATOM     23  C   UNL     1       1.129   8.933  20.213  0.00  0.00    +0.000 A 
ATOM     24  C   UNL     1       0.696   8.237  21.337  0.00  0.00    +0.000 A 
ATOM     25  C   UNL     1       0.120   8.925  22.405  0.00  0.00    +0.000 A 
ATOM     26  C   UNL     1      -0.046  10.311  22.327  0.00  0.00    +0.000 A 
BRANCH  26  27
ATOM     27  O   UNL     1      -0.581  10.993  23.386  0.00  0.00    +0.000 OA
ATOM     28  H   UNL     1      -1.160  11.695  23.040  0.00  0.00    +0.000 HD
ENDBRANCH  26  27
ENDBRANCH   5  21
TORSDOF 4
ENDMDL
MODEL 4
REMARK VINA RESULT:      -6.9      3.805      6.908
REMARK  Name = 
REMARK  5 active torsions:
REMARK  status: ('A' for Active; 'I' for Inactive)
REMARK    1  A    between atoms: C_1  and  N_2
REMARK    2  A    between atoms: C_6  and  N_7
REMARK    3  A    between atoms: C_9  and  C_10
REMARK    4  A    between atoms: C_17  and  C_18
REMARK    5  A    between atoms: C_23  and  O_24
REMARK                            x       y       z     vdW  Elec       q    Type
REMARK                         _______ _______ _______ _____ _____    ______ ____
ROOT
ATOM      1  N   UNL     1       0.272  12.779  21.017  0.00  0.00    +0.000 N 
ATOM      2  N   UNL     1       0.825  11.533  21.040  0.00  0.00    +0.000 NA
ATOM      3  C   UNL     1       0.779  11.043  19.844  0.00  0.00    +0.000 C 
ATOM      4  C   UNL     1       0.148  11.939  18.815  0.00  0.00    +0.000 C 
ATOM      5  C   UNL     1      -0.217  13.147  19.678  0.00  0.00    +0.000 C 
ENDROOT
BRANCH   1  11
ATOM      6  C   UNL     1      -3.365  15.429  25.036  0.00  0.00    +0.000 C 
ATOM      7  N   UNL     1      -2.769  14.337  24.293  0.00  0.00    +0.000 N 
ATOM      8  C   UNL     1      -1.416  14.374  23.995  0.00  0.00    +0.000 C 
ATOM      9  O   UNL     1      -0.588  15.143  24.464  0.00  0.00    +0.000 OA
ATOM     10  C   UNL     1      -1.125  13.379  22.940  0.00  0.00    +0.000 C 
ATOM     11  C   UNL     1      -0.017  13.447  22.192  0.00  0.00    +0.000 C 
ATOM     12  S   UNL     1      -2.457  12.310  22.749  0.00  0.00    +0.000 S 
ATOM     13  C   UNL     1      -3.503  13.312  23.729  0.00  0.00    +0.000 C 
ATOM     14  S   UNL     1      -5.136  13.012  23.887  0.00  0.00    +0.000 S 
ENDBRANCH   1  11
BRANCH   3  15
ATOM     15  C   UNL     1       1.297   9.696  19.515  0.00  0.00    +0.000 A 
ATOM     16  C   UNL     1       1.356   8.728  20.527  0.00  0.00    +0.000 A 
ATOM     17  C   UNL     1       1.858   7.455  20.254  0.00  0.00    +0.000 A 
ATOM     18  C   UNL     1       2.305   7.147  18.970  0.00  0.00    +0.000 A 
ATOM     19  C   UNL     1       2.242   8.106  17.958  0.00  0.00    +0.000 A 
ATOM     20  C   UNL     1       1.736   9.379  18.226  0.00  0.00    +0.000 A 
ENDBRANCH   3  15
BRANCH   5  21
ATOM     21  C   UNL     1       0.435  14.423  19.174  0.00  0.00    +0.000 A 
ATOM     22  C   UNL     1       1.761  14.434  18.702  0.00  0.00    +0.000 A 
ATOM     23  C   UNL     1       2.367  15.618  18.285  0.00  0.00    +0.000 A 
ATOM     24  C   UNL     1       1.652  16.810  18.313  0.00  0.00    +0.000 A 
ATOM     25  C   UNL     1       0.320  16.816  18.730  0.00  0.00    +0.000 A 
ATOM     26  C   UNL     1      -0.279  15.624  19.147  0.00  0.00    +0.000 A 
BRANCH  26  27
ATOM     27  O   UNL     1      -1.594  15.620  19.527  0.00  0.00    +0.000 OA
ATOM     28  H   UNL     1      -2.101  16.154  18.890  0.00  0.00    +0.000 HD
ENDBRANCH  26  27
ENDBRANCH   5  21
TORSDOF 4
ENDMDL
MODEL 5
REMARK VINA RESULT:      -6.8      3.147      7.107
REMARK  Name = 
REMARK  5 active torsions:
REMARK  status: ('A' for Active; 'I' for Inactive)
REMARK    1  A    between atoms: C_1  and  N_2
REMARK    2  A    between atoms: C_6  and  N_7
REMARK    3  A    between atoms: C_9  and  C_10
REMARK    4  A    between atoms: C_17  and  C_18
REMARK    5  A    between atoms: C_23  and  O_24
REMARK                            x       y       z     vdW  Elec       q    Type
REMARK                         _______ _______ _______ _____ _____    ______ ____
ROOT
ATOM      1  N   UNL     1      -0.799  11.804  19.197  0.00  0.00    +0.000 N 
ATOM      2  N   UNL     1      -0.455  10.491  19.324  0.00  0.00    +0.000 NA
ATOM      3  C   UNL     1       0.796  10.365  19.019  0.00  0.00    +0.000 C 
ATOM      4  C   UNL     1       1.483  11.641  18.618  0.00  0.00    +0.000 C 
ATOM      5  C   UNL     1       0.326  12.633  18.735  0.00  0.00    +0.000 C 
ENDROOT
BRANCH   1  11
ATOM      6  C   UNL     1      -6.221  12.437  21.767  0.00  0.00    +0.000 C 
ATOM      7  N   UNL     1      -4.812  12.694  21.543  0.00  0.00    +0.000 N 
ATOM      8  C   UNL     1      -4.317  12.690  20.250  0.00  0.00    +0.000 C 
ATOM      9  O   UNL     1      -4.973  12.692  19.218  0.00  0.00    +0.000 OA
ATOM     10  C   UNL     1      -2.840  12.598  20.297  0.00  0.00    +0.000 C 
ATOM     11  C   UNL     1      -2.124  12.196  19.241  0.00  0.00    +0.000 C 
ATOM     12  S   UNL     1      -2.279  12.906  21.892  0.00  0.00    +0.000 S 
ATOM     13  C   UNL     1      -3.890  12.803  22.565  0.00  0.00    +0.000 C 
ATOM     14  S   UNL     1      -4.174  12.821  24.208  0.00  0.00    +0.000 S 
ENDBRANCH   1  11
BRANCH   3  15
ATOM     15  C   UNL     1       1.495   9.061  19.050  0.00  0.00    +0.000 A 
ATOM     16  C   UNL     1       2.174   8.629  17.903  0.00  0.00    +0.000 A 
ATOM     17  C   UNL     1       2.827   7.396  17.894  0.00  0.00    +0.000 A 
ATOM     18  C   UNL     1       2.800   6.589  19.031  0.00  0.00    +0.000 A 
ATOM     19  C   UNL     1       2.131   7.019  20.178  0.00  0.00    +0.000 A 
ATOM     20  C   UNL     1       1.481   8.255  20.192  0.00  0.00    +0.000 A 
ENDBRANCH   3  15
BRANCH   5  21
ATOM     21  C   UNL     1       0.635  13.754  19.712  0.00  0.00    +0.000 A 
ATOM     22  C   UNL     1       1.476  13.550  20.823  0.00  0.00    +0.000 A 
ATOM     23  C   UNL     1       1.717  14.571  21.741  0.00  0.00    +0.000 A 
ATOM     24  C   UNL     1       1.139  15.822  21.554  0.00  0.00    +0.000 A 
ATOM     25  C   UNL     1       0.341  16.063  20.435  0.00  0.00    +0.000 A 
ATOM     26  C   UNL     1       0.104  15.033  19.520  0.00  0.00    +0.000 A 
BRANCH  26  27
ATOM     27  O   UNL     1      -0.651  15.274  18.405  0.00  0.00    +0.000 OA
ATOM     28  H   UNL     1      -1.500  14.807  18.500  0.00  0.00    +0.000 HD
ENDBRANCH  26  27
ENDBRANCH   5  21
TORSDOF 4
ENDMDL
MODEL 6
REMARK VINA RESULT:      -6.7      1.164      1.368
REMARK  Name = 
REMARK  5 active torsions:
REMARK  status: ('A' for Active; 'I' for Inactive)
REMARK    1  A    between atoms: C_1  and  N_2
REMARK    2  A    between atoms: C_6  and  N_7
REMARK    3  A    between atoms: C_9  and  C_10
REMARK    4  A    between atoms: C_17  and  C_18
REMARK    5  A    between atoms: C_23  and  O_24
REMARK                            x       y       z     vdW  Elec       q    Type
REMARK                         _______ _______ _______ _____ _____    ______ ____
ROOT
ATOM      1  N   UNL     1      -1.025  12.480  20.147  0.00  0.00    +0.000 N 
ATOM      2  N   UNL     1      -2.362  12.738  20.218  0.00  0.00    +0.000 NA
ATOM      3  C   UNL     1      -2.963  12.025  19.322  0.00  0.00    +0.000 C 
ATOM      4  C   UNL     1      -2.059  11.161  18.486  0.00  0.00    +0.000 C 
ATOM      5  C   UNL     1      -0.698  11.521  19.080  0.00  0.00    +0.000 C 
ENDROOT
BRANCH   1  11
ATOM      6  C   UNL     1       3.878  15.958  20.670  0.00  0.00    +0.000 C 
ATOM      7  N   UNL     1       2.530  15.603  20.273  0.00  0.00    +0.000 N 
ATOM      8  C   UNL     1       1.742  14.855  21.132  0.00  0.00    +0.000 C 
ATOM      9  O   UNL     1       1.975  14.611  22.308  0.00  0.00    +0.000 OA
ATOM     10  C   UNL     1       0.589  14.310  20.382  0.00  0.00    +0.000 C 
ATOM     11  C   UNL     1      -0.115  13.265  20.831  0.00  0.00    +0.000 C 
ATOM     12  S   UNL     1       0.449  15.096  18.860  0.00  0.00    +0.000 S 
ATOM     13  C   UNL     1       2.021  15.846  19.013  0.00  0.00    +0.000 C 
ATOM     14  S   UNL     1       2.732  16.694  17.765  0.00  0.00    +0.000 S 
ENDBRANCH   1  11
BRANCH   3  15
ATOM     15  C   UNL     1      -4.429  12.065  19.126  0.00  0.00    +0.000 A 
ATOM     16  C   UNL     1      -4.953  11.752  17.865  0.00  0.00    +0.000 A 
ATOM     17  C   UNL     1      -6.330  11.800  17.643  0.00  0.00    +0.000 A 
ATOM     18  C   UNL     1      -7.187  12.163  18.680  0.00  0.00    +0.000 A 
ATOM     19  C   UNL     1      -6.670  12.468  19.941  0.00  0.00    +0.000 A 
ATOM     20  C   UNL     1      -5.293  12.417  20.167  0.00  0.00    +0.000 A 
ENDBRANCH   3  15
BRANCH   5  21
ATOM     21  C   UNL     1       0.025  10.301  19.624  0.00  0.00    +0.000 A 
ATOM     22  C   UNL     1      -0.311   9.745  20.873  0.00  0.00    +0.000 A 
ATOM     23  C   UNL     1       0.389   8.653  21.387  0.00  0.00    +0.000 A 
ATOM     24  C   UNL     1       1.423   8.084  20.652  0.00  0.00    +0.000 A 
ATOM     25  C   UNL     1       1.742   8.587  19.390  0.00  0.00    +0.000 A 
ATOM     26  C   UNL     1       1.036   9.682  18.883  0.00  0.00    +0.000 A 
BRANCH  26  27
ATOM     27  O   UNL     1       1.324  10.158  17.633  0.00  0.00    +0.000 OA
ATOM     28  H   UNL     1       2.156   9.754  17.333  0.00  0.00    +0.000 HD
ENDBRANCH  26  27
ENDBRANCH   5  21
TORSDOF 4
ENDMDL
MODEL 7
REMARK VINA RESULT:      -6.7      3.310      7.007
REMARK  Name = 
REMARK  5 active torsions:
REMARK  status: ('A' for Active; 'I' for Inactive)
REMARK    1  A    between atoms: C_1  and  N_2
REMARK    2  A    between atoms: C_6  and  N_7
REMARK    3  A    between atoms: C_9  and  C_10
REMARK    4  A    between atoms: C_17  and  C_18
REMARK    5  A    between atoms: C_23  and  O_24
REMARK                            x       y       z     vdW  Elec       q    Type
REMARK                         _______ _______ _______ _____ _____    ______ ____
ROOT
ATOM      1  N   UNL     1      -1.324  12.651  19.452  0.00  0.00    +0.000 N 
ATOM      2  N   UNL     1      -0.593  13.456  18.629  0.00  0.00    +0.000 NA
ATOM      3  C   UNL     1       0.393  13.947  19.308  0.00  0.00    +0.000 C 
ATOM      4  C   UNL     1       0.445  13.520  20.749  0.00  0.00    +0.000 C 
ATOM      5  C   UNL     1      -0.790  12.624  20.823  0.00  0.00    +0.000 C 
ENDROOT
BRANCH   1  11
ATOM      6  C   UNL     1      -7.050  10.961  20.319  0.00  0.00    +0.000 C 
ATOM      7  N   UNL     1      -5.932  11.875  20.206  0.00  0.00    +0.000 N 
ATOM      8  C   UNL     1      -4.959  11.646  19.247  0.00  0.00    +0.000 C 
ATOM      9  O   UNL     1      -5.024  10.852  18.319  0.00  0.00    +0.000 OA
ATOM     10  C   UNL     1      -3.765  12.461  19.563  0.00  0.00    +0.000 C 
ATOM     11  C   UNL     1      -2.560  12.173  19.058  0.00  0.00    +0.000 C 
ATOM     12  S   UNL     1      -4.152  13.643  20.749  0.00  0.00    +0.000 S 
ATOM     13  C   UNL     1      -5.695  12.898  21.102  0.00  0.00    +0.000 C 
ATOM     14  S   UNL     1      -6.661  13.401  22.365  0.00  0.00    +0.000 S 
ENDBRANCH   1  11
BRANCH   3  15
ATOM     15  C   UNL     1       1.387  14.868  18.715  0.00  0.00    +0.000 A 
ATOM     16  C   UNL     1       1.090  16.236  18.654  0.00  0.00    +0.000 A 
ATOM     17  C   UNL     1       1.998  17.128  18.082  0.00  0.00    +0.000 A 
ATOM     18  C   UNL     1       3.204  16.655  17.567  0.00  0.00    +0.000 A 
ATOM     19  C   UNL     1       3.507  15.294  17.633  0.00  0.00    +0.000 A 
ATOM     20  C   UNL     1       2.603  14.399  18.208  0.00  0.00    +0.000 A 
ENDBRANCH   3  15
BRANCH   5  21
ATOM     21  C   UNL     1      -0.442  11.212  21.261  0.00  0.00    +0.000 A 
ATOM     22  C   UNL     1       0.174  10.300  20.382  0.00  0.00    +0.000 A 
ATOM     23  C   UNL     1       0.448   8.992  20.778  0.00  0.00    +0.000 A 
ATOM     24  C   UNL     1       0.130   8.576  22.066  0.00  0.00    +0.000 A 
ATOM     25  C   UNL     1      -0.437   9.475  22.971  0.00  0.00    +0.000 A 
ATOM     26  C   UNL     1      -0.709  10.785  22.566  0.00  0.00    +0.000 A 
BRANCH  26  27
ATOM     27  O   UNL     1      -1.235  11.678  23.459  0.00  0.00    +0.000 OA
ATOM     28  H   UNL     1      -0.527  11.964  24.063  0.00  0.00    +0.000 HD
ENDBRANCH  26  27
ENDBRANCH   5  21
TORSDOF 4
ENDMDL
MODEL 8
REMARK VINA RESULT:      -6.6      2.835      5.994
REMARK  Name = 
REMARK  5 active torsions:
REMARK  status: ('A' for Active; 'I' for Inactive)
REMARK    1  A    between atoms: C_1  and  N_2
REMARK    2  A    between atoms: C_6  and  N_7
REMARK    3  A    between atoms: C_9  and  C_10
REMARK    4  A    between atoms: C_17  and  C_18
REMARK    5  A    between atoms: C_23  and  O_24
REMARK                            x       y       z     vdW  Elec       q    Type
REMARK                         _______ _______ _______ _____ _____    ______ ____
ROOT
ATOM      1  N   UNL     1      -0.467  12.344  18.785  0.00  0.00    +0.000 N 
ATOM      2  N   UNL     1       0.590  11.512  18.562  0.00  0.00    +0.000 NA
ATOM      3  C   UNL     1       0.303  10.348  19.048  0.00  0.00    +0.000 C 
ATOM      4  C   UNL     1      -1.048  10.248  19.701  0.00  0.00    +0.000 C 
ATOM      5  C   UNL     1      -1.557  11.677  19.516  0.00  0.00    +0.000 C 
ENDROOT
BRANCH   1  11
ATOM      6  C   UNL     1      -0.472  18.143  20.449  0.00  0.00    +0.000 C 
ATOM      7  N   UNL     1       0.019  16.783  20.353  0.00  0.00    +0.000 N 
ATOM      8  C   UNL     1      -0.133  16.087  19.166  0.00  0.00    +0.000 C 
ATOM      9  O   UNL     1      -0.464  16.553  18.085  0.00  0.00    +0.000 OA
ATOM     10  C   UNL     1       0.090  14.646  19.417  0.00  0.00    +0.000 C 
ATOM     11  C   UNL     1      -0.353  13.706  18.574  0.00  0.00    +0.000 C 
ATOM     12  S   UNL     1       0.808  14.418  20.962  0.00  0.00    +0.000 S 
ATOM     13  C   UNL     1       0.509  16.076  21.433  0.00  0.00    +0.000 C 
ATOM     14  S   UNL     1       0.786  16.628  22.982  0.00  0.00    +0.000 S 
ENDBRANCH   1  11
BRANCH   3  15
ATOM     15  C   UNL     1       1.239   9.204  18.978  0.00  0.00    +0.000 A 
ATOM     16  C   UNL     1       1.979   9.006  17.804  0.00  0.00    +0.000 A 
ATOM     17  C   UNL     1       2.855   7.926  17.698  0.00  0.00    +0.000 A 
ATOM     18  C   UNL     1       2.994   7.039  18.765  0.00  0.00    +0.000 A 
ATOM     19  C   UNL     1       2.265   7.237  19.938  0.00  0.00    +0.000 A 
ATOM     20  C   UNL     1       1.390   8.319  20.049  0.00  0.00    +0.000 A 
ENDBRANCH   3  15
BRANCH   5  21
ATOM     21  C   UNL     1      -2.862  11.720  18.739  0.00  0.00    +0.000 A 
ATOM     22  C   UNL     1      -2.942  11.254  17.413  0.00  0.00    +0.000 A 
ATOM     23  C   UNL     1      -4.133  11.339  16.691  0.00  0.00    +0.000 A 
ATOM     24  C   UNL     1      -5.269  11.873  17.289  0.00  0.00    +0.000 A 
ATOM     25  C   UNL     1      -5.226  12.296  18.618  0.00  0.00    +0.000 A 
ATOM     26  C   UNL     1      -4.029  12.207  19.334  0.00  0.00    +0.000 A 
BRANCH  26  27
ATOM     27  O   UNL     1      -3.991  12.591  20.647  0.00  0.00    +0.000 OA
ATOM     28  H   UNL     1      -3.087  12.455  20.982  0.00  0.00    +0.000 HD
ENDBRANCH  26  27
ENDBRANCH   5  21
TORSDOF 4
ENDMDL
MODEL 9
REMARK VINA RESULT:      -6.6      3.420      6.794
REMARK  Name = 
REMARK  5 active torsions:
REMARK  status: ('A' for Active; 'I' for Inactive)
REMARK    1  A    between atoms: C_1  and  N_2
REMARK    2  A    between atoms: C_6  and  N_7
REMARK    3  A    between atoms: C_9  and  C_10
REMARK    4  A    between atoms: C_17  and  C_18
REMARK    5  A    between atoms: C_23  and  O_24
REMARK                            x       y       z     vdW  Elec       q    Type
REMARK                         _______ _______ _______ _____ _____    ______ ____
ROOT
ATOM      1  N   UNL     1      -1.215  13.074  20.127  0.00  0.00    +0.000 N 
ATOM      2  N   UNL     1      -0.655  13.915  19.212  0.00  0.00    +0.000 NA
ATOM      3  C   UNL     1       0.559  14.170  19.581  0.00  0.00    +0.000 C 
ATOM      4  C   UNL     1       0.985  13.506  20.861  0.00  0.00    +0.000 C 
ATOM      5  C   UNL     1      -0.294  12.756  21.230  0.00  0.00    +0.000 C 
ENDROOT
BRANCH   1  11
ATOM      6  C   UNL     1      -6.769  12.896  22.477  0.00  0.00    +0.000 C 
ATOM      7  N   UNL     1      -5.571  13.500  21.930  0.00  0.00    +0.000 N 
ATOM      8  C   UNL     1      -4.910  12.876  20.885  0.00  0.00    +0.000 C 
ATOM      9  O   UNL     1      -5.331  11.949  20.208  0.00  0.00    +0.000 OA
ATOM     10  C   UNL     1      -3.554  13.453  20.755  0.00  0.00    +0.000 C 
ATOM     11  C   UNL     1      -2.573  12.812  20.110  0.00  0.00    +0.000 C 
ATOM     12  S   UNL     1      -3.437  14.903  21.672  0.00  0.00    +0.000 S 
ATOM     13  C   UNL     1      -4.954  14.602  22.488  0.00  0.00    +0.000 C 
ATOM     14  S   UNL     1      -5.488  15.546  23.755  0.00  0.00    +0.000 S 
ENDBRANCH   1  11
BRANCH   3  15
ATOM     15  C   UNL     1       1.455  15.058  18.808  0.00  0.00    +0.000 A 
ATOM     16  C   UNL     1       1.081  16.395  18.614  0.00  0.00    +0.000 A 
ATOM     17  C   UNL     1       1.895  17.252  17.873  0.00  0.00    +0.000 A 
ATOM     18  C   UNL     1       3.083  16.776  17.322  0.00  0.00    +0.000 A 
ATOM     19  C   UNL     1       3.463  15.448  17.519  0.00  0.00    +0.000 A 
ATOM     20  C   UNL     1       2.653  14.588  18.264  0.00  0.00    +0.000 A 
ENDBRANCH   3  15
BRANCH   5  21
ATOM     21  C   UNL     1      -0.061  11.261  21.354  0.00  0.00    +0.000 A 
ATOM     22  C   UNL     1       0.662  10.546  20.379  0.00  0.00    +0.000 A 
ATOM     23  C   UNL     1       0.831   9.166  20.477  0.00  0.00    +0.000 A 
ATOM     24  C   UNL     1       0.299   8.477  21.561  0.00  0.00    +0.000 A 
ATOM     25  C   UNL     1      -0.379   9.170  22.565  0.00  0.00    +0.000 A 
ATOM     26  C   UNL     1      -0.545  10.554  22.459  0.00  0.00    +0.000 A 
BRANCH  26  27
ATOM     27  O   UNL     1      -1.181  11.241  23.456  0.00  0.00    +0.000 OA
ATOM     28  H   UNL     1      -0.685  11.114  24.284  0.00  0.00    +0.000 HD
ENDBRANCH  26  27
ENDBRANCH   5  21
TORSDOF 4
ENDMDL
