MODEL 1
REMARK VINA RESULT:      -7.2      0.000      0.000
REMARK  Name = 
REMARK  7 active torsions:
REMARK  status: ('A' for Active; 'I' for Inactive)
REMARK    1  A    between atoms: C_1  and  O_2
REMARK    2  A    between atoms: O_2  and  C_3
REMARK    3  A    between atoms: C_6  and  C_7
REMARK    4  A    between atoms: N_9  and  C_10
REMARK    5  A    between atoms: N_9  and  C_11
REMARK    6  A    between atoms: C_13  and  C_14
REMARK    7  A    between atoms: C_15  and  C_16
REMARK                            x       y       z     vdW  Elec       q    Type
REMARK                         _______ _______ _______ _____ _____    ______ ____
ROOT
ATOM      1  C   UNL     1       3.029   3.783  20.539  0.00  0.00    +0.000 A 
ATOM      2  C   UNL     1       3.800   2.772  19.953  0.00  0.00    +0.000 A 
ATOM      3  C   UNL     1       4.462   2.999  18.748  0.00  0.00    +0.000 A 
ATOM      4  C   UNL     1       4.412   4.251  18.120  0.00  0.00    +0.000 A 
ATOM      5  C   UNL     1       3.733   5.291  18.760  0.00  0.00    +0.000 A 
ATOM      6  C   UNL     1       2.997   5.065  19.941  0.00  0.00    +0.000 A 
ENDROOT
BRANCH   4   7
ATOM      7  C   UNL     1       5.122   4.371  16.812  0.00  0.00    +0.000 C 
ATOM      8  O   UNL     1       4.418   4.281  15.804  0.00  0.00    +0.000 OA
ATOM      9  N   UNL     1       6.495   4.636  16.726  0.00  0.00    +0.000 N 
ATOM     10  C   UNL     1       7.445   4.725  17.823  0.00  0.00    +0.000 C 
ATOM     11  C   UNL     1       7.077   4.747  15.395  0.00  0.00    +0.000 C 
ENDBRANCH   4   7
BRANCH   1  13
ATOM     12  C   UNL     1       1.312   2.568  21.654  0.00  0.00    +0.000 C 
ATOM     13  O   UNL     1       2.297   3.595  21.683  0.00  0.00    +0.000 OA
ENDBRANCH   1  13
BRANCH   6  14
ATOM     14  C   UNL     1       2.077   6.147  20.358  0.00  0.00    +0.000 C 
ATOM     15  C   UNL     1       2.103   7.420  19.929  0.00  0.00    +0.000 C 
BRANCH  15  16
ATOM     16  C   UNL     1       1.313   8.512  20.526  0.00  0.00    +0.000 A 
ATOM     17  C   UNL     1       0.888   9.554  19.687  0.00  0.00    +0.000 A 
ATOM     18  C   UNL     1       0.184  10.648  20.200  0.00  0.00    +0.000 A 
ATOM     19  C   UNL     1      -0.112  10.704  21.559  0.00  0.00    +0.000 A 
ATOM     20 CL   UNL     1      -0.958  12.060  22.195  0.00  0.00    +0.000 Cl
ATOM     21  C   UNL     1       0.279   9.670  22.404  0.00  0.00    +0.000 A 
ATOM     22  C   UNL     1       0.981   8.574  21.888  0.00  0.00    +0.000 A 
ENDBRANCH  15  16
ENDBRANCH   6  14
TORSDOF 4
ENDMDL
MODEL 2
REMARK VINA RESULT:      -7.2      0.301      1.070
REMARK  Name = 
REMARK  7 active torsions:
REMARK  status: ('A' for Active; 'I' for Inactive)
REMARK    1  A    between atoms: C_1  and  O_2
REMARK    2  A    between atoms: O_2  and  C_3
REMARK    3  A    between atoms: C_6  and  C_7
REMARK    4  A    between atoms: N_9  and  C_10
REMARK    5  A    between atoms: N_9  and  C_11
REMARK    6  A    between atoms: C_13  and  C_14
REMARK    7  A    between atoms: C_15  and  C_16
REMARK                            x       y       z     vdW  Elec       q    Type
REMARK                         _______ _______ _______ _____ _____    ______ ____
ROOT
ATOM      1  C   UNL     1       2.692   3.882  20.470  0.00  0.00    +0.000 A 
ATOM      2  C   UNL     1       3.434   2.846  19.891  0.00  0.00    +0.000 A 
ATOM      3  C   UNL     1       4.208   3.080  18.756  0.00  0.00    +0.000 A 
ATOM      4  C   UNL     1       4.298   4.361  18.194  0.00  0.00    +0.000 A 
ATOM      5  C   UNL     1       3.646   5.417  18.835  0.00  0.00    +0.000 A 
ATOM      6  C   UNL     1       2.801   5.190  19.942  0.00  0.00    +0.000 A 
ENDROOT
BRANCH   4   7
ATOM      7  C   UNL     1       5.120   4.490  16.955  0.00  0.00    +0.000 C 
ATOM      8  O   UNL     1       4.535   4.271  15.892  0.00  0.00    +0.000 OA
ATOM      9  N   UNL     1       6.460   4.898  16.982  0.00  0.00    +0.000 N 
ATOM     10  C   UNL     1       7.281   5.147  18.156  0.00  0.00    +0.000 C 
ATOM     11  C   UNL     1       7.159   5.003  15.708  0.00  0.00    +0.000 C 
ENDBRANCH   4   7
BRANCH   1  13
ATOM     12  C   UNL     1       1.561   2.349  21.897  0.00  0.00    +0.000 C 
ATOM     13  O   UNL     1       1.858   3.694  21.541  0.00  0.00    +0.000 OA
ENDBRANCH   1  13
BRANCH   6  14
ATOM     14  C   UNL     1       1.930   6.317  20.343  0.00  0.00    +0.000 C 
ATOM     15  C   UNL     1       2.034   7.590  19.924  0.00  0.00    +0.000 C 
BRANCH  15  16
ATOM     16  C   UNL     1       1.288   8.718  20.509  0.00  0.00    +0.000 A 
ATOM     17  C   UNL     1       1.023   8.690  21.888  0.00  0.00    +0.000 A 
ATOM     18  C   UNL     1       0.271   9.700  22.496  0.00  0.00    +0.000 A 
ATOM     19  C   UNL     1      -0.216  10.756  21.730  0.00  0.00    +0.000 A 
ATOM     20 CL   UNL     1      -1.160  11.987  22.473  0.00  0.00    +0.000 Cl
ATOM     21  C   UNL     1       0.056  10.816  20.367  0.00  0.00    +0.000 A 
ATOM     22  C   UNL     1       0.811   9.805  19.760  0.00  0.00    +0.000 A 
ENDBRANCH  15  16
ENDBRANCH   6  14
TORSDOF 4
ENDMDL
MODEL 3
REMARK VINA RESULT:      -7.1      1.060      1.252
REMARK  Name = 
REMARK  7 active torsions:
REMARK  status: ('A' for Active; 'I' for Inactive)
REMARK    1  A    between atoms: C_1  and  O_2
REMARK    2  A    between atoms: O_2  and  C_3
REMARK    3  A    between atoms: C_6  and  C_7
REMARK    4  A    between atoms: N_9  and  C_10
REMARK    5  A    between atoms: N_9  and  C_11
REMARK    6  A    between atoms: C_13  and  C_14
REMARK    7  A    between atoms: C_15  and  C_16
REMARK                            x       y       z     vdW  Elec       q    Type
REMARK                         _______ _______ _______ _____ _____    ______ ____
ROOT
ATOM      1  C   UNL     1       2.439   3.589  20.096  0.00  0.00    +0.000 A 
ATOM      2  C   UNL     1       3.268   2.614  19.528  0.00  0.00    +0.000 A 
ATOM      3  C   UNL     1       4.442   2.980  18.873  0.00  0.00    +0.000 A 
ATOM      4  C   UNL     1       4.846   4.321  18.808  0.00  0.00    +0.000 A 
ATOM      5  C   UNL     1       4.076   5.282  19.469  0.00  0.00    +0.000 A 
ATOM      6  C   UNL     1       2.848   4.943  20.075  0.00  0.00    +0.000 A 
ENDROOT
BRANCH   4   7
ATOM      7  C   UNL     1       6.098   4.605  18.046  0.00  0.00    +0.000 C 
ATOM      8  O   UNL     1       7.139   4.628  18.706  0.00  0.00    +0.000 OA
ATOM      9  N   UNL     1       6.108   4.773  16.655  0.00  0.00    +0.000 N 
ATOM     10  C   UNL     1       4.959   4.813  15.764  0.00  0.00    +0.000 C 
ATOM     11  C   UNL     1       7.392   5.032  16.017  0.00  0.00    +0.000 C 
ENDBRANCH   4   7
BRANCH   1  13
ATOM     12  C   UNL     1       1.286   2.618  21.938  0.00  0.00    +0.000 C 
ATOM     13  O   UNL     1       1.238   3.295  20.687  0.00  0.00    +0.000 OA
ENDBRANCH   1  13
BRANCH   6  14
ATOM     14  C   UNL     1       1.979   6.074  20.469  0.00  0.00    +0.000 C 
ATOM     15  C   UNL     1       2.060   7.335  20.012  0.00  0.00    +0.000 C 
BRANCH  15  16
ATOM     16  C   UNL     1       1.320   8.473  20.586  0.00  0.00    +0.000 A 
ATOM     17  C   UNL     1       0.908   9.498  19.719  0.00  0.00    +0.000 A 
ATOM     18  C   UNL     1       0.252  10.632  20.207  0.00  0.00    +0.000 A 
ATOM     19  C   UNL     1      -0.006  10.749  21.570  0.00  0.00    +0.000 A 
ATOM     20 CL   UNL     1      -0.792  12.155  22.174  0.00  0.00    +0.000 Cl
ATOM     21  C   UNL     1       0.372   9.734  22.444  0.00  0.00    +0.000 A 
ATOM     22  C   UNL     1       1.026   8.597  21.953  0.00  0.00    +0.000 A 
ENDBRANCH  15  16
ENDBRANCH   6  14
TORSDOF 4
ENDMDL
MODEL 4
REMARK VINA RESULT:      -7.1      1.923      2.356
REMARK  Name = 
REMARK  7 active torsions:
REMARK  status: ('A' for Active; 'I' for Inactive)
REMARK    1  A    between atoms: C_1  and  O_2
REMARK    2  A    between atoms: O_2  and  C_3
REMARK    3  A    between atoms: C_6  and  C_7
REMARK    4  A    between atoms: N_9  and  C_10
REMARK    5  A    between atoms: N_9  and  C_11
REMARK    6  A    between atoms: C_13  and  C_14
REMARK    7  A    between atoms: C_15  and  C_16
REMARK                            x       y       z     vdW  Elec       q    Type
REMARK                         _______ _______ _______ _____ _____    ______ ____
ROOT
ATOM      1  C   UNL     1       3.092   4.051  17.989  0.00  0.00    +0.000 A 
ATOM      2  C   UNL     1       4.011   3.129  17.474  0.00  0.00    +0.000 A 
ATOM      3  C   UNL     1       5.079   3.560  16.688  0.00  0.00    +0.000 A 
ATOM      4  C   UNL     1       5.285   4.923  16.434  0.00  0.00    +0.000 A 
ATOM      5  C   UNL     1       4.432   5.851  17.038  0.00  0.00    +0.000 A 
ATOM      6  C   UNL     1       3.305   5.434  17.776  0.00  0.00    +0.000 A 
ENDROOT
BRANCH   4   7
ATOM      7  C   UNL     1       6.434   5.270  15.546  0.00  0.00    +0.000 C 
ATOM      8  O   UNL     1       7.297   5.999  16.038  0.00  0.00    +0.000 OA
ATOM      9  N   UNL     1       6.564   4.751  14.252  0.00  0.00    +0.000 N 
ATOM     10  C   UNL     1       5.609   3.921  13.535  0.00  0.00    +0.000 C 
ATOM     11  C   UNL     1       7.735   5.148  13.481  0.00  0.00    +0.000 C 
ENDBRANCH   4   7
BRANCH   1  13
ATOM     12  C   UNL     1       1.855   2.297  19.018  0.00  0.00    +0.000 C 
ATOM     13  O   UNL     1       1.984   3.680  18.705  0.00  0.00    +0.000 OA
ENDBRANCH   1  13
BRANCH   6  14
ATOM     14  C   UNL     1       2.312   6.482  18.104  0.00  0.00    +0.000 C 
ATOM     15  C   UNL     1       2.584   7.746  18.467  0.00  0.00    +0.000 C 
BRANCH  15  16
ATOM     16  C   UNL     1       1.580   8.691  18.992  0.00  0.00    +0.000 A 
ATOM     17  C   UNL     1       0.938   9.544  18.081  0.00  0.00    +0.000 A 
ATOM     18  C   UNL     1       0.018  10.502  18.518  0.00  0.00    +0.000 A 
ATOM     19  C   UNL     1      -0.275  10.609  19.875  0.00  0.00    +0.000 A 
ATOM     20 CL   UNL     1      -1.389  11.802  20.418  0.00  0.00    +0.000 Cl
ATOM     21  C   UNL     1       0.333   9.757  20.793  0.00  0.00    +0.000 A 
ATOM     22  C   UNL     1       1.251   8.796  20.351  0.00  0.00    +0.000 A 
ENDBRANCH  15  16
ENDBRANCH   6  14
TORSDOF 4
ENDMDL
MODEL 5
REMARK VINA RESULT:      -7.1      1.932      2.580
REMARK  Name = 
REMARK  7 active torsions:
REMARK  status: ('A' for Active; 'I' for Inactive)
REMARK    1  A    between atoms: C_1  and  O_2
REMARK    2  A    between atoms: O_2  and  C_3
REMARK    3  A    between atoms: C_6  and  C_7
REMARK    4  A    between atoms: N_9  and  C_10
REMARK    5  A    between atoms: N_9  and  C_11
REMARK    6  A    between atoms: C_13  and  C_14
REMARK    7  A    between atoms: C_15  and  C_16
REMARK                            x       y       z     vdW  Elec       q    Type
REMARK                         _______ _______ _______ _____ _____    ______ ____
ROOT
ATOM      1  C   UNL     1       3.137   4.268  18.187  0.00  0.00    +0.000 A 
ATOM      2  C   UNL     1       4.064   3.311  17.756  0.00  0.00    +0.000 A 
ATOM      3  C   UNL     1       5.117   3.676  16.919  0.00  0.00    +0.000 A 
ATOM      4  C   UNL     1       5.302   5.009  16.528  0.00  0.00    +0.000 A 
ATOM      5  C   UNL     1       4.442   5.981  17.046  0.00  0.00    +0.000 A 
ATOM      6  C   UNL     1       3.328   5.625  17.835  0.00  0.00    +0.000 A 
ENDROOT
BRANCH   4   7
ATOM      7  C   UNL     1       6.436   5.281  15.596  0.00  0.00    +0.000 C 
ATOM      8  O   UNL     1       7.361   5.956  16.053  0.00  0.00    +0.000 OA
ATOM      9  N   UNL     1       6.487   4.751  14.301  0.00  0.00    +0.000 N 
ATOM     10  C   UNL     1       5.456   3.979  13.624  0.00  0.00    +0.000 C 
ATOM     11  C   UNL     1       7.651   5.072  13.486  0.00  0.00    +0.000 C 
ENDBRANCH   4   7
BRANCH   1  13
ATOM     12  C   UNL     1       1.245   2.860  18.511  0.00  0.00    +0.000 C 
ATOM     13  O   UNL     1       2.042   3.955  18.950  0.00  0.00    +0.000 OA
ENDBRANCH   1  13
BRANCH   6  14
ATOM     14  C   UNL     1       2.325   6.687  18.069  0.00  0.00    +0.000 C 
ATOM     15  C   UNL     1       2.579   7.949  18.455  0.00  0.00    +0.000 C 
BRANCH  15  16
ATOM     16  C   UNL     1       1.545   8.908  18.883  0.00  0.00    +0.000 A 
ATOM     17  C   UNL     1       1.241   8.983  20.252  0.00  0.00    +0.000 A 
ATOM     18  C   UNL     1       0.231   9.831  20.718  0.00  0.00    +0.000 A 
ATOM     19  C   UNL     1      -0.480  10.620  19.818  0.00  0.00    +0.000 A 
ATOM     20 CL   UNL     1      -1.737  11.646  20.388  0.00  0.00    +0.000 Cl
ATOM     21  C   UNL     1      -0.178  10.579  18.460  0.00  0.00    +0.000 A 
ATOM     22  C   UNL     1       0.835   9.732  17.996  0.00  0.00    +0.000 A 
ENDBRANCH  15  16
ENDBRANCH   6  14
TORSDOF 4
ENDMDL
MODEL 6
REMARK VINA RESULT:      -7.0      2.321      2.802
REMARK  Name = 
REMARK  7 active torsions:
REMARK  status: ('A' for Active; 'I' for Inactive)
REMARK    1  A    between atoms: C_1  and  O_2
REMARK    2  A    between atoms: O_2  and  C_3
REMARK    3  A    between atoms: C_6  and  C_7
REMARK    4  A    between atoms: N_9  and  C_10
REMARK    5  A    between atoms: N_9  and  C_11
REMARK    6  A    between atoms: C_13  and  C_14
REMARK    7  A    between atoms: C_15  and  C_16
REMARK                            x       y       z     vdW  Elec       q    Type
REMARK                         _______ _______ _______ _____ _____    ______ ____
ROOT
ATOM      1  C   UNL     1       3.067   4.908  18.532  0.00  0.00    +0.000 A 
ATOM      2  C   UNL     1       3.909   3.864  18.131  0.00  0.00    +0.000 A 
ATOM      3  C   UNL     1       4.976   4.109  17.269  0.00  0.00    +0.000 A 
ATOM      4  C   UNL     1       5.260   5.407  16.821  0.00  0.00    +0.000 A 
ATOM      5  C   UNL     1       4.487   6.464  17.308  0.00  0.00    +0.000 A 
ATOM      6  C   UNL     1       3.360   6.230  18.122  0.00  0.00    +0.000 A 
ENDROOT
BRANCH   4   7
ATOM      7  C   UNL     1       6.400   5.550  15.868  0.00  0.00    +0.000 C 
ATOM      8  O   UNL     1       7.361   6.210  16.269  0.00  0.00    +0.000 OA
ATOM      9  N   UNL     1       6.414   4.922  14.616  0.00  0.00    +0.000 N 
ATOM     10  C   UNL     1       5.341   4.155  14.003  0.00  0.00    +0.000 C 
ATOM     11  C   UNL     1       7.587   5.121  13.775  0.00  0.00    +0.000 C 
ENDBRANCH   4   7
BRANCH   1  13
ATOM     12  C   UNL     1       2.157   4.759  20.726  0.00  0.00    +0.000 C 
ATOM     13  O   UNL     1       1.960   4.714  19.318  0.00  0.00    +0.000 OA
ENDBRANCH   1  13
BRANCH   6  14
ATOM     14  C   UNL     1       2.446   7.377  18.322  0.00  0.00    +0.000 C 
ATOM     15  C   UNL     1       2.506   8.560  17.688  0.00  0.00    +0.000 C 
BRANCH  15  16
ATOM     16  C   UNL     1       1.716   9.745  18.068  0.00  0.00    +0.000 A 
ATOM     17  C   UNL     1       0.328   9.595  18.211  0.00  0.00    +0.000 A 
ATOM     18  C   UNL     1      -0.486  10.690  18.514  0.00  0.00    +0.000 A 
ATOM     19  C   UNL     1       0.084  11.948  18.687  0.00  0.00    +0.000 A 
ATOM     20 CL   UNL     1      -0.919  13.301  19.037  0.00  0.00    +0.000 Cl
ATOM     21  C   UNL     1       1.461  12.115  18.574  0.00  0.00    +0.000 A 
ATOM     22  C   UNL     1       2.274  11.016  18.273  0.00  0.00    +0.000 A 
ENDBRANCH  15  16
ENDBRANCH   6  14
TORSDOF 4
ENDMDL
MODEL 7
REMARK VINA RESULT:      -7.0      2.304      2.767
REMARK  Name = 
REMARK  7 active torsions:
REMARK  status: ('A' for Active; 'I' for Inactive)
REMARK    1  A    between atoms: C_1  and  O_2
REMARK    2  A    between atoms: O_2  and  C_3
REMARK    3  A    between atoms: C_6  and  C_7
REMARK    4  A    between atoms: N_9  and  C_10
REMARK    5  A    between atoms: N_9  and  C_11
REMARK    6  A    between atoms: C_13  and  C_14
REMARK    7  A    between atoms: C_15  and  C_16
REMARK                            x       y       z     vdW  Elec       q    Type
REMARK                         _______ _______ _______ _____ _____    ______ ____
ROOT
ATOM      1  C   UNL     1       2.929   4.919  18.451  0.00  0.00    +0.000 A 
ATOM      2  C   UNL     1       3.757   3.869  18.035  0.00  0.00    +0.000 A 
ATOM      3  C   UNL     1       4.847   4.117  17.202  0.00  0.00    +0.000 A 
ATOM      4  C   UNL     1       5.168   5.421  16.801  0.00  0.00    +0.000 A 
ATOM      5  C   UNL     1       4.409   6.480  17.305  0.00  0.00    +0.000 A 
ATOM      6  C   UNL     1       3.260   6.247  18.089  0.00  0.00    +0.000 A 
ENDROOT
BRANCH   4   7
ATOM      7  C   UNL     1       6.331   5.567  15.876  0.00  0.00    +0.000 C 
ATOM      8  O   UNL     1       7.270   6.250  16.290  0.00  0.00    +0.000 OA
ATOM      9  N   UNL     1       6.389   4.918  14.636  0.00  0.00    +0.000 N 
ATOM     10  C   UNL     1       5.345   4.123  14.008  0.00  0.00    +0.000 C 
ATOM     11  C   UNL     1       7.580   5.123  13.823  0.00  0.00    +0.000 C 
ENDBRANCH   4   7
BRANCH   1  13
ATOM     12  C   UNL     1       1.983   4.633  20.616  0.00  0.00    +0.000 C 
ATOM     13  O   UNL     1       1.803   4.727  19.208  0.00  0.00    +0.000 OA
ENDBRANCH   1  13
BRANCH   6  14
ATOM     14  C   UNL     1       2.368   7.408  18.305  0.00  0.00    +0.000 C 
ATOM     15  C   UNL     1       2.385   8.561  17.617  0.00  0.00    +0.000 C 
BRANCH  15  16
ATOM     16  C   UNL     1       1.630   9.767  18.003  0.00  0.00    +0.000 A 
ATOM     17  C   UNL     1       2.337  10.971  18.146  0.00  0.00    +0.000 A 
ATOM     18  C   UNL     1       1.692  12.139  18.565  0.00  0.00    +0.000 A 
ATOM     19  C   UNL     1       0.327  12.115  18.837  0.00  0.00    +0.000 A 
ATOM     20 CL   UNL     1      -0.463  13.545  19.374  0.00  0.00    +0.000 Cl
ATOM     21  C   UNL     1      -0.398  10.938  18.678  0.00  0.00    +0.000 A 
ATOM     22  C   UNL     1       0.250   9.771  18.256  0.00  0.00    +0.000 A 
ENDBRANCH  15  16
ENDBRANCH   6  14
TORSDOF 4
ENDMDL
MODEL 8
REMARK VINA RESULT:      -6.9      4.509      7.053
REMARK  Name = 
REMARK  7 active torsions:
REMARK  status: ('A' for Active; 'I' for Inactive)
REMARK    1  A    between atoms: C_1  and  O_2
REMARK    2  A    between atoms: O_2  and  C_3
REMARK    3  A    between atoms: C_6  and  C_7
REMARK    4  A    between atoms: N_9  and  C_10
REMARK    5  A    between atoms: N_9  and  C_11
REMARK    6  A    between atoms: C_13  and  C_14
REMARK    7  A    between atoms: C_15  and  C_16
REMARK                            x       y       z     vdW  Elec       q    Type
REMARK                         _______ _______ _______ _____ _____    ______ ____
ROOT
ATOM      1  C   UNL     1       6.871   5.289  15.720  0.00  0.00    +0.000 A 
ATOM      2  C   UNL     1       6.262   4.029  15.725  0.00  0.00    +0.000 A 
ATOM      3  C   UNL     1       5.474   3.630  16.804  0.00  0.00    +0.000 A 
ATOM      4  C   UNL     1       5.235   4.493  17.882  0.00  0.00    +0.000 A 
ATOM      5  C   UNL     1       5.753   5.789  17.826  0.00  0.00    +0.000 A 
ATOM      6  C   UNL     1       6.610   6.189  16.780  0.00  0.00    +0.000 A 
ENDROOT
BRANCH   4   7
ATOM      7  C   UNL     1       4.413   3.948  19.003  0.00  0.00    +0.000 C 
ATOM      8  O   UNL     1       4.987   3.168  19.766  0.00  0.00    +0.000 OA
ATOM      9  N   UNL     1       3.087   4.344  19.222  0.00  0.00    +0.000 N 
ATOM     10  C   UNL     1       2.280   5.217  18.385  0.00  0.00    +0.000 C 
ATOM     11  C   UNL     1       2.387   3.757  20.356  0.00  0.00    +0.000 C 
ENDBRANCH   4   7
BRANCH   1  13
ATOM     12  C   UNL     1       7.613   5.033  13.472  0.00  0.00    +0.000 C 
ATOM     13  O   UNL     1       7.714   5.706  14.722  0.00  0.00    +0.000 OA
ENDBRANCH   1  13
BRANCH   6  14
ATOM     14  C   UNL     1       7.338   7.462  16.980  0.00  0.00    +0.000 C 
ATOM     15  C   UNL     1       7.901   7.884  18.124  0.00  0.00    +0.000 C 
BRANCH  15  16
ATOM     16  C   UNL     1       8.425   9.245  18.337  0.00  0.00    +0.000 A 
ATOM     17  C   UNL     1       8.006  10.258  17.460  0.00  0.00    +0.000 A 
ATOM     18  C   UNL     1       8.509  11.558  17.571  0.00  0.00    +0.000 A 
ATOM     19  C   UNL     1       9.430  11.860  18.569  0.00  0.00    +0.000 A 
ATOM     20 CL   UNL     1      10.066  13.454  18.693  0.00  0.00    +0.000 Cl
ATOM     21  C   UNL     1       9.841  10.877  19.465  0.00  0.00    +0.000 A 
ATOM     22  C   UNL     1       9.334   9.576  19.354  0.00  0.00    +0.000 A 
ENDBRANCH  15  16
ENDBRANCH   6  14
TORSDOF 4
ENDMDL
MODEL 9
REMARK VINA RESULT:      -6.9      4.586      7.171
REMARK  Name = 
REMARK  7 active torsions:
REMARK  status: ('A' for Active; 'I' for Inactive)
REMARK    1  A    between atoms: C_1  and  O_2
REMARK    2  A    between atoms: O_2  and  C_3
REMARK    3  A    between atoms: C_6  and  C_7
REMARK    4  A    between atoms: N_9  and  C_10
REMARK    5  A    between atoms: N_9  and  C_11
REMARK    6  A    between atoms: C_13  and  C_14
REMARK    7  A    between atoms: C_15  and  C_16
REMARK                            x       y       z     vdW  Elec       q    Type
REMARK                         _______ _______ _______ _____ _____    ______ ____
ROOT
ATOM      1  C   UNL     1       6.975   5.313  15.752  0.00  0.00    +0.000 A 
ATOM      2  C   UNL     1       6.293   4.091  15.762  0.00  0.00    +0.000 A 
ATOM      3  C   UNL     1       5.497   3.735  16.849  0.00  0.00    +0.000 A 
ATOM      4  C   UNL     1       5.322   4.607  17.933  0.00  0.00    +0.000 A 
ATOM      5  C   UNL     1       5.913   5.872  17.873  0.00  0.00    +0.000 A 
ATOM      6  C   UNL     1       6.780   6.224  16.818  0.00  0.00    +0.000 A 
ENDROOT
BRANCH   4   7
ATOM      7  C   UNL     1       4.483   4.108  19.062  0.00  0.00    +0.000 C 
ATOM      8  O   UNL     1       4.996   3.244  19.776  0.00  0.00    +0.000 OA
ATOM      9  N   UNL     1       3.214   4.630  19.342  0.00  0.00    +0.000 N 
ATOM     10  C   UNL     1       2.476   5.614  18.565  0.00  0.00    +0.000 C 
ATOM     11  C   UNL     1       2.492   4.075  20.479  0.00  0.00    +0.000 C 
ENDBRANCH   4   7
BRANCH   1  13
ATOM     12  C   UNL     1       7.555   5.165  13.448  0.00  0.00    +0.000 C 
ATOM     13  O   UNL     1       7.828   5.684  14.745  0.00  0.00    +0.000 OA
ENDBRANCH   1  13
BRANCH   6  14
ATOM     14  C   UNL     1       7.583   7.452  17.011  0.00  0.00    +0.000 C 
ATOM     15  C   UNL     1       7.785   8.093  18.174  0.00  0.00    +0.000 C 
BRANCH  15  16
ATOM     16  C   UNL     1       8.408   9.424  18.288  0.00  0.00    +0.000 A 
ATOM     17  C   UNL     1       9.389   9.611  19.275  0.00  0.00    +0.000 A 
ATOM     18  C   UNL     1       9.978  10.863  19.475  0.00  0.00    +0.000 A 
ATOM     19  C   UNL     1       9.598  11.941  18.680  0.00  0.00    +0.000 A 
ATOM     20 CL   UNL     1      10.305  13.487  18.939  0.00  0.00    +0.000 Cl
ATOM     21  C   UNL     1       8.644  11.772  17.680  0.00  0.00    +0.000 A 
ATOM     22  C   UNL     1       8.058  10.517  17.480  0.00  0.00    +0.000 A 
ENDBRANCH  15  16
ENDBRANCH   6  14
TORSDOF 4
ENDMDL
