MODEL 1
REMARK VINA RESULT:      -8.8      0.000      0.000
REMARK  Name = 
REMARK  6 active torsions:
REMARK  status: ('A' for Active; 'I' for Inactive)
REMARK    1  A    between atoms: C_2  and  C_24
REMARK    2  A    between atoms: N_3  and  C_4
REMARK    3  A    between atoms: C_4  and  C_5
REMARK    4  A    between atoms: C_4  and  C_9
REMARK    5  A    between atoms: N_7  and  O_8
REMARK    6  A    between atoms: C_12  and  C_13
REMARK                            x       y       z     vdW  Elec       q    Type
REMARK                         _______ _______ _______ _____ _____    ______ ____
ROOT
ATOM      1  C   UNL     1       3.223   6.377  18.578  0.00  0.00    +0.000 A 
ATOM      2  C   UNL     1       2.719   6.138  19.863  0.00  0.00    +0.000 A 
ATOM      3  C   UNL     1       1.860   7.056  20.475  0.00  0.00    +0.000 A 
ATOM      4  C   UNL     1       1.489   8.251  19.835  0.00  0.00    +0.000 A 
ATOM      5  C   UNL     1       1.982   8.469  18.541  0.00  0.00    +0.000 A 
ATOM      6  C   UNL     1       2.818   7.543  17.915  0.00  0.00    +0.000 A 
ENDROOT
BRANCH   4   7
ATOM      7  C   UNL     1       0.619   9.242  20.492  0.00  0.00    +0.000 A 
ATOM      8  C   UNL     1       0.010  10.276  19.758  0.00  0.00    +0.000 A 
ATOM      9  C   UNL     1      -0.801  11.215  20.391  0.00  0.00    +0.000 A 
ATOM     10  F   UNL     1      -1.360  12.190  19.660  0.00  0.00    +0.000 F 
ATOM     11  C   UNL     1      -1.033  11.144  21.755  0.00  0.00    +0.000 A 
ATOM     12  F   UNL     1      -1.812  12.052  22.356  0.00  0.00    +0.000 F 
ATOM     13  C   UNL     1      -0.456  10.122  22.491  0.00  0.00    +0.000 A 
ATOM     14  F   UNL     1      -0.677  10.029  23.810  0.00  0.00    +0.000 F 
ATOM     15  C   UNL     1       0.362   9.180  21.874  0.00  0.00    +0.000 A 
ENDBRANCH   4   7
BRANCH   1  16
ATOM     16  C   UNL     1       4.148   5.366  17.911  0.00  0.00    +0.000 C 
BRANCH  16  19
ATOM     17  O   UNL     1       5.595   6.824  15.962  0.00  0.00    +0.000 OA
ATOM     18  C   UNL     1       6.140   6.537  17.008  0.00  0.00    +0.000 C 
ATOM     19  N   UNL     1       5.525   5.840  18.023  0.00  0.00    +0.000 N 
ATOM     20  H   UNL     1       5.955   5.817  18.935  0.00  0.00    +0.000 HD
BRANCH  18  21
ATOM     21  C   UNL     1       7.564   6.933  17.227  0.00  0.00    +0.000 C 
ATOM     22  C   UNL     1       7.932   8.336  17.639  0.00  0.00    +0.000 C 
ATOM     23  C   UNL     1       8.196   7.190  18.573  0.00  0.00    +0.000 C 
ENDBRANCH  18  21
ENDBRANCH  16  19
BRANCH  16  24
ATOM     24  C   UNL     1       3.992   3.922  18.498  0.00  0.00    +0.000 C 
ATOM     25  O   UNL     1       2.979   3.230  18.383  0.00  0.00    +0.000 OA
ATOM     26  N   UNL     1       5.080   3.440  19.194  0.00  0.00    +0.000 N 
ATOM     27  H   UNL     1       5.919   3.961  19.411  0.00  0.00    +0.000 HD
BRANCH  26  28
ATOM     28  O   UNL     1       4.978   2.116  19.684  0.00  0.00    +0.000 OA
ATOM     29  H   UNL     1       5.269   2.210  20.616  0.00  0.00    +0.000 HD
ENDBRANCH  26  28
ENDBRANCH  16  24
ENDBRANCH   1  16
TORSDOF 6
ENDMDL
MODEL 2
REMARK VINA RESULT:      -8.8      0.019      1.615
REMARK  Name = 
REMARK  6 active torsions:
REMARK  status: ('A' for Active; 'I' for Inactive)
REMARK    1  A    between atoms: C_2  and  C_24
REMARK    2  A    between atoms: N_3  and  C_4
REMARK    3  A    between atoms: C_4  and  C_5
REMARK    4  A    between atoms: C_4  and  C_9
REMARK    5  A    between atoms: N_7  and  O_8
REMARK    6  A    between atoms: C_12  and  C_13
REMARK                            x       y       z     vdW  Elec       q    Type
REMARK                         _______ _______ _______ _____ _____    ______ ____
ROOT
ATOM      1  C   UNL     1       3.220   6.389  18.582  0.00  0.00    +0.000 A 
ATOM      2  C   UNL     1       2.723   6.152  19.870  0.00  0.00    +0.000 A 
ATOM      3  C   UNL     1       1.865   7.070  20.485  0.00  0.00    +0.000 A 
ATOM      4  C   UNL     1       1.490   8.264  19.845  0.00  0.00    +0.000 A 
ATOM      5  C   UNL     1       1.977   8.481  18.548  0.00  0.00    +0.000 A 
ATOM      6  C   UNL     1       2.811   7.554  17.920  0.00  0.00    +0.000 A 
ENDROOT
BRANCH   4   7
ATOM      7  C   UNL     1       0.623   9.255  20.504  0.00  0.00    +0.000 A 
ATOM      8  C   UNL     1       0.365   9.193  21.886  0.00  0.00    +0.000 A 
ATOM      9  C   UNL     1      -0.466  10.129  22.497  0.00  0.00    +0.000 A 
ATOM     10  F   UNL     1      -0.695  10.034  23.814  0.00  0.00    +0.000 F 
ATOM     11  C   UNL     1      -1.047  11.148  21.759  0.00  0.00    +0.000 A 
ATOM     12  F   UNL     1      -1.847  12.041  22.353  0.00  0.00    +0.000 F 
ATOM     13  C   UNL     1      -0.790  11.235  20.400  0.00  0.00    +0.000 A 
ATOM     14  F   UNL     1      -1.333  12.219  19.670  0.00  0.00    +0.000 F 
ATOM     15  C   UNL     1       0.033  10.304  19.774  0.00  0.00    +0.000 A 
ENDBRANCH   4   7
BRANCH   1  16
ATOM     16  C   UNL     1       4.142   5.378  17.912  0.00  0.00    +0.000 C 
BRANCH  16  19
ATOM     17  O   UNL     1       5.592   6.823  15.956  0.00  0.00    +0.000 OA
ATOM     18  C   UNL     1       6.137   6.541  17.004  0.00  0.00    +0.000 C 
ATOM     19  N   UNL     1       5.520   5.851  18.021  0.00  0.00    +0.000 N 
ATOM     20  H   UNL     1       5.950   5.832  18.934  0.00  0.00    +0.000 HD
BRANCH  18  21
ATOM     21  C   UNL     1       7.561   6.936  17.220  0.00  0.00    +0.000 C 
ATOM     22  C   UNL     1       7.930   8.335  17.645  0.00  0.00    +0.000 C 
ATOM     23  C   UNL     1       8.199   7.180  18.566  0.00  0.00    +0.000 C 
ENDBRANCH  18  21
ENDBRANCH  16  19
BRANCH  16  24
ATOM     24  C   UNL     1       3.986   3.934  18.498  0.00  0.00    +0.000 C 
ATOM     25  O   UNL     1       2.971   3.245  18.387  0.00  0.00    +0.000 OA
ATOM     26  N   UNL     1       5.076   3.448  19.188  0.00  0.00    +0.000 N 
ATOM     27  H   UNL     1       5.918   3.966  19.401  0.00  0.00    +0.000 HD
BRANCH  26  28
ATOM     28  O   UNL     1       4.974   2.124  19.676  0.00  0.00    +0.000 OA
ATOM     29  H   UNL     1       5.173   2.232  20.630  0.00  0.00    +0.000 HD
ENDBRANCH  26  28
ENDBRANCH  16  24
ENDBRANCH   1  16
TORSDOF 6
ENDMDL
MODEL 3
REMARK VINA RESULT:      -8.8      0.970      2.122
REMARK  Name = 
REMARK  6 active torsions:
REMARK  status: ('A' for Active; 'I' for Inactive)
REMARK    1  A    between atoms: C_2  and  C_24
REMARK    2  A    between atoms: N_3  and  C_4
REMARK    3  A    between atoms: C_4  and  C_5
REMARK    4  A    between atoms: C_4  and  C_9
REMARK    5  A    between atoms: N_7  and  O_8
REMARK    6  A    between atoms: C_12  and  C_13
REMARK                            x       y       z     vdW  Elec       q    Type
REMARK                         _______ _______ _______ _____ _____    ______ ____
ROOT
ATOM      1  C   UNL     1       2.990   6.152  18.301  0.00  0.00    +0.000 A 
ATOM      2  C   UNL     1       2.665   7.428  17.820  0.00  0.00    +0.000 A 
ATOM      3  C   UNL     1       1.979   8.342  18.627  0.00  0.00    +0.000 A 
ATOM      4  C   UNL     1       1.578   8.010  19.932  0.00  0.00    +0.000 A 
ATOM      5  C   UNL     1       1.927   6.738  20.409  0.00  0.00    +0.000 A 
ATOM      6  C   UNL     1       2.636   5.833  19.618  0.00  0.00    +0.000 A 
ENDROOT
BRANCH   4   7
ATOM      7  C   UNL     1       0.817   8.951  20.770  0.00  0.00    +0.000 A 
ATOM      8  C   UNL     1       0.760   8.800  22.168  0.00  0.00    +0.000 A 
ATOM      9  C   UNL     1       0.028   9.690  22.950  0.00  0.00    +0.000 A 
ATOM     10  F   UNL     1      -0.009   9.510  24.278  0.00  0.00    +0.000 F 
ATOM     11  C   UNL     1      -0.651  10.749  22.370  0.00  0.00    +0.000 A 
ATOM     12  F   UNL     1      -1.355  11.598  23.128  0.00  0.00    +0.000 F 
ATOM     13  C   UNL     1      -0.592  10.924  20.997  0.00  0.00    +0.000 A 
ATOM     14  F   UNL     1      -1.232  11.949  20.416  0.00  0.00    +0.000 F 
ATOM     15  C   UNL     1       0.130  10.040  20.201  0.00  0.00    +0.000 A 
ENDBRANCH   4   7
BRANCH   1  16
ATOM     16  C   UNL     1       3.750   5.167  17.421  0.00  0.00    +0.000 C 
BRANCH  16  19
ATOM     17  O   UNL     1       5.770   6.921  16.492  0.00  0.00    +0.000 OA
ATOM     18  C   UNL     1       6.061   6.061  17.299  0.00  0.00    +0.000 C 
ATOM     19  N   UNL     1       5.155   5.166  17.820  0.00  0.00    +0.000 N 
ATOM     20  H   UNL     1       5.411   4.623  18.630  0.00  0.00    +0.000 HD
BRANCH  18  21
ATOM     21  C   UNL     1       7.478   5.933  17.755  0.00  0.00    +0.000 C 
ATOM     22  C   UNL     1       8.178   7.066  18.464  0.00  0.00    +0.000 C 
ATOM     23  C   UNL     1       7.916   5.779  19.191  0.00  0.00    +0.000 C 
ENDBRANCH  18  21
ENDBRANCH  16  19
BRANCH  16  24
ATOM     24  C   UNL     1       3.143   3.724  17.463  0.00  0.00    +0.000 C 
ATOM     25  O   UNL     1       2.005   3.437  17.089  0.00  0.00    +0.000 OA
ATOM     26  N   UNL     1       3.969   2.745  17.973  0.00  0.00    +0.000 N 
ATOM     27  H   UNL     1       4.883   2.895  18.378  0.00  0.00    +0.000 HD
BRANCH  26  28
ATOM     28  O   UNL     1       3.458   1.425  17.967  0.00  0.00    +0.000 OA
ATOM     29  H   UNL     1       3.683   1.104  18.866  0.00  0.00    +0.000 HD
ENDBRANCH  26  28
ENDBRANCH  16  24
ENDBRANCH   1  16
TORSDOF 6
ENDMDL
MODEL 4
REMARK VINA RESULT:      -8.7      5.362      7.815
REMARK  Name = 
REMARK  6 active torsions:
REMARK  status: ('A' for Active; 'I' for Inactive)
REMARK    1  A    between atoms: C_2  and  C_24
REMARK    2  A    between atoms: N_3  and  C_4
REMARK    3  A    between atoms: C_4  and  C_5
REMARK    4  A    between atoms: C_4  and  C_9
REMARK    5  A    between atoms: N_7  and  O_8
REMARK    6  A    between atoms: C_12  and  C_13
REMARK                            x       y       z     vdW  Elec       q    Type
REMARK                         _______ _______ _______ _____ _____    ______ ____
ROOT
ATOM      1  C   UNL     1       7.262   6.415  17.714  0.00  0.00    +0.000 A 
ATOM      2  C   UNL     1       8.125   6.497  18.814  0.00  0.00    +0.000 A 
ATOM      3  C   UNL     1       8.693   7.720  19.188  0.00  0.00    +0.000 A 
ATOM      4  C   UNL     1       8.434   8.898  18.467  0.00  0.00    +0.000 A 
ATOM      5  C   UNL     1       7.552   8.808  17.380  0.00  0.00    +0.000 A 
ATOM      6  C   UNL     1       6.962   7.595  17.021  0.00  0.00    +0.000 A 
ENDROOT
BRANCH   4   7
ATOM      7  C   UNL     1       9.062  10.180  18.828  0.00  0.00    +0.000 A 
ATOM      8  C   UNL     1       9.292  10.525  20.173  0.00  0.00    +0.000 A 
ATOM      9  C   UNL     1       9.876  11.746  20.503  0.00  0.00    +0.000 A 
ATOM     10  F   UNL     1      10.072  12.044  21.795  0.00  0.00    +0.000 F 
ATOM     11  C   UNL     1      10.254  12.640  19.515  0.00  0.00    +0.000 A 
ATOM     12  F   UNL     1      10.812  13.812  19.841  0.00  0.00    +0.000 F 
ATOM     13  C   UNL     1      10.052  12.309  18.185  0.00  0.00    +0.000 A 
ATOM     14  F   UNL     1      10.421  13.155  17.213  0.00  0.00    +0.000 F 
ATOM     15  C   UNL     1       9.464  11.097  17.838  0.00  0.00    +0.000 A 
ENDBRANCH   4   7
BRANCH   1  16
ATOM     16  C   UNL     1       6.637   5.083  17.322  0.00  0.00    +0.000 C 
BRANCH  16  19
ATOM     17  O   UNL     1       5.350   3.659  19.404  0.00  0.00    +0.000 OA
ATOM     18  C   UNL     1       4.686   4.375  18.682  0.00  0.00    +0.000 C 
ATOM     19  N   UNL     1       5.213   5.115  17.649  0.00  0.00    +0.000 N 
ATOM     20  H   UNL     1       4.653   5.840  17.228  0.00  0.00    +0.000 HD
BRANCH  18  21
ATOM     21  C   UNL     1       3.209   4.462  18.892  0.00  0.00    +0.000 C 
ATOM     22  C   UNL     1       2.311   5.121  17.874  0.00  0.00    +0.000 C 
ATOM     23  C   UNL     1       2.178   3.650  18.146  0.00  0.00    +0.000 C 
ENDBRANCH  18  21
ENDBRANCH  16  19
BRANCH  16  24
ATOM     24  C   UNL     1       6.868   4.724  15.815  0.00  0.00    +0.000 C 
ATOM     25  O   UNL     1       7.714   5.257  15.095  0.00  0.00    +0.000 OA
ATOM     26  N   UNL     1       6.037   3.753  15.298  0.00  0.00    +0.000 N 
ATOM     27  H   UNL     1       5.263   3.318  15.784  0.00  0.00    +0.000 HD
BRANCH  26  28
ATOM     28  O   UNL     1       6.268   3.376  13.954  0.00  0.00    +0.000 OA
ATOM     29  H   UNL     1       7.206   3.091  13.970  0.00  0.00    +0.000 HD
ENDBRANCH  26  28
ENDBRANCH  16  24
ENDBRANCH   1  16
TORSDOF 6
ENDMDL
MODEL 5
REMARK VINA RESULT:      -8.7      0.925      1.952
REMARK  Name = 
REMARK  6 active torsions:
REMARK  status: ('A' for Active; 'I' for Inactive)
REMARK    1  A    between atoms: C_2  and  C_24
REMARK    2  A    between atoms: N_3  and  C_4
REMARK    3  A    between atoms: C_4  and  C_5
REMARK    4  A    between atoms: C_4  and  C_9
REMARK    5  A    between atoms: N_7  and  O_8
REMARK    6  A    between atoms: C_12  and  C_13
REMARK                            x       y       z     vdW  Elec       q    Type
REMARK                         _______ _______ _______ _____ _____    ______ ____
ROOT
ATOM      1  C   UNL     1       3.051   6.290  18.396  0.00  0.00    +0.000 A 
ATOM      2  C   UNL     1       2.610   5.908  19.670  0.00  0.00    +0.000 A 
ATOM      3  C   UNL     1       1.838   6.777  20.448  0.00  0.00    +0.000 A 
ATOM      4  C   UNL     1       1.495   8.061  19.991  0.00  0.00    +0.000 A 
ATOM      5  C   UNL     1       1.924   8.424  18.706  0.00  0.00    +0.000 A 
ATOM      6  C   UNL     1       2.672   7.550  17.915  0.00  0.00    +0.000 A 
ENDROOT
BRANCH   4   7
ATOM      7  C   UNL     1       0.720   8.996  20.823  0.00  0.00    +0.000 A 
ATOM      8  C   UNL     1       0.688   8.871  22.224  0.00  0.00    +0.000 A 
ATOM      9  C   UNL     1      -0.058   9.755  23.001  0.00  0.00    +0.000 A 
ATOM     10  F   UNL     1      -0.070   9.600  24.332  0.00  0.00    +0.000 F 
ATOM     11  C   UNL     1      -0.777  10.782  22.410  0.00  0.00    +0.000 A 
ATOM     12  F   UNL     1      -1.494  11.625  23.163  0.00  0.00    +0.000 F 
ATOM     13  C   UNL     1      -0.743  10.932  21.033  0.00  0.00    +0.000 A 
ATOM     14  F   UNL     1      -1.422  11.925  20.443  0.00  0.00    +0.000 F 
ATOM     15  C   UNL     1      -0.008  10.053  20.243  0.00  0.00    +0.000 A 
ENDBRANCH   4   7
BRANCH   1  16
ATOM     16  C   UNL     1       3.880   5.333  17.548  0.00  0.00    +0.000 C 
BRANCH  16  19
ATOM     17  O   UNL     1       5.499   7.017  15.948  0.00  0.00    +0.000 OA
ATOM     18  C   UNL     1       5.995   6.459  16.905  0.00  0.00    +0.000 C 
ATOM     19  N   UNL     1       5.296   5.629  17.750  0.00  0.00    +0.000 N 
ATOM     20  H   UNL     1       5.707   5.368  18.634  0.00  0.00    +0.000 HD
BRANCH  18  21
ATOM     21  C   UNL     1       7.448   6.651  17.194  0.00  0.00    +0.000 C 
ATOM     22  C   UNL     1       7.993   7.996  17.606  0.00  0.00    +0.000 C 
ATOM     23  C   UNL     1       8.041   6.845  18.569  0.00  0.00    +0.000 C 
ENDBRANCH  18  21
ENDBRANCH  16  19
BRANCH  16  24
ATOM     24  C   UNL     1       3.562   3.828  17.846  0.00  0.00    +0.000 C 
ATOM     25  O   UNL     1       4.230   3.111  18.593  0.00  0.00    +0.000 OA
ATOM     26  N   UNL     1       2.462   3.311  17.195  0.00  0.00    +0.000 N 
ATOM     27  H   UNL     1       1.904   3.794  16.505  0.00  0.00    +0.000 HD
BRANCH  26  28
ATOM     28  O   UNL     1       2.128   1.969  17.495  0.00  0.00    +0.000 OA
ATOM     29  H   UNL     1       2.959   1.622  17.881  0.00  0.00    +0.000 HD
ENDBRANCH  26  28
ENDBRANCH  16  24
ENDBRANCH   1  16
TORSDOF 6
ENDMDL
MODEL 6
REMARK VINA RESULT:      -8.6      0.826      1.401
REMARK  Name = 
REMARK  6 active torsions:
REMARK  status: ('A' for Active; 'I' for Inactive)
REMARK    1  A    between atoms: C_2  and  C_24
REMARK    2  A    between atoms: N_3  and  C_4
REMARK    3  A    between atoms: C_4  and  C_5
REMARK    4  A    between atoms: C_4  and  C_9
REMARK    5  A    between atoms: N_7  and  O_8
REMARK    6  A    between atoms: C_12  and  C_13
REMARK                            x       y       z     vdW  Elec       q    Type
REMARK                         _______ _______ _______ _____ _____    ______ ____
ROOT
ATOM      1  C   UNL     1       2.939   6.543  18.345  0.00  0.00    +0.000 A 
ATOM      2  C   UNL     1       2.595   7.760  17.741  0.00  0.00    +0.000 A 
ATOM      3  C   UNL     1       1.847   8.716  18.437  0.00  0.00    +0.000 A 
ATOM      4  C   UNL     1       1.403   8.484  19.750  0.00  0.00    +0.000 A 
ATOM      5  C   UNL     1       1.772   7.272  20.351  0.00  0.00    +0.000 A 
ATOM      6  C   UNL     1       2.541   6.327  19.670  0.00  0.00    +0.000 A 
ENDROOT
BRANCH   4   7
ATOM      7  C   UNL     1       0.578   9.468  20.472  0.00  0.00    +0.000 A 
ATOM      8  C   UNL     1       0.038  10.589  19.815  0.00  0.00    +0.000 A 
ATOM      9  C   UNL     1      -0.730  11.519  20.511  0.00  0.00    +0.000 A 
ATOM     10  F   UNL     1      -1.222  12.579  19.853  0.00  0.00    +0.000 F 
ATOM     11  C   UNL     1      -0.988  11.354  21.863  0.00  0.00    +0.000 A 
ATOM     12  F   UNL     1      -1.725  12.255  22.525  0.00  0.00    +0.000 F 
ATOM     13  C   UNL     1      -0.479  10.248  22.522  0.00  0.00    +0.000 A 
ATOM     14  F   UNL     1      -0.726  10.064  23.827  0.00  0.00    +0.000 F 
ATOM     15  C   UNL     1       0.296   9.313  21.843  0.00  0.00    +0.000 A 
ENDBRANCH   4   7
BRANCH   1  16
ATOM     16  C   UNL     1       3.766   5.513  17.586  0.00  0.00    +0.000 C 
BRANCH  16  19
ATOM     17  O   UNL     1       5.488   6.894  15.812  0.00  0.00    +0.000 OA
ATOM     18  C   UNL     1       5.935   6.474  16.859  0.00  0.00    +0.000 C 
ATOM     19  N   UNL     1       5.183   5.799  17.793  0.00  0.00    +0.000 N 
ATOM     20  H   UNL     1       5.556   5.664  18.721  0.00  0.00    +0.000 HD
BRANCH  18  21
ATOM     21  C   UNL     1       7.383   6.670  17.170  0.00  0.00    +0.000 C 
ATOM     22  C   UNL     1       7.904   7.994  17.671  0.00  0.00    +0.000 C 
ATOM     23  C   UNL     1       7.964   6.785  18.558  0.00  0.00    +0.000 C 
ENDBRANCH  18  21
ENDBRANCH  16  19
BRANCH  16  24
ATOM     24  C   UNL     1       3.416   4.040  17.987  0.00  0.00    +0.000 C 
ATOM     25  O   UNL     1       4.020   3.390  18.841  0.00  0.00    +0.000 OA
ATOM     26  N   UNL     1       2.364   3.469  17.301  0.00  0.00    +0.000 N 
ATOM     27  H   UNL     1       1.863   3.891  16.531  0.00  0.00    +0.000 HD
BRANCH  26  28
ATOM     28  O   UNL     1       1.998   2.158  17.689  0.00  0.00    +0.000 OA
ATOM     29  H   UNL     1       2.827   1.812  18.081  0.00  0.00    +0.000 HD
ENDBRANCH  26  28
ENDBRANCH  16  24
ENDBRANCH   1  16
TORSDOF 6
ENDMDL
MODEL 7
REMARK VINA RESULT:      -8.6      0.789      2.113
REMARK  Name = 
REMARK  6 active torsions:
REMARK  status: ('A' for Active; 'I' for Inactive)
REMARK    1  A    between atoms: C_2  and  C_24
REMARK    2  A    between atoms: N_3  and  C_4
REMARK    3  A    between atoms: C_4  and  C_5
REMARK    4  A    between atoms: C_4  and  C_9
REMARK    5  A    between atoms: N_7  and  O_8
REMARK    6  A    between atoms: C_12  and  C_13
REMARK                            x       y       z     vdW  Elec       q    Type
REMARK                         _______ _______ _______ _____ _____    ______ ____
ROOT
ATOM      1  C   UNL     1       2.967   6.491  18.388  0.00  0.00    +0.000 A 
ATOM      2  C   UNL     1       2.616   7.699  17.770  0.00  0.00    +0.000 A 
ATOM      3  C   UNL     1       1.859   8.656  18.454  0.00  0.00    +0.000 A 
ATOM      4  C   UNL     1       1.411   8.435  19.767  0.00  0.00    +0.000 A 
ATOM      5  C   UNL     1       1.787   7.232  20.382  0.00  0.00    +0.000 A 
ATOM      6  C   UNL     1       2.565   6.285  19.714  0.00  0.00    +0.000 A 
ENDROOT
BRANCH   4   7
ATOM      7  C   UNL     1       0.577   9.420  20.476  0.00  0.00    +0.000 A 
ATOM      8  C   UNL     1       0.304   9.289  21.850  0.00  0.00    +0.000 A 
ATOM      9  C   UNL     1      -0.496  10.220  22.508  0.00  0.00    +0.000 A 
ATOM     10  F   UNL     1      -0.740  10.059  23.816  0.00  0.00    +0.000 F 
ATOM     11  C   UNL     1      -1.031  11.301  21.826  0.00  0.00    +0.000 A 
ATOM     12  F   UNL     1      -1.801  12.190  22.465  0.00  0.00    +0.000 F 
ATOM     13  C   UNL     1      -0.758  11.456  20.477  0.00  0.00    +0.000 A 
ATOM     14  F   UNL     1      -1.256  12.500  19.800  0.00  0.00    +0.000 F 
ATOM     15  C   UNL     1       0.034  10.531  19.803  0.00  0.00    +0.000 A 
ENDBRANCH   4   7
BRANCH   1  16
ATOM     16  C   UNL     1       3.804   5.459  17.643  0.00  0.00    +0.000 C 
BRANCH  16  19
ATOM     17  O   UNL     1       5.473   6.837  15.816  0.00  0.00    +0.000 OA
ATOM     18  C   UNL     1       5.943   6.448  16.866  0.00  0.00    +0.000 C 
ATOM     19  N   UNL     1       5.218   5.778  17.824  0.00  0.00    +0.000 N 
ATOM     20  H   UNL     1       5.607   5.669  18.749  0.00  0.00    +0.000 HD
BRANCH  18  21
ATOM     21  C   UNL     1       7.391   6.679  17.152  0.00  0.00    +0.000 C 
ATOM     22  C   UNL     1       7.891   8.022  17.624  0.00  0.00    +0.000 C 
ATOM     23  C   UNL     1       7.990   6.828  18.529  0.00  0.00    +0.000 C 
ENDBRANCH  18  21
ENDBRANCH  16  19
BRANCH  16  24
ATOM     24  C   UNL     1       3.489   3.989  18.084  0.00  0.00    +0.000 C 
ATOM     25  O   UNL     1       4.136   3.361  18.923  0.00  0.00    +0.000 OA
ATOM     26  N   UNL     1       2.416   3.395  17.454  0.00  0.00    +0.000 N 
ATOM     27  H   UNL     1       1.877   3.798  16.699  0.00  0.00    +0.000 HD
BRANCH  26  28
ATOM     28  O   UNL     1       2.082   2.087  17.879  0.00  0.00    +0.000 OA
ATOM     29  H   UNL     1       2.290   1.545  17.089  0.00  0.00    +0.000 HD
ENDBRANCH  26  28
ENDBRANCH  16  24
ENDBRANCH   1  16
TORSDOF 6
ENDMDL
MODEL 8
REMARK VINA RESULT:      -8.5      5.372      7.629
REMARK  Name = 
REMARK  6 active torsions:
REMARK  status: ('A' for Active; 'I' for Inactive)
REMARK    1  A    between atoms: C_2  and  C_24
REMARK    2  A    between atoms: N_3  and  C_4
REMARK    3  A    between atoms: C_4  and  C_5
REMARK    4  A    between atoms: C_4  and  C_9
REMARK    5  A    between atoms: N_7  and  O_8
REMARK    6  A    between atoms: C_12  and  C_13
REMARK                            x       y       z     vdW  Elec       q    Type
REMARK                         _______ _______ _______ _____ _____    ______ ____
ROOT
ATOM      1  C   UNL     1       7.179   6.266  17.850  0.00  0.00    +0.000 A 
ATOM      2  C   UNL     1       6.892   7.393  17.067  0.00  0.00    +0.000 A 
ATOM      3  C   UNL     1       7.484   8.628  17.350  0.00  0.00    +0.000 A 
ATOM      4  C   UNL     1       8.366   8.787  18.432  0.00  0.00    +0.000 A 
ATOM      5  C   UNL     1       8.663   7.648  19.194  0.00  0.00    +0.000 A 
ATOM      6  C   UNL     1       8.096   6.407  18.899  0.00  0.00    +0.000 A 
ENDROOT
BRANCH   4   7
ATOM      7  C   UNL     1       8.959  10.095  18.761  0.00  0.00    +0.000 A 
ATOM      8  C   UNL     1       9.166  11.071  17.769  0.00  0.00    +0.000 A 
ATOM      9  C   UNL     1       9.738  12.300  18.090  0.00  0.00    +0.000 A 
ATOM     10  F   UNL     1       9.927  13.203  17.118  0.00  0.00    +0.000 F 
ATOM     11  C   UNL     1      10.105  12.591  19.394  0.00  0.00    +0.000 A 
ATOM     12  F   UNL     1      10.656  13.773  19.694  0.00  0.00    +0.000 F 
ATOM     13  C   UNL     1       9.892  11.648  20.387  0.00  0.00    +0.000 A 
ATOM     14  F   UNL     1      10.229  11.913  21.657  0.00  0.00    +0.000 F 
ATOM     15  C   UNL     1       9.328  10.413  20.082  0.00  0.00    +0.000 A 
ENDBRANCH   4   7
BRANCH   1  16
ATOM     16  C   UNL     1       6.542   4.921  17.527  0.00  0.00    +0.000 C 
BRANCH  16  19
ATOM     17  O   UNL     1       5.109   3.408  19.446  0.00  0.00    +0.000 OA
ATOM     18  C   UNL     1       4.508   4.209  18.758  0.00  0.00    +0.000 C 
ATOM     19  N   UNL     1       5.110   4.998  17.805  0.00  0.00    +0.000 N 
ATOM     20  H   UNL     1       4.601   5.780  17.420  0.00  0.00    +0.000 HD
BRANCH  18  21
ATOM     21  C   UNL     1       3.030   4.352  18.920  0.00  0.00    +0.000 C 
ATOM     22  C   UNL     1       2.201   5.104  17.909  0.00  0.00    +0.000 C 
ATOM     23  C   UNL     1       1.993   3.629  18.095  0.00  0.00    +0.000 C 
ENDBRANCH  18  21
ENDBRANCH  16  19
BRANCH  16  24
ATOM     24  C   UNL     1       6.815   4.457  16.056  0.00  0.00    +0.000 C 
ATOM     25  O   UNL     1       7.843   4.710  15.427  0.00  0.00    +0.000 OA
ATOM     26  N   UNL     1       5.803   3.733  15.462  0.00  0.00    +0.000 N 
ATOM     27  H   UNL     1       4.895   3.546  15.866  0.00  0.00    +0.000 HD
BRANCH  26  28
ATOM     28  O   UNL     1       6.054   3.258  14.153  0.00  0.00    +0.000 OA
ATOM     29  H   UNL     1       5.643   3.949  13.592  0.00  0.00    +0.000 HD
ENDBRANCH  26  28
ENDBRANCH  16  24
ENDBRANCH   1  16
TORSDOF 6
ENDMDL
MODEL 9
REMARK VINA RESULT:      -8.5      5.588      8.571
REMARK  Name = 
REMARK  6 active torsions:
REMARK  status: ('A' for Active; 'I' for Inactive)
REMARK    1  A    between atoms: C_2  and  C_24
REMARK    2  A    between atoms: N_3  and  C_4
REMARK    3  A    between atoms: C_4  and  C_5
REMARK    4  A    between atoms: C_4  and  C_9
REMARK    5  A    between atoms: N_7  and  O_8
REMARK    6  A    between atoms: C_12  and  C_13
REMARK                            x       y       z     vdW  Elec       q    Type
REMARK                         _______ _______ _______ _____ _____    ______ ____
ROOT
ATOM      1  C   UNL     1       1.458   8.983  19.518  0.00  0.00    +0.000 A 
ATOM      2  C   UNL     1       1.887   9.167  18.197  0.00  0.00    +0.000 A 
ATOM      3  C   UNL     1       2.614   8.171  17.537  0.00  0.00    +0.000 A 
ATOM      4  C   UNL     1       2.953   6.967  18.175  0.00  0.00    +0.000 A 
ATOM      5  C   UNL     1       2.499   6.784  19.490  0.00  0.00    +0.000 A 
ATOM      6  C   UNL     1       1.750   7.764  20.143  0.00  0.00    +0.000 A 
ENDROOT
BRANCH   4   7
ATOM      7  C   UNL     1       3.756   5.932  17.500  0.00  0.00    +0.000 A 
ATOM      8  C   UNL     1       3.533   4.564  17.743  0.00  0.00    +0.000 A 
ATOM      9  C   UNL     1       4.306   3.595  17.108  0.00  0.00    +0.000 A 
ATOM     10  F   UNL     1       4.071   2.301  17.369  0.00  0.00    +0.000 F 
ATOM     11  C   UNL     1       5.303   3.958  16.216  0.00  0.00    +0.000 A 
ATOM     12  F   UNL     1       6.043   3.020  15.612  0.00  0.00    +0.000 F 
ATOM     13  C   UNL     1       5.524   5.299  15.951  0.00  0.00    +0.000 A 
ATOM     14  F   UNL     1       6.475   5.671  15.084  0.00  0.00    +0.000 F 
ATOM     15  C   UNL     1       4.765   6.280  16.583  0.00  0.00    +0.000 A 
ENDBRANCH   4   7
BRANCH   1  16
ATOM     16  C   UNL     1       0.654  10.066  20.226  0.00  0.00    +0.000 C 
BRANCH  16  19
ATOM     17  O   UNL     1      -0.468  11.890  18.374  0.00  0.00    +0.000 OA
ATOM     18  C   UNL     1      -1.161  10.996  18.814  0.00  0.00    +0.000 C 
ATOM     19  N   UNL     1      -0.713  10.053  19.710  0.00  0.00    +0.000 N 
ATOM     20  H   UNL     1      -1.266   9.226  19.872  0.00  0.00    +0.000 HD
BRANCH  18  21
ATOM     21  C   UNL     1      -2.591  10.900  18.391  0.00  0.00    +0.000 C 
ATOM     22  C   UNL     1      -3.013  11.222  16.978  0.00  0.00    +0.000 C 
ATOM     23  C   UNL     1      -3.162   9.822  17.501  0.00  0.00    +0.000 C 
ENDBRANCH  18  21
ENDBRANCH  16  19
BRANCH  16  24
ATOM     24  C   UNL     1       0.676   9.917  21.785  0.00  0.00    +0.000 C 
ATOM     25  O   UNL     1       1.703   9.874  22.465  0.00  0.00    +0.000 OA
ATOM     26  N   UNL     1      -0.557   9.815  22.393  0.00  0.00    +0.000 N 
ATOM     27  H   UNL     1      -1.447   9.758  21.915  0.00  0.00    +0.000 HD
BRANCH  26  28
ATOM     28  O   UNL     1      -0.558   9.736  23.805  0.00  0.00    +0.000 OA
ATOM     29  H   UNL     1      -0.373   8.787  23.967  0.00  0.00    +0.000 HD
ENDBRANCH  26  28
ENDBRANCH  16  24
ENDBRANCH   1  16
TORSDOF 6
ENDMDL
