MODEL 1
REMARK VINA RESULT:      -8.0      0.000      0.000
REMARK  Name = 
REMARK  5 active torsions:
REMARK  status: ('A' for Active; 'I' for Inactive)
REMARK    1  A    between atoms: C_1  and  N_2
REMARK    2  A    between atoms: C_5  and  C_6
REMARK    3  A    between atoms: C_9  and  C_10
REMARK    4  A    between atoms: N_13  and  C_14
REMARK    5  A    between atoms: C_14  and  C_15
REMARK                            x       y       z     vdW  Elec       q    Type
REMARK                         _______ _______ _______ _____ _____    ______ ____
ROOT
ATOM      1  C   UNL     1      -0.230   9.813  20.458  0.00  0.00    +0.000 A 
ATOM      2  N   UNL     1       0.682   8.866  20.050  0.00  0.00    +0.000 NA
ATOM      3  C   UNL     1       1.436   8.248  20.969  0.00  0.00    +0.000 A 
ATOM      4  N   UNL     1       2.343   7.277  20.569  0.00  0.00    +0.000 N 
ATOM      5  C   UNL     1       1.328   8.526  22.337  0.00  0.00    +0.000 A 
ATOM      6  C   UNL     1       0.386   9.451  22.753  0.00  0.00    +0.000 A 
ATOM      7  C   UNL     1      -0.383  10.113  21.823  0.00  0.00    +0.000 A 
ATOM      8 CL   UNL     1      -1.360  11.363  22.492  0.00  0.00    +0.000 Cl
ATOM      9  H   UNL     1       3.270   7.551  20.901  0.00  0.00    +0.000 HD
ENDROOT
BRANCH   1  13
ATOM     10  C   UNL     1       0.142  13.993  18.757  0.00  0.00    +0.000 A 
ATOM     11  C   UNL     1       0.209  12.900  19.566  0.00  0.00    +0.000 A 
ATOM     12  C   UNL     1      -0.599  11.849  19.037  0.00  0.00    +0.000 A 
ATOM     13  C   UNL     1      -0.912  10.512  19.369  0.00  0.00    +0.000 A 
ATOM     14  C   UNL     1      -1.864   9.882  18.544  0.00  0.00    +0.000 A 
ATOM     15  C   UNL     1      -2.374  10.549  17.441  0.00  0.00    +0.000 A 
ATOM     16  N   UNL     1      -2.066  11.820  17.055  0.00  0.00    +0.000 NA
ATOM     17  C   UNL     1      -1.186  12.396  17.898  0.00  0.00    +0.000 A 
ATOM     18  N   UNL     1      -0.728  13.669  17.743  0.00  0.00    +0.000 N 
ATOM     19  H   UNL     1      -1.024  14.279  17.002  0.00  0.00    +0.000 HD
BRANCH  10  24
ATOM     20  C   UNL     1       2.955  18.479  20.860  0.00  0.00    +0.000 C 
ATOM     21  N   UNL     1       2.309  17.198  20.572  0.00  0.00    +0.000 NA
ATOM     22  C   UNL     1       0.861  17.389  20.404  0.00  0.00    +0.000 C 
ATOM     23  C   UNL     1       0.155  16.064  20.139  0.00  0.00    +0.000 C 
ATOM     24  C   UNL     1       0.767  15.334  18.909  0.00  0.00    +0.000 C 
ATOM     25  C   UNL     1       2.278  15.222  19.088  0.00  0.00    +0.000 C 
ATOM     26  C   UNL     1       2.914  16.576  19.387  0.00  0.00    +0.000 C 
ENDBRANCH  10  24
ENDBRANCH   1  13
BRANCH   4  27
ATOM     27  C   UNL     1       2.194   6.553  19.309  0.00  0.00    +0.000 C 
BRANCH  27  28
ATOM     28  C   UNL     1       3.290   5.464  19.113  0.00  0.00    +0.000 C 
ATOM     29  C   UNL     1       3.332   4.714  17.770  0.00  0.00    +0.000 C 
ATOM     30  C   UNL     1       2.148   3.810  17.476  0.00  0.00    +0.000 C 
ATOM     31  S   UNL     1       1.748   2.710  18.831  0.00  0.00    +0.000 S 
ATOM     32  O   UNL     1       0.296   2.467  18.768  0.00  0.00    +0.000 OA
ATOM     33  O   UNL     1       2.669   1.613  18.791  0.00  0.00    +0.000 OA
ATOM     34  C   UNL     1       2.062   3.608  20.346  0.00  0.00    +0.000 C 
ATOM     35  C   UNL     1       3.315   4.455  20.269  0.00  0.00    +0.000 C 
ENDBRANCH  27  28
ENDBRANCH   4  27
TORSDOF 4
ENDMDL
MODEL 2
REMARK VINA RESULT:      -7.9      0.781      1.459
REMARK  Name = 
REMARK  5 active torsions:
REMARK  status: ('A' for Active; 'I' for Inactive)
REMARK    1  A    between atoms: C_1  and  N_2
REMARK    2  A    between atoms: C_5  and  C_6
REMARK    3  A    between atoms: C_9  and  C_10
REMARK    4  A    between atoms: N_13  and  C_14
REMARK    5  A    between atoms: C_14  and  C_15
REMARK                            x       y       z     vdW  Elec       q    Type
REMARK                         _______ _______ _______ _____ _____    ______ ____
ROOT
ATOM      1  C   UNL     1      -0.137   9.773  20.361  0.00  0.00    +0.000 A 
ATOM      2  N   UNL     1       0.807   8.891  19.888  0.00  0.00    +0.000 NA
ATOM      3  C   UNL     1       1.579   8.230  20.762  0.00  0.00    +0.000 A 
ATOM      4  N   UNL     1       2.520   7.323  20.295  0.00  0.00    +0.000 N 
ATOM      5  C   UNL     1       1.458   8.399  22.147  0.00  0.00    +0.000 A 
ATOM      6  C   UNL     1       0.483   9.258  22.627  0.00  0.00    +0.000 A 
ATOM      7  C   UNL     1      -0.305   9.963  21.744  0.00  0.00    +0.000 A 
ATOM      8 CL   UNL     1      -1.326  11.125  22.501  0.00  0.00    +0.000 Cl
ATOM      9  H   UNL     1       3.436   7.602  20.652  0.00  0.00    +0.000 HD
ENDROOT
BRANCH   1  13
ATOM     10  C   UNL     1       0.152  14.060  18.933  0.00  0.00    +0.000 A 
ATOM     11  C   UNL     1       0.243  12.918  19.669  0.00  0.00    +0.000 A 
ATOM     12  C   UNL     1      -0.551  11.890  19.079  0.00  0.00    +0.000 A 
ATOM     13  C   UNL     1      -0.839  10.529  19.324  0.00  0.00    +0.000 A 
ATOM     14  C   UNL     1      -1.787   9.937  18.467  0.00  0.00    +0.000 A 
ATOM     15  C   UNL     1      -2.317  10.666  17.413  0.00  0.00    +0.000 A 
ATOM     16  N   UNL     1      -2.033  11.964  17.108  0.00  0.00    +0.000 NA
ATOM     17  C   UNL     1      -1.155  12.499  17.981  0.00  0.00    +0.000 A 
ATOM     18  N   UNL     1      -0.720  13.787  17.906  0.00  0.00    +0.000 N 
ATOM     19  H   UNL     1      -1.032  14.439  17.208  0.00  0.00    +0.000 HD
BRANCH  10  24
ATOM     20  C   UNL     1       3.316  18.312  21.024  0.00  0.00    +0.000 C 
ATOM     21  N   UNL     1       2.651  17.055  20.679  0.00  0.00    +0.000 NA
ATOM     22  C   UNL     1       1.211  17.153  20.952  0.00  0.00    +0.000 C 
ATOM     23  C   UNL     1       0.496  15.844  20.635  0.00  0.00    +0.000 C 
ATOM     24  C   UNL     1       0.756  15.399  19.167  0.00  0.00    +0.000 C 
ATOM     25  C   UNL     1       2.259  15.381  18.904  0.00  0.00    +0.000 C 
ATOM     26  C   UNL     1       2.914  16.706  19.276  0.00  0.00    +0.000 C 
ENDBRANCH  10  24
ENDBRANCH   1  13
BRANCH   4  27
ATOM     27  C   UNL     1       2.399   6.692  18.983  0.00  0.00    +0.000 C 
BRANCH  27  28
ATOM     28  C   UNL     1       1.568   5.376  19.028  0.00  0.00    +0.000 C 
ATOM     29  C   UNL     1       1.600   4.545  20.323  0.00  0.00    +0.000 C 
ATOM     30  C   UNL     1       2.934   3.910  20.672  0.00  0.00    +0.000 C 
ATOM     31  S   UNL     1       3.672   3.022  19.304  0.00  0.00    +0.000 S 
ATOM     32  O   UNL     1       5.132   3.105  19.480  0.00  0.00    +0.000 OA
ATOM     33  O   UNL     1       3.024   1.747  19.208  0.00  0.00    +0.000 OA
ATOM     34  C   UNL     1       3.273   3.929  17.814  0.00  0.00    +0.000 C 
ATOM     35  C   UNL     1       1.858   4.468  17.824  0.00  0.00    +0.000 C 
ENDBRANCH  27  28
ENDBRANCH   4  27
TORSDOF 4
ENDMDL
MODEL 3
REMARK VINA RESULT:      -7.8      5.295      9.308
REMARK  Name = 
REMARK  5 active torsions:
REMARK  status: ('A' for Active; 'I' for Inactive)
REMARK    1  A    between atoms: C_1  and  N_2
REMARK    2  A    between atoms: C_5  and  C_6
REMARK    3  A    between atoms: C_9  and  C_10
REMARK    4  A    between atoms: N_13  and  C_14
REMARK    5  A    between atoms: C_14  and  C_15
REMARK                            x       y       z     vdW  Elec       q    Type
REMARK                         _______ _______ _______ _____ _____    ______ ____
ROOT
ATOM      1  C   UNL     1      -2.310  11.801  18.483  0.00  0.00    +0.000 A 
ATOM      2  N   UNL     1      -3.045  12.300  19.534  0.00  0.00    +0.000 NA
ATOM      3  C   UNL     1      -4.378  12.167  19.519  0.00  0.00    +0.000 A 
ATOM      4  N   UNL     1      -5.127  12.648  20.584  0.00  0.00    +0.000 N 
ATOM      5  C   UNL     1      -5.057  11.530  18.472  0.00  0.00    +0.000 A 
ATOM      6  C   UNL     1      -4.316  10.994  17.432  0.00  0.00    +0.000 A 
ATOM      7  C   UNL     1      -2.946  11.141  17.417  0.00  0.00    +0.000 A 
ATOM      8 CL   UNL     1      -2.205  10.591  15.964  0.00  0.00    +0.000 Cl
ATOM      9  H   UNL     1      -5.815  13.308  20.217  0.00  0.00    +0.000 HD
ENDROOT
BRANCH   1  13
ATOM     10  C   UNL     1       1.411   9.227  18.318  0.00  0.00    +0.000 A 
ATOM     11  C   UNL     1       0.129   9.664  18.454  0.00  0.00    +0.000 A 
ATOM     12  C   UNL     1       0.097  11.091  18.467  0.00  0.00    +0.000 A 
ATOM     13  C   UNL     1      -0.881  12.108  18.539  0.00  0.00    +0.000 A 
ATOM     14  C   UNL     1      -0.392  13.427  18.598  0.00  0.00    +0.000 A 
ATOM     15  C   UNL     1       0.972  13.665  18.507  0.00  0.00    +0.000 A 
ATOM     16  N   UNL     1       1.947  12.721  18.387  0.00  0.00    +0.000 NA
ATOM     17  C   UNL     1       1.434  11.473  18.380  0.00  0.00    +0.000 A 
ATOM     18  N   UNL     1       2.200  10.352  18.284  0.00  0.00    +0.000 N 
ATOM     19  H   UNL     1       3.204  10.368  18.232  0.00  0.00    +0.000 HD
BRANCH  10  24
ATOM     20  C   UNL     1       4.764   4.682  19.071  0.00  0.00    +0.000 C 
ATOM     21  N   UNL     1       4.109   5.991  19.031  0.00  0.00    +0.000 NA
ATOM     22  C   UNL     1       3.971   6.443  17.639  0.00  0.00    +0.000 C 
ATOM     23  C   UNL     1       3.324   7.822  17.567  0.00  0.00    +0.000 C 
ATOM     24  C   UNL     1       1.951   7.841  18.298  0.00  0.00    +0.000 C 
ATOM     25  C   UNL     1       2.125   7.296  19.712  0.00  0.00    +0.000 C 
ATOM     26  C   UNL     1       2.810   5.933  19.713  0.00  0.00    +0.000 C 
ENDBRANCH  10  24
ENDBRANCH   1  13
BRANCH   4  27
ATOM     27  C   UNL     1      -4.544  12.848  21.908  0.00  0.00    +0.000 C 
BRANCH  27  28
ATOM     28  C   UNL     1      -4.803  14.279  22.465  0.00  0.00    +0.000 C 
ATOM     29  C   UNL     1      -3.946  15.434  21.917  0.00  0.00    +0.000 C 
ATOM     30  C   UNL     1      -2.469  15.388  22.263  0.00  0.00    +0.000 C 
ATOM     31  S   UNL     1      -2.161  15.111  24.004  0.00  0.00    +0.000 S 
ATOM     32  O   UNL     1      -0.882  14.386  24.101  0.00  0.00    +0.000 OA
ATOM     33  O   UNL     1      -2.341  16.359  24.685  0.00  0.00    +0.000 OA
ATOM     34  C   UNL     1      -3.436  14.002  24.592  0.00  0.00    +0.000 C 
ATOM     35  C   UNL     1      -4.795  14.313  24.000  0.00  0.00    +0.000 C 
ENDBRANCH  27  28
ENDBRANCH   4  27
TORSDOF 4
ENDMDL
MODEL 4
REMARK VINA RESULT:      -7.7      5.779      9.608
REMARK  Name = 
REMARK  5 active torsions:
REMARK  status: ('A' for Active; 'I' for Inactive)
REMARK    1  A    between atoms: C_1  and  N_2
REMARK    2  A    between atoms: C_5  and  C_6
REMARK    3  A    between atoms: C_9  and  C_10
REMARK    4  A    between atoms: N_13  and  C_14
REMARK    5  A    between atoms: C_14  and  C_15
REMARK                            x       y       z     vdW  Elec       q    Type
REMARK                         _______ _______ _______ _____ _____    ______ ____
ROOT
ATOM      1  C   UNL     1      -2.099  11.952  18.616  0.00  0.00    +0.000 A 
ATOM      2  N   UNL     1      -2.707  12.363  19.780  0.00  0.00    +0.000 NA
ATOM      3  C   UNL     1      -4.040  12.284  19.883  0.00  0.00    +0.000 A 
ATOM      4  N   UNL     1      -4.661  12.677  21.061  0.00  0.00    +0.000 N 
ATOM      5  C   UNL     1      -4.845  11.790  18.848  0.00  0.00    +0.000 A 
ATOM      6  C   UNL     1      -4.232  11.341  17.691  0.00  0.00    +0.000 A 
ATOM      7  C   UNL     1      -2.864  11.435  17.556  0.00  0.00    +0.000 A 
ATOM      8 CL   UNL     1      -2.290  11.017  15.988  0.00  0.00    +0.000 Cl
ATOM      9  H   UNL     1      -5.347  13.399  20.834  0.00  0.00    +0.000 HD
ENDROOT
BRANCH   1  13
ATOM     10  C   UNL     1       1.488   9.206  18.311  0.00  0.00    +0.000 A 
ATOM     11  C   UNL     1       0.239   9.707  18.514  0.00  0.00    +0.000 A 
ATOM     12  C   UNL     1       0.269  11.133  18.468  0.00  0.00    +0.000 A 
ATOM     13  C   UNL     1      -0.657  12.195  18.563  0.00  0.00    +0.000 A 
ATOM     14  C   UNL     1      -0.110  13.492  18.532  0.00  0.00    +0.000 A 
ATOM     15  C   UNL     1       1.253  13.664  18.339  0.00  0.00    +0.000 A 
ATOM     16  N   UNL     1       2.177  12.672  18.194  0.00  0.00    +0.000 NA
ATOM     17  C   UNL     1       1.611  11.450  18.274  0.00  0.00    +0.000 A 
ATOM     18  N   UNL     1       2.320  10.292  18.175  0.00  0.00    +0.000 N 
ATOM     19  H   UNL     1       3.318  10.261  18.055  0.00  0.00    +0.000 HD
BRANCH  10  24
ATOM     20  C   UNL     1       4.622   4.525  19.165  0.00  0.00    +0.000 C 
ATOM     21  N   UNL     1       4.027   5.861  19.100  0.00  0.00    +0.000 NA
ATOM     22  C   UNL     1       3.932   6.304  17.702  0.00  0.00    +0.000 C 
ATOM     23  C   UNL     1       3.349   7.709  17.605  0.00  0.00    +0.000 C 
ATOM     24  C   UNL     1       1.966   7.798  18.313  0.00  0.00    +0.000 C 
ATOM     25  C   UNL     1       2.092   7.260  19.736  0.00  0.00    +0.000 C 
ATOM     26  C   UNL     1       2.716   5.869  19.761  0.00  0.00    +0.000 C 
ENDBRANCH  10  24
ENDBRANCH   1  13
BRANCH   4  27
ATOM     27  C   UNL     1      -3.948  12.710  22.335  0.00  0.00    +0.000 C 
BRANCH  27  28
ATOM     28  C   UNL     1      -4.814  13.297  23.489  0.00  0.00    +0.000 C 
ATOM     29  C   UNL     1      -5.673  14.538  23.189  0.00  0.00    +0.000 C 
ATOM     30  C   UNL     1      -4.911  15.816  22.889  0.00  0.00    +0.000 C 
ATOM     31  S   UNL     1      -3.635  16.176  24.091  0.00  0.00    +0.000 S 
ATOM     32  O   UNL     1      -2.572  16.905  23.379  0.00  0.00    +0.000 OA
ATOM     33  O   UNL     1      -4.266  16.754  25.241  0.00  0.00    +0.000 OA
ATOM     34  C   UNL     1      -2.940  14.608  24.603  0.00  0.00    +0.000 C 
ATOM     35  C   UNL     1      -3.993  13.532  24.765  0.00  0.00    +0.000 C 
ENDBRANCH  27  28
ENDBRANCH   4  27
TORSDOF 4
ENDMDL
MODEL 5
REMARK VINA RESULT:      -7.7      4.870      8.874
REMARK  Name = 
REMARK  5 active torsions:
REMARK  status: ('A' for Active; 'I' for Inactive)
REMARK    1  A    between atoms: C_1  and  N_2
REMARK    2  A    between atoms: C_5  and  C_6
REMARK    3  A    between atoms: C_9  and  C_10
REMARK    4  A    between atoms: N_13  and  C_14
REMARK    5  A    between atoms: C_14  and  C_15
REMARK                            x       y       z     vdW  Elec       q    Type
REMARK                         _______ _______ _______ _____ _____    ______ ____
ROOT
ATOM      1  C   UNL     1       1.073  12.612  20.524  0.00  0.00    +0.000 A 
ATOM      2  N   UNL     1       2.226  13.090  21.102  0.00  0.00    +0.000 NA
ATOM      3  C   UNL     1       2.964  13.990  20.439  0.00  0.00    +0.000 A 
ATOM      4  N   UNL     1       4.119  14.493  21.023  0.00  0.00    +0.000 N 
ATOM      5  C   UNL     1       2.602  14.472  19.175  0.00  0.00    +0.000 A 
ATOM      6  C   UNL     1       1.423  14.021  18.607  0.00  0.00    +0.000 A 
ATOM      7  C   UNL     1       0.662  13.079  19.263  0.00  0.00    +0.000 A 
ATOM      8 CL   UNL     1      -0.662  12.487  18.334  0.00  0.00    +0.000 Cl
ATOM      9  H   UNL     1       4.901  14.313  20.391  0.00  0.00    +0.000 HD
ENDROOT
BRANCH   1  13
ATOM     10  C   UNL     1       1.589   8.115  20.616  0.00  0.00    +0.000 A 
ATOM     11  C   UNL     1       1.620   9.427  20.255  0.00  0.00    +0.000 A 
ATOM     12  C   UNL     1       0.769  10.191  21.110  0.00  0.00    +0.000 A 
ATOM     13  C   UNL     1       0.410  11.546  21.275  0.00  0.00    +0.000 A 
ATOM     14  C   UNL     1      -0.571  11.807  22.252  0.00  0.00    +0.000 A 
ATOM     15  C   UNL     1      -1.064  10.771  23.031  0.00  0.00    +0.000 A 
ATOM     16  N   UNL     1      -0.712   9.458  22.941  0.00  0.00    +0.000 NA
ATOM     17  C   UNL     1       0.196   9.252  21.965  0.00  0.00    +0.000 A 
ATOM     18  N   UNL     1       0.700   8.024  21.661  0.00  0.00    +0.000 N 
ATOM     19  H   UNL     1       0.421   7.179  22.128  0.00  0.00    +0.000 HD
BRANCH  10  24
ATOM     20  C   UNL     1       2.636   3.421  17.562  0.00  0.00    +0.000 C 
ATOM     21  N   UNL     1       2.102   4.613  18.221  0.00  0.00    +0.000 NA
ATOM     22  C   UNL     1       2.091   4.423  19.678  0.00  0.00    +0.000 C 
ATOM     23  C   UNL     1       1.505   5.637  20.391  0.00  0.00    +0.000 C 
ATOM     24  C   UNL     1       2.264   6.939  20.005  0.00  0.00    +0.000 C 
ATOM     25  C   UNL     1       2.318   7.061  18.486  0.00  0.00    +0.000 C 
ATOM     26  C   UNL     1       2.878   5.800  17.837  0.00  0.00    +0.000 C 
ENDBRANCH  10  24
ENDBRANCH   1  13
BRANCH   4  27
ATOM     27  C   UNL     1       4.321  14.479  22.470  0.00  0.00    +0.000 C 
BRANCH  27  28
ATOM     28  C   UNL     1       5.828  14.498  22.862  0.00  0.00    +0.000 C 
ATOM     29  C   UNL     1       6.666  13.240  22.576  0.00  0.00    +0.000 C 
ATOM     30  C   UNL     1       6.303  12.004  23.379  0.00  0.00    +0.000 C 
ATOM     31  S   UNL     1       6.169  12.318  25.136  0.00  0.00    +0.000 S 
ATOM     32  O   UNL     1       5.172  11.370  25.663  0.00  0.00    +0.000 OA
ATOM     33  O   UNL     1       7.496  12.351  25.678  0.00  0.00    +0.000 OA
ATOM     34  C   UNL     1       5.481  13.958  25.324  0.00  0.00    +0.000 C 
ATOM     35  C   UNL     1       6.041  14.941  24.317  0.00  0.00    +0.000 C 
ENDBRANCH  27  28
ENDBRANCH   4  27
TORSDOF 4
ENDMDL
MODEL 6
REMARK VINA RESULT:      -7.7      0.937      1.378
REMARK  Name = 
REMARK  5 active torsions:
REMARK  status: ('A' for Active; 'I' for Inactive)
REMARK    1  A    between atoms: C_1  and  N_2
REMARK    2  A    between atoms: C_5  and  C_6
REMARK    3  A    between atoms: C_9  and  C_10
REMARK    4  A    between atoms: N_13  and  C_14
REMARK    5  A    between atoms: C_14  and  C_15
REMARK                            x       y       z     vdW  Elec       q    Type
REMARK                         _______ _______ _______ _____ _____    ______ ____
ROOT
ATOM      1  C   UNL     1      -0.368   9.815  20.646  0.00  0.00    +0.000 A 
ATOM      2  N   UNL     1       0.509   8.804  20.329  0.00  0.00    +0.000 NA
ATOM      3  C   UNL     1       1.230   8.235  21.304  0.00  0.00    +0.000 A 
ATOM      4  N   UNL     1       2.102   7.199  20.996  0.00  0.00    +0.000 N 
ATOM      5  C   UNL     1       1.121   8.627  22.644  0.00  0.00    +0.000 A 
ATOM      6  C   UNL     1       0.212   9.619  22.971  0.00  0.00    +0.000 A 
ATOM      7  C   UNL     1      -0.522  10.233  21.980  0.00  0.00    +0.000 A 
ATOM      8 CL   UNL     1      -1.454  11.570  22.533  0.00  0.00    +0.000 Cl
ATOM      9  H   UNL     1       3.036   7.463  21.316  0.00  0.00    +0.000 HD
ENDROOT
BRANCH   1  13
ATOM     10  C   UNL     1       0.041  13.901  18.737  0.00  0.00    +0.000 A 
ATOM     11  C   UNL     1       0.083  12.853  19.606  0.00  0.00    +0.000 A 
ATOM     12  C   UNL     1      -0.696  11.768  19.104  0.00  0.00    +0.000 A 
ATOM     13  C   UNL     1      -1.012  10.448  19.495  0.00  0.00    +0.000 A 
ATOM     14  C   UNL     1      -1.926   9.765  18.670  0.00  0.00    +0.000 A 
ATOM     15  C   UNL     1      -2.398  10.368  17.513  0.00  0.00    +0.000 A 
ATOM     16  N   UNL     1      -2.084  11.618  17.070  0.00  0.00    +0.000 NA
ATOM     17  C   UNL     1      -1.241  12.247  17.915  0.00  0.00    +0.000 A 
ATOM     18  N   UNL     1      -0.786  13.514  17.709  0.00  0.00    +0.000 N 
ATOM     19  H   UNL     1      -1.058  14.080  16.924  0.00  0.00    +0.000 HD
BRANCH  10  24
ATOM     20  C   UNL     1       2.517  18.613  20.765  0.00  0.00    +0.000 C 
ATOM     21  N   UNL     1       1.911  17.304  20.519  0.00  0.00    +0.000 NA
ATOM     22  C   UNL     1       0.517  17.467  20.085  0.00  0.00    +0.000 C 
ATOM     23  C   UNL     1      -0.153  16.116  19.855  0.00  0.00    +0.000 C 
ATOM     24  C   UNL     1       0.649  15.253  18.839  0.00  0.00    +0.000 C 
ATOM     25  C   UNL     1       2.106  15.171  19.286  0.00  0.00    +0.000 C 
ATOM     26  C   UNL     1       2.701  16.554  19.533  0.00  0.00    +0.000 C 
ENDBRANCH  10  24
ENDBRANCH   1  13
BRANCH   4  27
ATOM     27  C   UNL     1       1.935   6.381  19.798  0.00  0.00    +0.000 C 
BRANCH  27  28
ATOM     28  C   UNL     1       1.937   4.855  20.113  0.00  0.00    +0.000 C 
ATOM     29  C   UNL     1       3.291   4.173  20.379  0.00  0.00    +0.000 C 
ATOM     30  C   UNL     1       4.240   4.098  19.197  0.00  0.00    +0.000 C 
ATOM     31  S   UNL     1       3.468   3.467  17.710  0.00  0.00    +0.000 S 
ATOM     32  O   UNL     1       4.160   4.095  16.571  0.00  0.00    +0.000 OA
ATOM     33  O   UNL     1       3.402   2.040  17.822  0.00  0.00    +0.000 OA
ATOM     34  C   UNL     1       1.784   4.073  17.697  0.00  0.00    +0.000 C 
ATOM     35  C   UNL     1       1.148   4.049  19.071  0.00  0.00    +0.000 C 
ENDBRANCH  27  28
ENDBRANCH   4  27
TORSDOF 4
ENDMDL
MODEL 7
REMARK VINA RESULT:      -7.6      2.040      2.780
REMARK  Name = 
REMARK  5 active torsions:
REMARK  status: ('A' for Active; 'I' for Inactive)
REMARK    1  A    between atoms: C_1  and  N_2
REMARK    2  A    between atoms: C_5  and  C_6
REMARK    3  A    between atoms: C_9  and  C_10
REMARK    4  A    between atoms: N_13  and  C_14
REMARK    5  A    between atoms: C_14  and  C_15
REMARK                            x       y       z     vdW  Elec       q    Type
REMARK                         _______ _______ _______ _____ _____    ______ ____
ROOT
ATOM      1  C   UNL     1       0.101  10.467  20.880  0.00  0.00    +0.000 A 
ATOM      2  N   UNL     1       0.937   9.461  20.453  0.00  0.00    +0.000 NA
ATOM      3  C   UNL     1       1.290   8.497  21.313  0.00  0.00    +0.000 A 
ATOM      4  N   UNL     1       2.117   7.467  20.886  0.00  0.00    +0.000 N 
ATOM      5  C   UNL     1       0.835   8.470  22.638  0.00  0.00    +0.000 A 
ATOM      6  C   UNL     1      -0.036   9.460  23.059  0.00  0.00    +0.000 A 
ATOM      7  C   UNL     1      -0.394  10.473  22.196  0.00  0.00    +0.000 A 
ATOM      8 CL   UNL     1      -1.321  11.720  22.936  0.00  0.00    +0.000 Cl
ATOM      9  H   UNL     1       2.938   7.444  21.493  0.00  0.00    +0.000 HD
ENDROOT
BRANCH   1  13
ATOM     10  C   UNL     1       2.508  14.104  19.664  0.00  0.00    +0.000 A 
ATOM     11  C   UNL     1       2.011  13.031  20.338  0.00  0.00    +0.000 A 
ATOM     12  C   UNL     1       0.809  12.575  19.717  0.00  0.00    +0.000 A 
ATOM     13  C   UNL     1      -0.123  11.531  19.901  0.00  0.00    +0.000 A 
ATOM     14  C   UNL     1      -1.237  11.543  19.039  0.00  0.00    +0.000 A 
ATOM     15  C   UNL     1      -1.326  12.498  18.037  0.00  0.00    +0.000 A 
ATOM     16  N   UNL     1      -0.428  13.493  17.791  0.00  0.00    +0.000 NA
ATOM     17  C   UNL     1       0.596  13.467  18.668  0.00  0.00    +0.000 A 
ATOM     18  N   UNL     1       1.620  14.364  18.647  0.00  0.00    +0.000 N 
ATOM     19  H   UNL     1       1.679  15.123  17.990  0.00  0.00    +0.000 HD
BRANCH  10  24
ATOM     20  C   UNL     1       7.856  15.806  20.644  0.00  0.00    +0.000 C 
ATOM     21  N   UNL     1       6.604  15.104  20.357  0.00  0.00    +0.000 NA
ATOM     22  C   UNL     1       5.695  15.201  21.508  0.00  0.00    +0.000 C 
ATOM     23  C   UNL     1       4.395  14.448  21.251  0.00  0.00    +0.000 C 
ATOM     24  C   UNL     1       3.701  14.944  19.950  0.00  0.00    +0.000 C 
ATOM     25  C   UNL     1       4.699  14.898  18.797  0.00  0.00    +0.000 C 
ATOM     26  C   UNL     1       5.989  15.637  19.135  0.00  0.00    +0.000 C 
ENDBRANCH  10  24
ENDBRANCH   1  13
BRANCH   4  27
ATOM     27  C   UNL     1       2.230   7.103  19.476  0.00  0.00    +0.000 C 
BRANCH  27  28
ATOM     28  C   UNL     1       1.637   5.694  19.174  0.00  0.00    +0.000 C 
ATOM     29  C   UNL     1       1.765   4.608  20.256  0.00  0.00    +0.000 C 
ATOM     30  C   UNL     1       3.175   4.132  20.555  0.00  0.00    +0.000 C 
ATOM     31  S   UNL     1       4.103   3.707  19.084  0.00  0.00    +0.000 S 
ATOM     32  O   UNL     1       5.520   3.980  19.381  0.00  0.00    +0.000 OA
ATOM     33  O   UNL     1       3.688   2.400  18.667  0.00  0.00    +0.000 OA
ATOM     34  C   UNL     1       3.607   4.852  17.802  0.00  0.00    +0.000 C 
ATOM     35  C   UNL     1       2.121   5.141  17.826  0.00  0.00    +0.000 C 
ENDBRANCH  27  28
ENDBRANCH   4  27
TORSDOF 4
ENDMDL
MODEL 8
REMARK VINA RESULT:      -7.6      3.372      5.276
REMARK  Name = 
REMARK  5 active torsions:
REMARK  status: ('A' for Active; 'I' for Inactive)
REMARK    1  A    between atoms: C_1  and  N_2
REMARK    2  A    between atoms: C_5  and  C_6
REMARK    3  A    between atoms: C_9  and  C_10
REMARK    4  A    between atoms: N_13  and  C_14
REMARK    5  A    between atoms: C_14  and  C_15
REMARK                            x       y       z     vdW  Elec       q    Type
REMARK                         _______ _______ _______ _____ _____    ______ ____
ROOT
ATOM      1  C   UNL     1       1.102   9.100  19.822  0.00  0.00    +0.000 A 
ATOM      2  N   UNL     1       1.955   8.211  19.210  0.00  0.00    +0.000 NA
ATOM      3  C   UNL     1       2.248   7.058  19.825  0.00  0.00    +0.000 A 
ATOM      4  N   UNL     1       3.092   6.146  19.206  0.00  0.00    +0.000 N 
ATOM      5  C   UNL     1       1.712   6.717  21.074  0.00  0.00    +0.000 A 
ATOM      6  C   UNL     1       0.825   7.593  21.674  0.00  0.00    +0.000 A 
ATOM      7  C   UNL     1       0.528   8.794  21.068  0.00  0.00    +0.000 A 
ATOM      8 CL   UNL     1      -0.434   9.842  22.037  0.00  0.00    +0.000 Cl
ATOM      9  H   UNL     1       3.875   5.957  19.836  0.00  0.00    +0.000 HD
ENDROOT
BRANCH   1  13
ATOM     10  C   UNL     1      -2.514  11.555  18.640  0.00  0.00    +0.000 A 
ATOM     11  C   UNL     1      -1.691  10.541  19.023  0.00  0.00    +0.000 A 
ATOM     12  C   UNL     1      -0.327  10.933  18.875  0.00  0.00    +0.000 A 
ATOM     13  C   UNL     1       0.946  10.376  19.123  0.00  0.00    +0.000 A 
ATOM     14  C   UNL     1       2.047  11.157  18.721  0.00  0.00    +0.000 A 
ATOM     15  C   UNL     1       1.842  12.422  18.190  0.00  0.00    +0.000 A 
ATOM     16  N   UNL     1       0.635  13.019  17.977  0.00  0.00    +0.000 NA
ATOM     17  C   UNL     1      -0.387  12.217  18.337  0.00  0.00    +0.000 A 
ATOM     18  N   UNL     1      -1.695  12.573  18.211  0.00  0.00    +0.000 N 
ATOM     19  H   UNL     1      -1.997  13.450  17.824  0.00  0.00    +0.000 HD
BRANCH  10  24
ATOM     20  C   UNL     1      -7.869  13.391  17.993  0.00  0.00    +0.000 C 
ATOM     21  N   UNL     1      -6.421  13.193  18.082  0.00  0.00    +0.000 NA
ATOM     22  C   UNL     1      -6.044  12.836  19.456  0.00  0.00    +0.000 C 
ATOM     23  C   UNL     1      -4.535  12.658  19.587  0.00  0.00    +0.000 C 
ATOM     24  C   UNL     1      -3.999  11.609  18.572  0.00  0.00    +0.000 C 
ATOM     25  C   UNL     1      -4.475  11.975  17.169  0.00  0.00    +0.000 C 
ATOM     26  C   UNL     1      -5.986  12.174  17.118  0.00  0.00    +0.000 C 
ENDBRANCH  10  24
ENDBRANCH   1  13
BRANCH   4  27
ATOM     27  C   UNL     1       3.289   6.137  17.759  0.00  0.00    +0.000 C 
BRANCH  27  28
ATOM     28  C   UNL     1       4.056   4.872  17.270  0.00  0.00    +0.000 C 
ATOM     29  C   UNL     1       5.163   4.302  18.174  0.00  0.00    +0.000 C 
ATOM     30  C   UNL     1       6.389   5.178  18.357  0.00  0.00    +0.000 C 
ATOM     31  S   UNL     1       7.055   5.790  16.812  0.00  0.00    +0.000 S 
ATOM     32  O   UNL     1       7.676   7.094  17.102  0.00  0.00    +0.000 OA
ATOM     33  O   UNL     1       7.824   4.736  16.218  0.00  0.00    +0.000 OA
ATOM     34  C   UNL     1       5.665   6.102  15.729  0.00  0.00    +0.000 C 
ATOM     35  C   UNL     1       4.592   5.039  15.840  0.00  0.00    +0.000 C 
ENDBRANCH  27  28
ENDBRANCH   4  27
TORSDOF 4
ENDMDL
MODEL 9
REMARK VINA RESULT:      -7.6      1.325      1.670
REMARK  Name = 
REMARK  5 active torsions:
REMARK  status: ('A' for Active; 'I' for Inactive)
REMARK    1  A    between atoms: C_1  and  N_2
REMARK    2  A    between atoms: C_5  and  C_6
REMARK    3  A    between atoms: C_9  and  C_10
REMARK    4  A    between atoms: N_13  and  C_14
REMARK    5  A    between atoms: C_14  and  C_15
REMARK                            x       y       z     vdW  Elec       q    Type
REMARK                         _______ _______ _______ _____ _____    ______ ____
ROOT
ATOM      1  C   UNL     1      -0.116  10.210  20.828  0.00  0.00    +0.000 A 
ATOM      2  N   UNL     1       0.691   9.173  20.420  0.00  0.00    +0.000 NA
ATOM      3  C   UNL     1       1.202   8.343  21.339  0.00  0.00    +0.000 A 
ATOM      4  N   UNL     1       2.000   7.282  20.936  0.00  0.00    +0.000 N 
ATOM      5  C   UNL     1       0.940   8.487  22.708  0.00  0.00    +0.000 A 
ATOM      6  C   UNL     1       0.099   9.507  23.117  0.00  0.00    +0.000 A 
ATOM      7  C   UNL     1      -0.419  10.385  22.190  0.00  0.00    +0.000 A 
ATOM      8 CL   UNL     1      -1.282  11.702  22.886  0.00  0.00    +0.000 Cl
ATOM      9  H   UNL     1       2.900   7.359  21.414  0.00  0.00    +0.000 HD
ENDROOT
BRANCH   1  13
ATOM     10  C   UNL     1       1.609  14.097  19.275  0.00  0.00    +0.000 A 
ATOM     11  C   UNL     1       1.308  13.017  20.046  0.00  0.00    +0.000 A 
ATOM     12  C   UNL     1       0.212  12.299  19.477  0.00  0.00    +0.000 A 
ATOM     13  C   UNL     1      -0.519  11.125  19.760  0.00  0.00    +0.000 A 
ATOM     14  C   UNL     1      -1.611  10.861  18.910  0.00  0.00    +0.000 A 
ATOM     15  C   UNL     1      -1.861  11.692  17.828  0.00  0.00    +0.000 A 
ATOM     16  N   UNL     1      -1.155  12.806  17.487  0.00  0.00    +0.000 NA
ATOM     17  C   UNL     1      -0.149  13.042  18.355  0.00  0.00    +0.000 A 
ATOM     18  N   UNL     1       0.697  14.103  18.246  0.00  0.00    +0.000 N 
ATOM     19  H   UNL     1       0.625  14.799  17.525  0.00  0.00    +0.000 HD
BRANCH  10  24
ATOM     20  C   UNL     1       6.501  17.018  19.248  0.00  0.00    +0.000 C 
ATOM     21  N   UNL     1       5.398  16.067  19.106  0.00  0.00    +0.000 NA
ATOM     22  C   UNL     1       4.943  15.620  20.430  0.00  0.00    +0.000 C 
ATOM     23  C   UNL     1       3.816  14.600  20.313  0.00  0.00    +0.000 C 
ATOM     24  C   UNL     1       2.630  15.160  19.476  0.00  0.00    +0.000 C 
ATOM     25  C   UNL     1       3.156  15.680  18.141  0.00  0.00    +0.000 C 
ATOM     26  C   UNL     1       4.304  16.666  18.331  0.00  0.00    +0.000 C 
ENDBRANCH  10  24
ENDBRANCH   1  13
BRANCH   4  27
ATOM     27  C   UNL     1       1.927   6.731  19.585  0.00  0.00    +0.000 C 
BRANCH  27  28
ATOM     28  C   UNL     1       3.050   5.689  19.303  0.00  0.00    +0.000 C 
ATOM     29  C   UNL     1       3.077   5.010  17.923  0.00  0.00    +0.000 C 
ATOM     30  C   UNL     1       1.914   4.085  17.615  0.00  0.00    +0.000 C 
ATOM     31  S   UNL     1       1.586   2.905  18.921  0.00  0.00    +0.000 S 
ATOM     32  O   UNL     1       0.141   2.619  18.885  0.00  0.00    +0.000 OA
ATOM     33  O   UNL     1       2.539   1.841  18.801  0.00  0.00    +0.000 OA
ATOM     34  C   UNL     1       1.915   3.735  20.472  0.00  0.00    +0.000 C 
ATOM     35  C   UNL     1       3.139   4.624  20.405  0.00  0.00    +0.000 C 
ENDBRANCH  27  28
ENDBRANCH   4  27
TORSDOF 4
ENDMDL
