MODEL 1
REMARK VINA RESULT:      -8.6      0.000      0.000
REMARK  Name = 
REMARK  4 active torsions:
REMARK  status: ('A' for Active; 'I' for Inactive)
REMARK    1  A    between atoms: C_2  and  C_5
REMARK    2  A    between atoms: N_11  and  C_12
REMARK    3  A    between atoms: C_12  and  C_13
REMARK    4  A    between atoms: C_14  and  N_15
REMARK                            x       y       z     vdW  Elec       q    Type
REMARK                         _______ _______ _______ _____ _____    ______ ____
ROOT
ATOM      1  C   UNL     1       6.702   6.635  17.477  0.00  0.00    +0.000 A 
ATOM      2  C   UNL     1       7.070   5.430  16.866  0.00  0.00    +0.000 A 
ATOM      3  C   UNL     1       6.154   4.383  16.767  0.00  0.00    +0.000 A 
ATOM      4  C   UNL     1       4.864   4.519  17.293  0.00  0.00    +0.000 A 
ATOM      5  C   UNL     1       4.457   5.732  17.881  0.00  0.00    +0.000 A 
ATOM      6  C   UNL     1       5.392   6.778  17.962  0.00  0.00    +0.000 A 
ATOM      7  N   UNL     1       3.197   5.861  18.509  0.00  0.00    +0.000 N 
ATOM      8  C   UNL     1       2.522   4.762  19.090  0.00  0.00    +0.000 A 
ATOM      9  C   UNL     1       1.711   4.955  20.220  0.00  0.00    +0.000 A 
ATOM     10  C   UNL     1       1.192   3.866  20.926  0.00  0.00    +0.000 A 
ATOM     11  C   UNL     1       1.454   2.568  20.496  0.00  0.00    +0.000 A 
ATOM     12  C   UNL     1       2.220   2.356  19.352  0.00  0.00    +0.000 A 
ATOM     13  C   UNL     1       2.763   3.442  18.657  0.00  0.00    +0.000 A 
ATOM     14  S   UNL     1       3.769   3.110  17.216  0.00  0.00    +0.000 S 
ENDROOT
BRANCH   1  16
ATOM     15  F   UNL     1       7.102   8.975  17.837  0.00  0.00    +0.000 F 
ATOM     16  C   UNL     1       7.689   7.758  17.664  0.00  0.00    +0.000 C 
ATOM     17  F   UNL     1       8.531   7.898  16.603  0.00  0.00    +0.000 F 
ATOM     18  F   UNL     1       8.487   7.573  18.752  0.00  0.00    +0.000 F 
ENDBRANCH   1  16
BRANCH   7  19
ATOM     19  C   UNL     1       2.349   6.974  18.049  0.00  0.00    +0.000 C 
BRANCH  19  20
ATOM     20  C   UNL     1       1.956   7.851  19.164  0.00  0.00    +0.000 C 
ATOM     21  C   UNL     1       1.629   8.572  20.060  0.00  0.00    +0.000 C 
BRANCH  21  22
ATOM     22  N   UNL     1       1.186   9.469  21.097  0.00  0.00    +0.000 N 
ATOM     23  C   UNL     1       0.820  10.850  20.824  0.00  0.00    +0.000 C 
ATOM     24  C   UNL     1      -0.466  11.169  21.607  0.00  0.00    +0.000 C 
ATOM     25  O   UNL     1      -0.318  10.883  23.013  0.00  0.00    +0.000 OA
ATOM     26  C   UNL     1       0.013   9.495  23.218  0.00  0.00    +0.000 C 
ATOM     27  C   UNL     1       1.316   9.111  22.500  0.00  0.00    +0.000 C 
ENDBRANCH  21  22
ENDBRANCH  19  20
ENDBRANCH   7  19
TORSDOF 4
ENDMDL
MODEL 2
REMARK VINA RESULT:      -8.0      5.305      8.595
REMARK  Name = 
REMARK  4 active torsions:
REMARK  status: ('A' for Active; 'I' for Inactive)
REMARK    1  A    between atoms: C_2  and  C_5
REMARK    2  A    between atoms: N_11  and  C_12
REMARK    3  A    between atoms: C_12  and  C_13
REMARK    4  A    between atoms: C_14  and  N_15
REMARK                            x       y       z     vdW  Elec       q    Type
REMARK                         _______ _______ _______ _____ _____    ______ ____
ROOT
ATOM      1  C   UNL     1      -2.808  10.645  16.733  0.00  0.00    +0.000 A 
ATOM      2  C   UNL     1      -3.646  11.545  17.400  0.00  0.00    +0.000 A 
ATOM      3  C   UNL     1      -3.280  12.054  18.647  0.00  0.00    +0.000 A 
ATOM      4  C   UNL     1      -2.081  11.657  19.249  0.00  0.00    +0.000 A 
ATOM      5  C   UNL     1      -1.204  10.780  18.584  0.00  0.00    +0.000 A 
ATOM      6  C   UNL     1      -1.586  10.286  17.325  0.00  0.00    +0.000 A 
ATOM      7  N   UNL     1      -0.038  10.285  19.213  0.00  0.00    +0.000 N 
ATOM      8  C   UNL     1       0.063  10.138  20.616  0.00  0.00    +0.000 A 
ATOM      9  C   UNL     1       0.836   9.099  21.159  0.00  0.00    +0.000 A 
ATOM     10  C   UNL     1       0.798   8.815  22.526  0.00  0.00    +0.000 A 
ATOM     11  C   UNL     1       0.008   9.584  23.377  0.00  0.00    +0.000 A 
ATOM     12  C   UNL     1      -0.732  10.647  22.865  0.00  0.00    +0.000 A 
ATOM     13  C   UNL     1      -0.717  10.920  21.492  0.00  0.00    +0.000 A 
ATOM     14  S   UNL     1      -1.715  12.274  20.885  0.00  0.00    +0.000 S 
ENDROOT
BRANCH   1  16
ATOM     15  F   UNL     1      -2.419  10.402  14.376  0.00  0.00    +0.000 F 
ATOM     16  C   UNL     1      -3.206  10.021  15.420  0.00  0.00    +0.000 C 
ATOM     17  F   UNL     1      -4.481  10.334  15.057  0.00  0.00    +0.000 F 
ATOM     18  F   UNL     1      -3.150   8.661  15.452  0.00  0.00    +0.000 F 
ENDBRANCH   1  16
BRANCH   7  19
ATOM     19  C   UNL     1       1.229  10.478  18.486  0.00  0.00    +0.000 C 
BRANCH  19  20
ATOM     20  C   UNL     1       1.901   9.196  18.220  0.00  0.00    +0.000 C 
ATOM     21  C   UNL     1       2.458   8.158  18.015  0.00  0.00    +0.000 C 
BRANCH  21  22
ATOM     22  N   UNL     1       3.164   6.917  17.827  0.00  0.00    +0.000 N 
ATOM     23  C   UNL     1       4.429   6.845  17.113  0.00  0.00    +0.000 C 
ATOM     24  C   UNL     1       5.373   5.919  17.901  0.00  0.00    +0.000 C 
ATOM     25  O   UNL     1       4.776   4.629  18.140  0.00  0.00    +0.000 OA
ATOM     26  C   UNL     1       3.545   4.766  18.878  0.00  0.00    +0.000 C 
ATOM     27  C   UNL     1       2.530   5.643  18.128  0.00  0.00    +0.000 C 
ENDBRANCH  21  22
ENDBRANCH  19  20
ENDBRANCH   7  19
TORSDOF 4
ENDMDL
MODEL 3
REMARK VINA RESULT:      -7.8      5.322      8.614
REMARK  Name = 
REMARK  4 active torsions:
REMARK  status: ('A' for Active; 'I' for Inactive)
REMARK    1  A    between atoms: C_2  and  C_5
REMARK    2  A    between atoms: N_11  and  C_12
REMARK    3  A    between atoms: C_12  and  C_13
REMARK    4  A    between atoms: C_14  and  N_15
REMARK                            x       y       z     vdW  Elec       q    Type
REMARK                         _______ _______ _______ _____ _____    ______ ____
ROOT
ATOM      1  C   UNL     1      -2.721  10.551  16.618  0.00  0.00    +0.000 A 
ATOM      2  C   UNL     1      -3.564  11.458  17.271  0.00  0.00    +0.000 A 
ATOM      3  C   UNL     1      -3.208  11.978  18.516  0.00  0.00    +0.000 A 
ATOM      4  C   UNL     1      -2.014  11.587  19.131  0.00  0.00    +0.000 A 
ATOM      5  C   UNL     1      -1.131  10.703  18.481  0.00  0.00    +0.000 A 
ATOM      6  C   UNL     1      -1.503  10.197  17.224  0.00  0.00    +0.000 A 
ATOM      7  N   UNL     1       0.029  10.214  19.124  0.00  0.00    +0.000 N 
ATOM      8  C   UNL     1       0.120  10.080  20.529  0.00  0.00    +0.000 A 
ATOM      9  C   UNL     1       0.888   9.046  21.087  0.00  0.00    +0.000 A 
ATOM     10  C   UNL     1       0.840   8.774  22.456  0.00  0.00    +0.000 A 
ATOM     11  C   UNL     1       0.043   9.551  23.294  0.00  0.00    +0.000 A 
ATOM     12  C   UNL     1      -0.693  10.610  22.767  0.00  0.00    +0.000 A 
ATOM     13  C   UNL     1      -0.667  10.870  21.391  0.00  0.00    +0.000 A 
ATOM     14  S   UNL     1      -1.660  12.218  20.764  0.00  0.00    +0.000 S 
ENDROOT
BRANCH   1  16
ATOM     15  F   UNL     1      -2.692   8.625  15.185  0.00  0.00    +0.000 F 
ATOM     16  C   UNL     1      -3.109   9.916  15.308  0.00  0.00    +0.000 C 
ATOM     17  F   UNL     1      -2.598  10.576  14.233  0.00  0.00    +0.000 F 
ATOM     18  F   UNL     1      -4.458   9.890  15.123  0.00  0.00    +0.000 F 
ENDBRANCH   1  16
BRANCH   7  19
ATOM     19  C   UNL     1       1.302  10.400  18.405  0.00  0.00    +0.000 C 
BRANCH  19  20
ATOM     20  C   UNL     1       2.005   9.122  18.210  0.00  0.00    +0.000 C 
ATOM     21  C   UNL     1       2.580   8.084  18.066  0.00  0.00    +0.000 C 
BRANCH  21  22
ATOM     22  N   UNL     1       3.271   6.824  17.963  0.00  0.00    +0.000 N 
ATOM     23  C   UNL     1       2.766   5.609  18.583  0.00  0.00    +0.000 C 
ATOM     24  C   UNL     1       2.926   4.455  17.577  0.00  0.00    +0.000 C 
ATOM     25  O   UNL     1       4.286   4.338  17.113  0.00  0.00    +0.000 OA
ATOM     26  C   UNL     1       4.715   5.561  16.482  0.00  0.00    +0.000 C 
ATOM     27  C   UNL     1       4.628   6.756  17.443  0.00  0.00    +0.000 C 
ENDBRANCH  21  22
ENDBRANCH  19  20
ENDBRANCH   7  19
TORSDOF 4
ENDMDL
MODEL 4
REMARK VINA RESULT:      -7.8      0.759      1.398
REMARK  Name = 
REMARK  4 active torsions:
REMARK  status: ('A' for Active; 'I' for Inactive)
REMARK    1  A    between atoms: C_2  and  C_5
REMARK    2  A    between atoms: N_11  and  C_12
REMARK    3  A    between atoms: C_12  and  C_13
REMARK    4  A    between atoms: C_14  and  N_15
REMARK                            x       y       z     vdW  Elec       q    Type
REMARK                         _______ _______ _______ _____ _____    ______ ____
ROOT
ATOM      1  C   UNL     1       6.932   6.765  17.590  0.00  0.00    +0.000 A 
ATOM      2  C   UNL     1       7.417   5.500  17.239  0.00  0.00    +0.000 A 
ATOM      3  C   UNL     1       6.552   4.407  17.182  0.00  0.00    +0.000 A 
ATOM      4  C   UNL     1       5.196   4.560  17.490  0.00  0.00    +0.000 A 
ATOM      5  C   UNL     1       4.676   5.828  17.812  0.00  0.00    +0.000 A 
ATOM      6  C   UNL     1       5.561   6.919  17.855  0.00  0.00    +0.000 A 
ATOM      7  N   UNL     1       3.334   5.992  18.227  0.00  0.00    +0.000 N 
ATOM      8  C   UNL     1       2.610   4.965  18.877  0.00  0.00    +0.000 A 
ATOM      9  C   UNL     1       1.636   5.292  19.834  0.00  0.00    +0.000 A 
ATOM     10  C   UNL     1       1.047   4.303  20.626  0.00  0.00    +0.000 A 
ATOM     11  C   UNL     1       1.402   2.967  20.452  0.00  0.00    +0.000 A 
ATOM     12  C   UNL     1       2.333   2.617  19.477  0.00  0.00    +0.000 A 
ATOM     13  C   UNL     1       2.945   3.608  18.699  0.00  0.00    +0.000 A 
ATOM     14  S   UNL     1       4.161   3.105  17.488  0.00  0.00    +0.000 S 
ENDROOT
BRANCH   1  16
ATOM     15  F   UNL     1       8.685   8.123  16.667  0.00  0.00    +0.000 F 
ATOM     16  C   UNL     1       7.852   7.951  17.731  0.00  0.00    +0.000 C 
ATOM     17  F   UNL     1       8.659   7.861  18.824  0.00  0.00    +0.000 F 
ATOM     18  F   UNL     1       7.172   9.123  17.864  0.00  0.00    +0.000 F 
ENDBRANCH   1  16
BRANCH   7  19
ATOM     19  C   UNL     1       2.535   6.978  17.479  0.00  0.00    +0.000 C 
BRANCH  19  20
ATOM     20  C   UNL     1       1.960   7.997  18.371  0.00  0.00    +0.000 C 
ATOM     21  C   UNL     1       1.479   8.822  19.091  0.00  0.00    +0.000 C 
BRANCH  21  22
ATOM     22  N   UNL     1       0.837   9.785  19.948  0.00  0.00    +0.000 N 
ATOM     23  C   UNL     1      -0.059   9.390  21.023  0.00  0.00    +0.000 C 
ATOM     24  C   UNL     1       0.274  10.240  22.263  0.00  0.00    +0.000 C 
ATOM     25  O   UNL     1       0.228  11.651  21.968  0.00  0.00    +0.000 OA
ATOM     26  C   UNL     1       1.160  11.982  20.919  0.00  0.00    +0.000 C 
ATOM     27  C   UNL     1       0.861  11.203  19.629  0.00  0.00    +0.000 C 
ENDBRANCH  21  22
ENDBRANCH  19  20
ENDBRANCH   7  19
TORSDOF 4
ENDMDL
MODEL 5
REMARK VINA RESULT:      -7.6      6.724      8.775
REMARK  Name = 
REMARK  4 active torsions:
REMARK  status: ('A' for Active; 'I' for Inactive)
REMARK    1  A    between atoms: C_2  and  C_5
REMARK    2  A    between atoms: N_11  and  C_12
REMARK    3  A    between atoms: C_12  and  C_13
REMARK    4  A    between atoms: C_14  and  N_15
REMARK                            x       y       z     vdW  Elec       q    Type
REMARK                         _______ _______ _______ _____ _____    ______ ____
ROOT
ATOM      1  C   UNL     1      -2.820  10.738  16.822  0.00  0.00    +0.000 A 
ATOM      2  C   UNL     1      -3.740  11.516  17.535  0.00  0.00    +0.000 A 
ATOM      3  C   UNL     1      -3.424  11.985  18.810  0.00  0.00    +0.000 A 
ATOM      4  C   UNL     1      -2.193  11.669  19.395  0.00  0.00    +0.000 A 
ATOM      5  C   UNL     1      -1.236  10.918  18.686  0.00  0.00    +0.000 A 
ATOM      6  C   UNL     1      -1.570  10.463  17.399  0.00  0.00    +0.000 A 
ATOM      7  N   UNL     1      -0.029  10.500  19.292  0.00  0.00    +0.000 N 
ATOM      8  C   UNL     1       0.086  10.284  20.685  0.00  0.00    +0.000 A 
ATOM      9  C   UNL     1       0.954   9.293  21.172  0.00  0.00    +0.000 A 
ATOM     10  C   UNL     1       0.944   8.929  22.520  0.00  0.00    +0.000 A 
ATOM     11  C   UNL     1       0.084   9.570  23.410  0.00  0.00    +0.000 A 
ATOM     12  C   UNL     1      -0.753  10.586  22.955  0.00  0.00    +0.000 A 
ATOM     13  C   UNL     1      -0.765  10.937  21.600  0.00  0.00    +0.000 A 
ATOM     14  S   UNL     1      -1.886  12.223  21.066  0.00  0.00    +0.000 S 
ENDROOT
BRANCH   1  16
ATOM     15  F   UNL     1      -2.636  10.859  14.431  0.00  0.00    +0.000 F 
ATOM     16  C   UNL     1      -3.159  10.155  15.473  0.00  0.00    +0.000 C 
ATOM     17  F   UNL     1      -4.500  10.099  15.249  0.00  0.00    +0.000 F 
ATOM     18  F   UNL     1      -2.702   8.881  15.328  0.00  0.00    +0.000 F 
ENDBRANCH   1  16
BRANCH   7  19
ATOM     19  C   UNL     1       1.214  10.854  18.584  0.00  0.00    +0.000 C 
BRANCH  19  20
ATOM     20  C   UNL     1       1.466  12.303  18.625  0.00  0.00    +0.000 C 
ATOM     21  C   UNL     1       1.687  13.478  18.657  0.00  0.00    +0.000 C 
BRANCH  21  22
ATOM     22  N   UNL     1       2.018  14.879  18.674  0.00  0.00    +0.000 N 
ATOM     23  C   UNL     1       3.325  15.373  18.272  0.00  0.00    +0.000 C 
ATOM     24  C   UNL     1       3.118  16.622  17.397  0.00  0.00    +0.000 C 
ATOM     25  O   UNL     1       2.314  17.614  18.066  0.00  0.00    +0.000 OA
ATOM     26  C   UNL     1       1.022  17.073  18.409  0.00  0.00    +0.000 C 
ATOM     27  C   UNL     1       1.146  15.845  19.324  0.00  0.00    +0.000 C 
ENDBRANCH  21  22
ENDBRANCH  19  20
ENDBRANCH   7  19
TORSDOF 4
ENDMDL
MODEL 6
REMARK VINA RESULT:      -7.6      1.008      1.388
REMARK  Name = 
REMARK  4 active torsions:
REMARK  status: ('A' for Active; 'I' for Inactive)
REMARK    1  A    between atoms: C_2  and  C_5
REMARK    2  A    between atoms: N_11  and  C_12
REMARK    3  A    between atoms: C_12  and  C_13
REMARK    4  A    between atoms: C_14  and  N_15
REMARK                            x       y       z     vdW  Elec       q    Type
REMARK                         _______ _______ _______ _____ _____    ______ ____
ROOT
ATOM      1  C   UNL     1       6.913   6.724  17.697  0.00  0.00    +0.000 A 
ATOM      2  C   UNL     1       7.458   5.460  17.444  0.00  0.00    +0.000 A 
ATOM      3  C   UNL     1       6.643   4.328  17.451  0.00  0.00    +0.000 A 
ATOM      4  C   UNL     1       5.275   4.443  17.727  0.00  0.00    +0.000 A 
ATOM      5  C   UNL     1       4.695   5.707  17.950  0.00  0.00    +0.000 A 
ATOM      6  C   UNL     1       5.532   6.835  17.929  0.00  0.00    +0.000 A 
ATOM      7  N   UNL     1       3.340   5.839  18.331  0.00  0.00    +0.000 N 
ATOM      8  C   UNL     1       2.648   4.830  19.040  0.00  0.00    +0.000 A 
ATOM      9  C   UNL     1       1.644   5.180  19.957  0.00  0.00    +0.000 A 
ATOM     10  C   UNL     1       1.083   4.224  20.807  0.00  0.00    +0.000 A 
ATOM     11  C   UNL     1       1.498   2.896  20.734  0.00  0.00    +0.000 A 
ATOM     12  C   UNL     1       2.462   2.520  19.801  0.00  0.00    +0.000 A 
ATOM     13  C   UNL     1       3.045   3.480  18.965  0.00  0.00    +0.000 A 
ATOM     14  S   UNL     1       4.303   2.947  17.811  0.00  0.00    +0.000 S 
ENDROOT
BRANCH   1  16
ATOM     15  F   UNL     1       8.610   8.099  16.698  0.00  0.00    +0.000 F 
ATOM     16  C   UNL     1       7.779   7.956  17.768  0.00  0.00    +0.000 C 
ATOM     17  F   UNL     1       8.582   7.969  18.867  0.00  0.00    +0.000 F 
ATOM     18  F   UNL     1       7.047   9.103  17.826  0.00  0.00    +0.000 F 
ENDBRANCH   1  16
BRANCH   7  19
ATOM     19  C   UNL     1       2.514   6.735  17.502  0.00  0.00    +0.000 C 
BRANCH  19  20
ATOM     20  C   UNL     1       2.073   7.918  18.258  0.00  0.00    +0.000 C 
ATOM     21  C   UNL     1       1.705   8.882  18.861  0.00  0.00    +0.000 C 
BRANCH  21  22
ATOM     22  N   UNL     1       1.201  10.043  19.550  0.00  0.00    +0.000 N 
ATOM     23  C   UNL     1       1.350  11.387  19.015  0.00  0.00    +0.000 C 
ATOM     24  C   UNL     1       0.017  12.131  19.208  0.00  0.00    +0.000 C 
ATOM     25  O   UNL     1      -0.412  12.107  20.584  0.00  0.00    +0.000 OA
ATOM     26  C   UNL     1      -0.572  10.750  21.043  0.00  0.00    +0.000 C 
ATOM     27  C   UNL     1       0.737   9.954  20.925  0.00  0.00    +0.000 C 
ENDBRANCH  21  22
ENDBRANCH  19  20
ENDBRANCH   7  19
TORSDOF 4
ENDMDL
MODEL 7
REMARK VINA RESULT:      -7.4      6.678      8.696
REMARK  Name = 
REMARK  4 active torsions:
REMARK  status: ('A' for Active; 'I' for Inactive)
REMARK    1  A    between atoms: C_2  and  C_5
REMARK    2  A    between atoms: N_11  and  C_12
REMARK    3  A    between atoms: C_12  and  C_13
REMARK    4  A    between atoms: C_14  and  N_15
REMARK                            x       y       z     vdW  Elec       q    Type
REMARK                         _______ _______ _______ _____ _____    ______ ____
ROOT
ATOM      1  C   UNL     1      -2.793  10.748  16.849  0.00  0.00    +0.000 A 
ATOM      2  C   UNL     1      -3.681  11.569  17.553  0.00  0.00    +0.000 A 
ATOM      3  C   UNL     1      -3.344  12.047  18.820  0.00  0.00    +0.000 A 
ATOM      4  C   UNL     1      -2.121  11.699  19.405  0.00  0.00    +0.000 A 
ATOM      5  C   UNL     1      -1.194  10.904  18.704  0.00  0.00    +0.000 A 
ATOM      6  C   UNL     1      -1.549  10.439  17.426  0.00  0.00    +0.000 A 
ATOM      7  N   UNL     1       0.001  10.455  19.312  0.00  0.00    +0.000 N 
ATOM      8  C   UNL     1       0.115  10.257  20.708  0.00  0.00    +0.000 A 
ATOM      9  C   UNL     1       0.951   9.245  21.207  0.00  0.00    +0.000 A 
ATOM     10  C   UNL     1       0.934   8.903  22.561  0.00  0.00    +0.000 A 
ATOM     11  C   UNL     1       0.101   9.588  23.443  0.00  0.00    +0.000 A 
ATOM     12  C   UNL     1      -0.703  10.625  22.976  0.00  0.00    +0.000 A 
ATOM     13  C   UNL     1      -0.708  10.954  21.615  0.00  0.00    +0.000 A 
ATOM     14  S   UNL     1      -1.787  12.269  21.064  0.00  0.00    +0.000 S 
ENDROOT
BRANCH   1  16
ATOM     15  F   UNL     1      -4.494  10.179  15.254  0.00  0.00    +0.000 F 
ATOM     16  C   UNL     1      -3.157  10.156  15.512  0.00  0.00    +0.000 C 
ATOM     17  F   UNL     1      -2.778   8.853  15.395  0.00  0.00    +0.000 F 
ATOM     18  F   UNL     1      -2.566  10.811  14.475  0.00  0.00    +0.000 F 
ENDBRANCH   1  16
BRANCH   7  19
ATOM     19  C   UNL     1       1.252  10.753  18.593  0.00  0.00    +0.000 C 
BRANCH  19  20
ATOM     20  C   UNL     1       1.537  12.197  18.580  0.00  0.00    +0.000 C 
ATOM     21  C   UNL     1       1.753  13.373  18.567  0.00  0.00    +0.000 C 
BRANCH  21  22
ATOM     22  N   UNL     1       1.945  14.801  18.558  0.00  0.00    +0.000 N 
ATOM     23  C   UNL     1       0.903  15.726  18.975  0.00  0.00    +0.000 C 
ATOM     24  C   UNL     1       1.550  16.813  19.852  0.00  0.00    +0.000 C 
ATOM     25  O   UNL     1       2.650  17.456  19.179  0.00  0.00    +0.000 OA
ATOM     26  C   UNL     1       3.661  16.492  18.821  0.00  0.00    +0.000 C 
ATOM     27  C   UNL     1       3.099  15.396  17.903  0.00  0.00    +0.000 C 
ENDBRANCH  21  22
ENDBRANCH  19  20
ENDBRANCH   7  19
TORSDOF 4
ENDMDL
MODEL 8
REMARK VINA RESULT:      -7.2      6.602      8.531
REMARK  Name = 
REMARK  4 active torsions:
REMARK  status: ('A' for Active; 'I' for Inactive)
REMARK    1  A    between atoms: C_2  and  C_5
REMARK    2  A    between atoms: N_11  and  C_12
REMARK    3  A    between atoms: C_12  and  C_13
REMARK    4  A    between atoms: C_14  and  N_15
REMARK                            x       y       z     vdW  Elec       q    Type
REMARK                         _______ _______ _______ _____ _____    ______ ____
ROOT
ATOM      1  C   UNL     1      -2.773  10.636  16.725  0.00  0.00    +0.000 A 
ATOM      2  C   UNL     1      -3.640  11.498  17.406  0.00  0.00    +0.000 A 
ATOM      3  C   UNL     1      -3.292  12.001  18.660  0.00  0.00    +0.000 A 
ATOM      4  C   UNL     1      -2.080  11.635  19.256  0.00  0.00    +0.000 A 
ATOM      5  C   UNL     1      -1.174  10.797  18.579  0.00  0.00    +0.000 A 
ATOM      6  C   UNL     1      -1.539  10.309  17.313  0.00  0.00    +0.000 A 
ATOM      7  N   UNL     1       0.008  10.332  19.201  0.00  0.00    +0.000 N 
ATOM      8  C   UNL     1       0.115  10.168  20.602  0.00  0.00    +0.000 A 
ATOM      9  C   UNL     1       0.922   9.148  21.129  0.00  0.00    +0.000 A 
ATOM     10  C   UNL     1       0.893   8.842  22.492  0.00  0.00    +0.000 A 
ATOM     11  C   UNL     1       0.079   9.572  23.354  0.00  0.00    +0.000 A 
ATOM     12  C   UNL     1      -0.697  10.618  22.858  0.00  0.00    +0.000 A 
ATOM     13  C   UNL     1      -0.691  10.911  21.489  0.00  0.00    +0.000 A 
ATOM     14  S   UNL     1      -1.733  12.240  20.901  0.00  0.00    +0.000 S 
ENDROOT
BRANCH   1  16
ATOM     15  F   UNL     1      -2.510  10.577  14.339  0.00  0.00    +0.000 F 
ATOM     16  C   UNL     1      -3.151  10.019  15.403  0.00  0.00    +0.000 C 
ATOM     17  F   UNL     1      -4.481  10.129  15.135  0.00  0.00    +0.000 F 
ATOM     18  F   UNL     1      -2.868   8.688  15.351  0.00  0.00    +0.000 F 
ENDBRANCH   1  16
BRANCH   7  19
ATOM     19  C   UNL     1       1.267  10.578  18.477  0.00  0.00    +0.000 C 
BRANCH  19  20
ATOM     20  C   UNL     1       1.806  11.916  18.769  0.00  0.00    +0.000 C 
ATOM     21  C   UNL     1       2.253  13.002  18.993  0.00  0.00    +0.000 C 
BRANCH  21  22
ATOM     22  N   UNL     1       2.818  14.311  19.197  0.00  0.00    +0.000 N 
ATOM     23  C   UNL     1       2.769  15.345  18.175  0.00  0.00    +0.000 C 
ATOM     24  C   UNL     1       2.393  16.674  18.854  0.00  0.00    +0.000 C 
ATOM     25  O   UNL     1       3.286  16.987  19.943  0.00  0.00    +0.000 OA
ATOM     26  C   UNL     1       3.264  15.941  20.935  0.00  0.00    +0.000 C 
ATOM     27  C   UNL     1       3.675  14.586  20.339  0.00  0.00    +0.000 C 
ENDBRANCH  21  22
ENDBRANCH  19  20
ENDBRANCH   7  19
TORSDOF 4
ENDMDL
MODEL 9
REMARK VINA RESULT:      -7.0      4.516      7.835
REMARK  Name = 
REMARK  4 active torsions:
REMARK  status: ('A' for Active; 'I' for Inactive)
REMARK    1  A    between atoms: C_2  and  C_5
REMARK    2  A    between atoms: N_11  and  C_12
REMARK    3  A    between atoms: C_12  and  C_13
REMARK    4  A    between atoms: C_14  and  N_15
REMARK                            x       y       z     vdW  Elec       q    Type
REMARK                         _______ _______ _______ _____ _____    ______ ____
ROOT
ATOM      1  C   UNL     1       1.735   8.208  19.462  0.00  0.00    +0.000 A 
ATOM      2  C   UNL     1       1.459   7.864  20.791  0.00  0.00    +0.000 A 
ATOM      3  C   UNL     1       0.696   8.712  21.593  0.00  0.00    +0.000 A 
ATOM      4  C   UNL     1       0.212   9.922  21.083  0.00  0.00    +0.000 A 
ATOM      5  C   UNL     1       0.445  10.276  19.741  0.00  0.00    +0.000 A 
ATOM      6  C   UNL     1       1.208   9.404  18.946  0.00  0.00    +0.000 A 
ATOM      7  N   UNL     1       0.056  11.536  19.232  0.00  0.00    +0.000 N 
ATOM      8  C   UNL     1      -0.050  12.686  20.049  0.00  0.00    +0.000 A 
ATOM      9  C   UNL     1       0.237  13.954  19.518  0.00  0.00    +0.000 A 
ATOM     10  C   UNL     1       0.329  15.075  20.346  0.00  0.00    +0.000 A 
ATOM     11  C   UNL     1       0.106  14.951  21.715  0.00  0.00    +0.000 A 
ATOM     12  C   UNL     1      -0.223  13.711  22.256  0.00  0.00    +0.000 A 
ATOM     13  C   UNL     1      -0.290  12.579  21.434  0.00  0.00    +0.000 A 
ATOM     14  S   UNL     1      -0.681  11.005  22.187  0.00  0.00    +0.000 S 
ENDROOT
BRANCH   1  16
ATOM     15  F   UNL     1       3.490   6.578  19.297  0.00  0.00    +0.000 F 
ATOM     16  C   UNL     1       2.617   7.350  18.592  0.00  0.00    +0.000 C 
ATOM     17  F   UNL     1       3.377   8.082  17.733  0.00  0.00    +0.000 F 
ATOM     18  F   UNL     1       1.901   6.488  17.817  0.00  0.00    +0.000 F 
ENDBRANCH   1  16
BRANCH   7  19
ATOM     19  C   UNL     1      -0.782  11.521  18.020  0.00  0.00    +0.000 C 
BRANCH  19  20
ATOM     20  C   UNL     1      -2.212  11.639  18.350  0.00  0.00    +0.000 C 
ATOM     21  C   UNL     1      -3.376  11.721  18.609  0.00  0.00    +0.000 C 
BRANCH  21  22
ATOM     22  N   UNL     1      -4.787  11.756  18.897  0.00  0.00    +0.000 N 
ATOM     23  C   UNL     1      -5.764  11.057  18.076  0.00  0.00    +0.000 C 
ATOM     24  C   UNL     1      -6.771  10.366  19.012  0.00  0.00    +0.000 C 
ATOM     25  O   UNL     1      -7.364  11.299  19.939  0.00  0.00    +0.000 OA
ATOM     26  C   UNL     1      -6.349  11.932  20.743  0.00  0.00    +0.000 C 
ATOM     27  C   UNL     1      -5.328  12.685  19.876  0.00  0.00    +0.000 C 
ENDBRANCH  21  22
ENDBRANCH  19  20
ENDBRANCH   7  19
TORSDOF 4
ENDMDL
