MODEL 1
REMARK VINA RESULT:      -6.9      0.000      0.000
REMARK  Name = 
REMARK  6 active torsions:
REMARK  status: ('A' for Active; 'I' for Inactive)
REMARK    1  A    between atoms: C_1  and  C_2
REMARK    2  A    between atoms: C_2  and  N_20
REMARK    3  A    between atoms: C_3  and  C_4
REMARK    4  A    between atoms: C_3  and  P_6
REMARK    5  A    between atoms: P_6  and  C_8
REMARK    6  A    between atoms: P_6  and  C_14
REMARK                            x       y       z     vdW  Elec       q    Type
REMARK                         _______ _______ _______ _____ _____    ______ ____
ROOT
ATOM      1  P   UNL     1       5.109   4.557  15.904  0.00  0.00    +0.000 P 
ATOM      2  O   UNL     1       4.236   5.579  15.125  0.00  0.00    +0.000 OA
ENDROOT
BRANCH   1   3
ATOM      3  C   UNL     1       6.390   5.469  17.029  0.00  0.00    +0.000 A 
ATOM      4  C   UNL     1       6.642   6.842  16.865  0.00  0.00    +0.000 A 
ATOM      5  C   UNL     1       7.550   7.490  17.704  0.00  0.00    +0.000 A 
ATOM      6  C   UNL     1       8.166   6.792  18.743  0.00  0.00    +0.000 A 
ATOM      7  C   UNL     1       7.927   5.428  18.908  0.00  0.00    +0.000 A 
ATOM      8  C   UNL     1       7.081   4.754  18.027  0.00  0.00    +0.000 A 
ENDBRANCH   1   3
BRANCH   1   9
ATOM      9  C   UNL     1       6.180   4.469  14.422  0.00  0.00    +0.000 A 
ATOM     10  C   UNL     1       7.332   5.240  14.180  0.00  0.00    +0.000 A 
ATOM     11  C   UNL     1       8.021   5.193  12.968  0.00  0.00    +0.000 A 
ATOM     12  C   UNL     1       7.588   4.348  11.955  0.00  0.00    +0.000 A 
ATOM     13  C   UNL     1       6.478   3.536  12.172  0.00  0.00    +0.000 A 
ATOM     14  C   UNL     1       5.781   3.603  13.392  0.00  0.00    +0.000 A 
ENDBRANCH   1   9
BRANCH   1  17
ATOM     15  C   UNL     1       4.000   2.152  17.686  0.00  0.00    +0.000 C 
ATOM     16  C   UNL     1       3.603   3.558  18.085  0.00  0.00    +0.000 C 
ATOM     17  C   UNL     1       4.038   4.645  17.386  0.00  0.00    +0.000 C 
BRANCH  16  18
ATOM     18  N   UNL     1       2.823   3.622  19.259  0.00  0.00    +0.000 N 
ATOM     19  C   UNL     1       3.323   3.370  20.624  0.00  0.00    +0.000 C 
ATOM     20  C   UNL     1       2.140   2.729  21.333  0.00  0.00    +0.000 C 
ATOM     21  C   UNL     1       0.962   3.487  20.751  0.00  0.00    +0.000 C 
ATOM     22  C   UNL     1       1.353   3.691  19.286  0.00  0.00    +0.000 C 
ENDBRANCH  16  18
BRANCH  17  23
ATOM     23  C   UNL     1       3.617   5.996  17.939  0.00  0.00    +0.000 C 
ATOM     24  N   UNL     1       3.268   7.118  18.397  0.00  0.00    +0.000 NA
ENDBRANCH  17  23
ENDBRANCH   1  17
TORSDOF 5
ENDMDL
MODEL 2
REMARK VINA RESULT:      -6.8      0.158      1.001
REMARK  Name = 
REMARK  6 active torsions:
REMARK  status: ('A' for Active; 'I' for Inactive)
REMARK    1  A    between atoms: C_1  and  C_2
REMARK    2  A    between atoms: C_2  and  N_20
REMARK    3  A    between atoms: C_3  and  C_4
REMARK    4  A    between atoms: C_3  and  P_6
REMARK    5  A    between atoms: P_6  and  C_8
REMARK    6  A    between atoms: P_6  and  C_14
REMARK                            x       y       z     vdW  Elec       q    Type
REMARK                         _______ _______ _______ _____ _____    ______ ____
ROOT
ATOM      1  P   UNL     1       5.082   4.498  16.005  0.00  0.00    +0.000 P 
ATOM      2  O   UNL     1       4.169   5.478  15.218  0.00  0.00    +0.000 OA
ENDROOT
BRANCH   1   3
ATOM      3  C   UNL     1       6.321   5.469  17.128  0.00  0.00    +0.000 A 
ATOM      4  C   UNL     1       7.032   4.814  18.148  0.00  0.00    +0.000 A 
ATOM      5  C   UNL     1       7.942   5.525  18.931  0.00  0.00    +0.000 A 
ATOM      6  C   UNL     1       8.191   6.872  18.668  0.00  0.00    +0.000 A 
ATOM      7  C   UNL     1       7.485   7.531  17.662  0.00  0.00    +0.000 A 
ATOM      8  C   UNL     1       6.517   6.849  16.925  0.00  0.00    +0.000 A 
ENDBRANCH   1   3
BRANCH   1   9
ATOM      9  C   UNL     1       6.158   4.446  14.526  0.00  0.00    +0.000 A 
ATOM     10  C   UNL     1       7.319   5.213  14.312  0.00  0.00    +0.000 A 
ATOM     11  C   UNL     1       8.012   5.197  13.102  0.00  0.00    +0.000 A 
ATOM     12  C   UNL     1       7.577   4.388  12.062  0.00  0.00    +0.000 A 
ATOM     13  C   UNL     1       6.458   3.579  12.249  0.00  0.00    +0.000 A 
ATOM     14  C   UNL     1       5.756   3.614  13.468  0.00  0.00    +0.000 A 
ENDBRANCH   1   9
BRANCH   1  17
ATOM     15  C   UNL     1       4.001   2.053  17.750  0.00  0.00    +0.000 C 
ATOM     16  C   UNL     1       3.583   3.447  18.167  0.00  0.00    +0.000 C 
ATOM     17  C   UNL     1       4.005   4.550  17.484  0.00  0.00    +0.000 C 
BRANCH  16  18
ATOM     18  N   UNL     1       2.798   3.484  19.338  0.00  0.00    +0.000 N 
ATOM     19  C   UNL     1       3.323   3.394  20.715  0.00  0.00    +0.000 C 
ATOM     20  C   UNL     1       2.235   2.647  21.471  0.00  0.00    +0.000 C 
ATOM     21  C   UNL     1       0.968   3.201  20.848  0.00  0.00    +0.000 C 
ATOM     22  C   UNL     1       1.332   3.357  19.370  0.00  0.00    +0.000 C 
ENDBRANCH  16  18
BRANCH  17  23
ATOM     23  C   UNL     1       3.562   5.887  18.054  0.00  0.00    +0.000 C 
ATOM     24  N   UNL     1       3.196   6.997  18.528  0.00  0.00    +0.000 NA
ENDBRANCH  17  23
ENDBRANCH   1  17
TORSDOF 5
ENDMDL
MODEL 3
REMARK VINA RESULT:      -6.0      2.866      4.936
REMARK  Name = 
REMARK  6 active torsions:
REMARK  status: ('A' for Active; 'I' for Inactive)
REMARK    1  A    between atoms: C_1  and  C_2
REMARK    2  A    between atoms: C_2  and  N_20
REMARK    3  A    between atoms: C_3  and  C_4
REMARK    4  A    between atoms: C_3  and  P_6
REMARK    5  A    between atoms: P_6  and  C_8
REMARK    6  A    between atoms: P_6  and  C_14
REMARK                            x       y       z     vdW  Elec       q    Type
REMARK                         _______ _______ _______ _____ _____    ______ ____
ROOT
ATOM      1  P   UNL     1       4.046   5.947  17.830  0.00  0.00    +0.000 P 
ATOM      2  O   UNL     1       5.253   6.052  18.803  0.00  0.00    +0.000 OA
ENDROOT
BRANCH   1   3
ATOM      3  C   UNL     1       3.084   4.293  18.112  0.00  0.00    +0.000 A 
ATOM      4  C   UNL     1       3.744   3.149  18.592  0.00  0.00    +0.000 A 
ATOM      5  C   UNL     1       3.028   1.972  18.815  0.00  0.00    +0.000 A 
ATOM      6  C   UNL     1       1.648   1.943  18.616  0.00  0.00    +0.000 A 
ATOM      7  C   UNL     1       0.986   3.071  18.131  0.00  0.00    +0.000 A 
ATOM      8  C   UNL     1       1.705   4.229  17.832  0.00  0.00    +0.000 A 
ENDBRANCH   1   3
BRANCH   1   9
ATOM      9  C   UNL     1       5.213   5.284  16.586  0.00  0.00    +0.000 A 
ATOM     10  C   UNL     1       6.613   5.434  16.593  0.00  0.00    +0.000 A 
ATOM     11  C   UNL     1       7.415   4.997  15.539  0.00  0.00    +0.000 A 
ATOM     12  C   UNL     1       6.842   4.371  14.441  0.00  0.00    +0.000 A 
ATOM     13  C   UNL     1       5.464   4.163  14.417  0.00  0.00    +0.000 A 
ATOM     14  C   UNL     1       4.661   4.621  15.478  0.00  0.00    +0.000 A 
ENDBRANCH   1   9
BRANCH   1  17
ATOM     15  C   UNL     1       2.557   8.771  17.837  0.00  0.00    +0.000 C 
ATOM     16  C   UNL     1       2.293   7.839  19.001  0.00  0.00    +0.000 C 
ATOM     17  C   UNL     1       2.879   6.609  19.075  0.00  0.00    +0.000 C 
BRANCH  16  18
ATOM     18  N   UNL     1       1.351   8.333  19.927  0.00  0.00    +0.000 N 
ATOM     19  C   UNL     1       0.185   9.172  19.588  0.00  0.00    +0.000 C 
ATOM     20  C   UNL     1       0.033  10.088  20.792  0.00  0.00    +0.000 C 
ATOM     21  C   UNL     1       0.385   9.169  21.946  0.00  0.00    +0.000 C 
ATOM     22  C   UNL     1       1.522   8.311  21.389  0.00  0.00    +0.000 C 
ENDBRANCH  16  18
BRANCH  17  23
ATOM     23  C   UNL     1       2.470   5.755  20.263  0.00  0.00    +0.000 C 
ATOM     24  N   UNL     1       2.130   5.047  21.249  0.00  0.00    +0.000 NA
ENDBRANCH  17  23
ENDBRANCH   1  17
TORSDOF 5
ENDMDL
MODEL 4
REMARK VINA RESULT:      -6.0      0.324      1.026
REMARK  Name = 
REMARK  6 active torsions:
REMARK  status: ('A' for Active; 'I' for Inactive)
REMARK    1  A    between atoms: C_1  and  C_2
REMARK    2  A    between atoms: C_2  and  N_20
REMARK    3  A    between atoms: C_3  and  C_4
REMARK    4  A    between atoms: C_3  and  P_6
REMARK    5  A    between atoms: P_6  and  C_8
REMARK    6  A    between atoms: P_6  and  C_14
REMARK                            x       y       z     vdW  Elec       q    Type
REMARK                         _______ _______ _______ _____ _____    ______ ____
ROOT
ATOM      1  P   UNL     1       4.945   4.429  16.056  0.00  0.00    +0.000 P 
ATOM      2  O   UNL     1       3.977   5.430  15.367  0.00  0.00    +0.000 OA
ENDROOT
BRANCH   1   3
ATOM      3  C   UNL     1       6.279   5.372  17.091  0.00  0.00    +0.000 A 
ATOM      4  C   UNL     1       6.502   6.746  16.896  0.00  0.00    +0.000 A 
ATOM      5  C   UNL     1       7.450   7.416  17.671  0.00  0.00    +0.000 A 
ATOM      6  C   UNL     1       8.138   6.738  18.677  0.00  0.00    +0.000 A 
ATOM      7  C   UNL     1       7.929   5.373  18.872  0.00  0.00    +0.000 A 
ATOM      8  C   UNL     1       7.040   4.678  18.051  0.00  0.00    +0.000 A 
ENDBRANCH   1   3
BRANCH   1   9
ATOM      9  C   UNL     1       5.895   4.402  14.492  0.00  0.00    +0.000 A 
ATOM     10  C   UNL     1       5.610   3.619  13.357  0.00  0.00    +0.000 A 
ATOM     11  C   UNL     1       6.459   3.571  12.251  0.00  0.00    +0.000 A 
ATOM     12  C   UNL     1       7.622   4.328  12.233  0.00  0.00    +0.000 A 
ATOM     13  C   UNL     1       7.917   5.150  13.319  0.00  0.00    +0.000 A 
ATOM     14  C   UNL     1       7.063   5.179  14.437  0.00  0.00    +0.000 A 
ENDBRANCH   1   9
BRANCH   1  17
ATOM     15  C   UNL     1       3.908   1.953  17.783  0.00  0.00    +0.000 C 
ATOM     16  C   UNL     1       3.583   3.342  18.289  0.00  0.00    +0.000 C 
ATOM     17  C   UNL     1       3.995   4.457  17.620  0.00  0.00    +0.000 C 
BRANCH  16  18
ATOM     18  N   UNL     1       2.899   3.357  19.522  0.00  0.00    +0.000 N 
ATOM     19  C   UNL     1       3.493   3.006  20.827  0.00  0.00    +0.000 C 
ATOM     20  C   UNL     1       2.345   2.358  21.587  0.00  0.00    +0.000 C 
ATOM     21  C   UNL     1       1.154   3.187  21.146  0.00  0.00    +0.000 C 
ATOM     22  C   UNL     1       1.438   3.469  19.669  0.00  0.00    +0.000 C 
ENDBRANCH  16  18
BRANCH  17  23
ATOM     23  C   UNL     1       3.656   5.784  18.279  0.00  0.00    +0.000 C 
ATOM     24  N   UNL     1       3.377   6.885  18.826  0.00  0.00    +0.000 NA
ENDBRANCH  17  23
ENDBRANCH   1  17
TORSDOF 5
ENDMDL
MODEL 5
REMARK VINA RESULT:      -5.9      3.015      7.378
REMARK  Name = 
REMARK  6 active torsions:
REMARK  status: ('A' for Active; 'I' for Inactive)
REMARK    1  A    between atoms: C_1  and  C_2
REMARK    2  A    between atoms: C_2  and  N_20
REMARK    3  A    between atoms: C_3  and  C_4
REMARK    4  A    between atoms: C_3  and  P_6
REMARK    5  A    between atoms: P_6  and  C_8
REMARK    6  A    between atoms: P_6  and  C_14
REMARK                            x       y       z     vdW  Elec       q    Type
REMARK                         _______ _______ _______ _____ _____    ______ ____
ROOT
ATOM      1  P   UNL     1       2.936   6.871  19.110  0.00  0.00    +0.000 P 
ATOM      2  O   UNL     1       2.280   7.378  17.796  0.00  0.00    +0.000 OA
ENDROOT
BRANCH   1   3
ATOM      3  C   UNL     1       2.141   5.199  19.670  0.00  0.00    +0.000 A 
ATOM      4  C   UNL     1       1.460   4.383  18.750  0.00  0.00    +0.000 A 
ATOM      5  C   UNL     1       0.915   3.167  19.166  0.00  0.00    +0.000 A 
ATOM      6  C   UNL     1       1.094   2.731  20.478  0.00  0.00    +0.000 A 
ATOM      7  C   UNL     1       1.763   3.538  21.399  0.00  0.00    +0.000 A 
ATOM      8  C   UNL     1       2.243   4.790  21.013  0.00  0.00    +0.000 A 
ENDBRANCH   1   3
BRANCH   1   9
ATOM      9  C   UNL     1       1.769   7.953  20.013  0.00  0.00    +0.000 A 
ATOM     10  C   UNL     1       1.269   7.740  21.311  0.00  0.00    +0.000 A 
ATOM     11  C   UNL     1       0.289   8.555  21.877  0.00  0.00    +0.000 A 
ATOM     12  C   UNL     1      -0.215   9.634  21.164  0.00  0.00    +0.000 A 
ATOM     13  C   UNL     1       0.287   9.906  19.893  0.00  0.00    +0.000 A 
ATOM     14  C   UNL     1       1.265   9.068  19.325  0.00  0.00    +0.000 A 
ENDBRANCH   1   9
BRANCH   1  17
ATOM     15  C   UNL     1       4.232   7.330  16.229  0.00  0.00    +0.000 C 
ATOM     16  C   UNL     1       4.602   6.061  16.967  0.00  0.00    +0.000 C 
ATOM     17  C   UNL     1       4.103   5.788  18.206  0.00  0.00    +0.000 C 
BRANCH  16  18
ATOM     18  N   UNL     1       5.543   5.258  16.289  0.00  0.00    +0.000 N 
ATOM     19  C   UNL     1       7.003   5.479  16.286  0.00  0.00    +0.000 C 
ATOM     20  C   UNL     1       7.437   5.024  14.901  0.00  0.00    +0.000 C 
ATOM     21  C   UNL     1       6.540   3.826  14.656  0.00  0.00    +0.000 C 
ATOM     22  C   UNL     1       5.206   4.242  15.279  0.00  0.00    +0.000 C 
ENDBRANCH  16  18
BRANCH  17  23
ATOM     23  C   UNL     1       4.613   4.512  18.856  0.00  0.00    +0.000 C 
ATOM     24  N   UNL     1       5.035   3.453  19.394  0.00  0.00    +0.000 NA
ENDBRANCH  17  23
ENDBRANCH   1  17
TORSDOF 5
ENDMDL
MODEL 6
REMARK VINA RESULT:      -5.8      2.971      7.248
REMARK  Name = 
REMARK  6 active torsions:
REMARK  status: ('A' for Active; 'I' for Inactive)
REMARK    1  A    between atoms: C_1  and  C_2
REMARK    2  A    between atoms: C_2  and  N_20
REMARK    3  A    between atoms: C_3  and  C_4
REMARK    4  A    between atoms: C_3  and  P_6
REMARK    5  A    between atoms: P_6  and  C_8
REMARK    6  A    between atoms: P_6  and  C_14
REMARK                            x       y       z     vdW  Elec       q    Type
REMARK                         _______ _______ _______ _____ _____    ______ ____
ROOT
ATOM      1  P   UNL     1       2.696   6.809  18.694  0.00  0.00    +0.000 P 
ATOM      2  O   UNL     1       1.557   7.085  17.674  0.00  0.00    +0.000 OA
ENDROOT
BRANCH   1   3
ATOM      3  C   UNL     1       2.332   5.202  19.707  0.00  0.00    +0.000 A 
ATOM      4  C   UNL     1       1.019   4.723  19.848  0.00  0.00    +0.000 A 
ATOM      5  C   UNL     1       0.777   3.547  20.559  0.00  0.00    +0.000 A 
ATOM      6  C   UNL     1       1.842   2.815  21.084  0.00  0.00    +0.000 A 
ATOM      7  C   UNL     1       3.148   3.287  20.956  0.00  0.00    +0.000 A 
ATOM      8  C   UNL     1       3.392   4.501  20.313  0.00  0.00    +0.000 A 
ENDBRANCH   1   3
BRANCH   1   9
ATOM      9  C   UNL     1       1.839   7.956  19.834  0.00  0.00    +0.000 A 
ATOM     10  C   UNL     1       1.616   7.753  21.209  0.00  0.00    +0.000 A 
ATOM     11  C   UNL     1       0.847   8.627  21.978  0.00  0.00    +0.000 A 
ATOM     12  C   UNL     1       0.286   9.756  21.396  0.00  0.00    +0.000 A 
ATOM     13  C   UNL     1       0.521  10.016  20.048  0.00  0.00    +0.000 A 
ATOM     14  C   UNL     1       1.285   9.120  19.277  0.00  0.00    +0.000 A 
ENDBRANCH   1   9
BRANCH   1  17
ATOM     15  C   UNL     1       5.491   7.221  17.208  0.00  0.00    +0.000 C 
ATOM     16  C   UNL     1       4.749   5.926  16.954  0.00  0.00    +0.000 C 
ATOM     17  C   UNL     1       3.553   5.662  17.554  0.00  0.00    +0.000 C 
BRANCH  16  18
ATOM     18  N   UNL     1       5.440   5.024  16.119  0.00  0.00    +0.000 N 
ATOM     19  C   UNL     1       6.795   4.497  16.375  0.00  0.00    +0.000 C 
ATOM     20  C   UNL     1       7.396   4.345  14.986  0.00  0.00    +0.000 C 
ATOM     21  C   UNL     1       6.207   3.879  14.167  0.00  0.00    +0.000 C 
ATOM     22  C   UNL     1       5.036   4.673  14.747  0.00  0.00    +0.000 C 
ENDBRANCH  16  18
BRANCH  17  23
ATOM     23  C   UNL     1       2.955   4.296  17.261  0.00  0.00    +0.000 C 
ATOM     24  N   UNL     1       2.461   3.162  17.017  0.00  0.00    +0.000 NA
ENDBRANCH  17  23
ENDBRANCH   1  17
TORSDOF 5
ENDMDL
MODEL 7
REMARK VINA RESULT:      -5.8      2.941      5.023
REMARK  Name = 
REMARK  6 active torsions:
REMARK  status: ('A' for Active; 'I' for Inactive)
REMARK    1  A    between atoms: C_1  and  C_2
REMARK    2  A    between atoms: C_2  and  N_20
REMARK    3  A    between atoms: C_3  and  C_4
REMARK    4  A    between atoms: C_3  and  P_6
REMARK    5  A    between atoms: P_6  and  C_8
REMARK    6  A    between atoms: P_6  and  C_14
REMARK                            x       y       z     vdW  Elec       q    Type
REMARK                         _______ _______ _______ _____ _____    ______ ____
ROOT
ATOM      1  P   UNL     1       3.904   6.055  17.848  0.00  0.00    +0.000 P 
ATOM      2  O   UNL     1       5.139   6.208  18.778  0.00  0.00    +0.000 OA
ENDROOT
BRANCH   1   3
ATOM      3  C   UNL     1       3.004   4.375  18.178  0.00  0.00    +0.000 A 
ATOM      4  C   UNL     1       1.622   4.245  17.959  0.00  0.00    +0.000 A 
ATOM      5  C   UNL     1       0.993   3.018  18.177  0.00  0.00    +0.000 A 
ATOM      6  C   UNL     1       1.743   1.905  18.557  0.00  0.00    +0.000 A 
ATOM      7  C   UNL     1       3.113   2.027  18.784  0.00  0.00    +0.000 A 
ATOM      8  C   UNL     1       3.737   3.267  18.644  0.00  0.00    +0.000 A 
ENDBRANCH   1   3
BRANCH   1   9
ATOM      9  C   UNL     1       5.049   5.415  16.572  0.00  0.00    +0.000 A 
ATOM     10  C   UNL     1       4.686   4.852  15.334  0.00  0.00    +0.000 A 
ATOM     11  C   UNL     1       5.621   4.278  14.472  0.00  0.00    +0.000 A 
ATOM     12  C   UNL     1       6.967   4.267  14.813  0.00  0.00    +0.000 A 
ATOM     13  C   UNL     1       7.372   4.854  16.010  0.00  0.00    +0.000 A 
ATOM     14  C   UNL     1       6.419   5.416  16.879  0.00  0.00    +0.000 A 
ENDBRANCH   1   9
BRANCH   1  17
ATOM     15  C   UNL     1       2.422   8.881  17.935  0.00  0.00    +0.000 C 
ATOM     16  C   UNL     1       2.174   7.927  19.084  0.00  0.00    +0.000 C 
ATOM     17  C   UNL     1       2.759   6.695  19.125  0.00  0.00    +0.000 C 
BRANCH  16  18
ATOM     18  N   UNL     1       1.249   8.404  20.036  0.00  0.00    +0.000 N 
ATOM     19  C   UNL     1       0.052   9.210  19.726  0.00  0.00    +0.000 C 
ATOM     20  C   UNL     1      -0.087  10.132  20.928  0.00  0.00    +0.000 C 
ATOM     21  C   UNL     1       0.324   9.232  22.078  0.00  0.00    +0.000 C 
ATOM     22  C   UNL     1       1.466   8.399  21.492  0.00  0.00    +0.000 C 
ENDBRANCH  16  18
BRANCH  17  23
ATOM     23  C   UNL     1       2.368   5.818  20.302  0.00  0.00    +0.000 C 
ATOM     24  N   UNL     1       2.044   5.091  21.280  0.00  0.00    +0.000 NA
ENDBRANCH  17  23
ENDBRANCH   1  17
TORSDOF 5
ENDMDL
MODEL 8
REMARK VINA RESULT:      -5.8      9.238     11.376
REMARK  Name = 
REMARK  6 active torsions:
REMARK  status: ('A' for Active; 'I' for Inactive)
REMARK    1  A    between atoms: C_1  and  C_2
REMARK    2  A    between atoms: C_2  and  N_20
REMARK    3  A    between atoms: C_3  and  C_4
REMARK    4  A    between atoms: C_3  and  P_6
REMARK    5  A    between atoms: P_6  and  C_8
REMARK    6  A    between atoms: P_6  and  C_14
REMARK                            x       y       z     vdW  Elec       q    Type
REMARK                         _______ _______ _______ _____ _____    ______ ____
ROOT
ATOM      1  P   UNL     1       0.379  13.741  20.453  0.00  0.00    +0.000 P 
ATOM      2  O   UNL     1       1.523  13.267  21.392  0.00  0.00    +0.000 OA
ENDROOT
BRANCH   1   3
ATOM      3  C   UNL     1      -0.211  12.296  19.311  0.00  0.00    +0.000 A 
ATOM      4  C   UNL     1       0.474  11.070  19.291  0.00  0.00    +0.000 A 
ATOM      5  C   UNL     1       0.018  10.028  18.481  0.00  0.00    +0.000 A 
ATOM      6  C   UNL     1      -1.149  10.183  17.732  0.00  0.00    +0.000 A 
ATOM      7  C   UNL     1      -1.830  11.399  17.740  0.00  0.00    +0.000 A 
ATOM      8  C   UNL     1      -1.340  12.471  18.487  0.00  0.00    +0.000 A 
ENDBRANCH   1   3
BRANCH   1   9
ATOM      9  C   UNL     1       1.677  14.364  19.324  0.00  0.00    +0.000 A 
ATOM     10  C   UNL     1       2.869  13.700  18.977  0.00  0.00    +0.000 A 
ATOM     11  C   UNL     1       3.861  14.303  18.202  0.00  0.00    +0.000 A 
ATOM     12  C   UNL     1       3.683  15.594  17.725  0.00  0.00    +0.000 A 
ATOM     13  C   UNL     1       2.497  16.268  18.009  0.00  0.00    +0.000 A 
ATOM     14  C   UNL     1       1.510  15.658  18.805  0.00  0.00    +0.000 A 
ENDBRANCH   1   9
BRANCH   1  17
ATOM     15  C   UNL     1      -2.549  14.916  20.938  0.00  0.00    +0.000 C 
ATOM     16  C   UNL     1      -2.148  13.691  21.732  0.00  0.00    +0.000 C 
ATOM     17  C   UNL     1      -0.919  13.117  21.582  0.00  0.00    +0.000 C 
BRANCH  16  18
ATOM     18  N   UNL     1      -3.172  13.184  22.560  0.00  0.00    +0.000 N 
ATOM     19  C   UNL     1      -4.467  12.663  22.084  0.00  0.00    +0.000 C 
ATOM     20  C   UNL     1      -5.443  13.050  23.184  0.00  0.00    +0.000 C 
ATOM     21  C   UNL     1      -4.611  12.856  24.438  0.00  0.00    +0.000 C 
ATOM     22  C   UNL     1      -3.218  13.333  24.023  0.00  0.00    +0.000 C 
ENDBRANCH  16  18
BRANCH  17  23
ATOM     23  C   UNL     1      -0.678  11.855  22.393  0.00  0.00    +0.000 C 
ATOM     24  N   UNL     1      -0.478  10.808  23.067  0.00  0.00    +0.000 NA
ENDBRANCH  17  23
ENDBRANCH   1  17
TORSDOF 5
ENDMDL
MODEL 9
REMARK VINA RESULT:      -5.7      9.661     11.851
REMARK  Name = 
REMARK  6 active torsions:
REMARK  status: ('A' for Active; 'I' for Inactive)
REMARK    1  A    between atoms: C_1  and  C_2
REMARK    2  A    between atoms: C_2  and  N_20
REMARK    3  A    between atoms: C_3  and  C_4
REMARK    4  A    between atoms: C_3  and  P_6
REMARK    5  A    between atoms: P_6  and  C_8
REMARK    6  A    between atoms: P_6  and  C_14
REMARK                            x       y       z     vdW  Elec       q    Type
REMARK                         _______ _______ _______ _____ _____    ______ ____
ROOT
ATOM      1  P   UNL     1      -1.622  12.696  20.116  0.00  0.00    +0.000 P 
ATOM      2  O   UNL     1      -0.598  13.259  19.092  0.00  0.00    +0.000 OA
ENDROOT
BRANCH   1   3
ATOM      3  C   UNL     1      -0.800  11.347  21.233  0.00  0.00    +0.000 A 
ATOM      4  C   UNL     1       0.353  10.666  20.807  0.00  0.00    +0.000 A 
ATOM      5  C   UNL     1       0.948   9.714  21.637  0.00  0.00    +0.000 A 
ATOM      6  C   UNL     1       0.435   9.478  22.912  0.00  0.00    +0.000 A 
ATOM      7  C   UNL     1      -0.714  10.144  23.339  0.00  0.00    +0.000 A 
ATOM      8  C   UNL     1      -1.361  11.040  22.487  0.00  0.00    +0.000 A 
ENDBRANCH   1   3
BRANCH   1   9
ATOM      9  C   UNL     1      -2.179  11.549  18.804  0.00  0.00    +0.000 A 
ATOM     10  C   UNL     1      -1.365  10.671  18.064  0.00  0.00    +0.000 A 
ATOM     11  C   UNL     1      -1.856   9.918  16.997  0.00  0.00    +0.000 A 
ATOM     12  C   UNL     1      -3.196  10.004  16.644  0.00  0.00    +0.000 A 
ATOM     13  C   UNL     1      -4.044  10.828  17.380  0.00  0.00    +0.000 A 
ATOM     14  C   UNL     1      -3.535  11.595  18.445  0.00  0.00    +0.000 A 
ENDBRANCH   1   9
BRANCH   1  17
ATOM     15  C   UNL     1      -3.407  14.396  22.144  0.00  0.00    +0.000 C 
ATOM     16  C   UNL     1      -1.903  14.538  22.250  0.00  0.00    +0.000 C 
ATOM     17  C   UNL     1      -1.064  13.842  21.430  0.00  0.00    +0.000 C 
BRANCH  16  18
ATOM     18  N   UNL     1      -1.479  15.380  23.299  0.00  0.00    +0.000 N 
ATOM     19  C   UNL     1      -1.359  14.979  24.714  0.00  0.00    +0.000 C 
ATOM     20  C   UNL     1      -1.725  16.240  25.482  0.00  0.00    +0.000 C 
ATOM     21  C   UNL     1      -1.110  17.332  24.628  0.00  0.00    +0.000 C 
ATOM     22  C   UNL     1      -1.342  16.843  23.197  0.00  0.00    +0.000 C 
ENDBRANCH  16  18
BRANCH  17  23
ATOM     23  C   UNL     1       0.421  14.031  21.693  0.00  0.00    +0.000 C 
ATOM     24  N   UNL     1       1.652  14.189  21.911  0.00  0.00    +0.000 NA
ENDBRANCH  17  23
ENDBRANCH   1  17
TORSDOF 5
ENDMDL
