MODEL 1
REMARK VINA RESULT:      -7.2      0.000      0.000
REMARK  Name = 
REMARK  8 active torsions:
REMARK  status: ('A' for Active; 'I' for Inactive)
REMARK    1  A    between atoms: C_1  and  O_2
REMARK    2  A    between atoms: O_2  and  C_3
REMARK    3  A    between atoms: C_3  and  C_4
REMARK    4  A    between atoms: C_3  and  C_5
REMARK    5  A    between atoms: C_3  and  C_6
REMARK    6  A    between atoms: C_8  and  C_9
REMARK    7  A    between atoms: C_9  and  C_10
REMARK    8  A    between atoms: N_12  and  C_13
REMARK                            x       y       z     vdW  Elec       q    Type
REMARK                         _______ _______ _______ _____ _____    ______ ____
ROOT
ATOM      1  C   UNL     1       3.469   4.497  19.690  0.00  0.00    +0.000 A 
ATOM      2  N   UNL     1       4.252   5.488  19.322  0.00  0.00    +0.000 NA
ATOM      3  C   UNL     1       5.366   4.834  18.869  0.00  0.00    +0.000 A 
ATOM      4  N   UNL     1       5.292   3.496  18.912  0.00  0.00    +0.000 NA
ATOM      5  O   UNL     1       4.023   3.266  19.455  0.00  0.00    +0.000 OA
ENDROOT
BRANCH   1   6
ATOM      6  C   UNL     1       2.129   4.538  20.382  0.00  0.00    +0.000 C 
ATOM      7  C   UNL     1       1.095   3.805  19.510  0.00  0.00    +0.000 C 
ATOM      8  C   UNL     1       1.710   6.003  20.579  0.00  0.00    +0.000 C 
BRANCH   6  10
ATOM      9  C   UNL     1       1.563   2.688  21.857  0.00  0.00    +0.000 C 
ATOM     10  O   UNL     1       2.319   3.870  21.641  0.00  0.00    +0.000 OA
ENDBRANCH   6  10
ENDBRANCH   1   6
BRANCH   3  11
ATOM     11  C   UNL     1       6.557   5.549  18.376  0.00  0.00    +0.000 C 
BRANCH  11  12
ATOM     12  C   UNL     1       7.089   4.872  17.137  0.00  0.00    +0.000 C 
ATOM     13  O   UNL     1       8.145   4.240  17.138  0.00  0.00    +0.000 OA
ATOM     14  N   UNL     1       6.318   5.035  15.998  0.00  0.00    +0.000 N 
ATOM     15  H   UNL     1       5.352   5.326  16.107  0.00  0.00    +0.000 HD
BRANCH  14  16
ATOM     16  C   UNL     1       6.703   4.367  14.776  0.00  0.00    +0.000 C 
ATOM     17  C   UNL     1       5.514   3.910  13.933  0.00  0.00    +0.000 C 
ATOM     18  C   UNL     1       6.168   3.536  12.608  0.00  0.00    +0.000 C 
ATOM     19  C   UNL     1       7.398   4.444  12.485  0.00  0.00    +0.000 C 
ATOM     20  C   UNL     1       7.466   5.242  13.788  0.00  0.00    +0.000 C 
ENDBRANCH  14  16
ENDBRANCH  11  12
ENDBRANCH   3  11
TORSDOF 5
ENDMDL
MODEL 2
REMARK VINA RESULT:      -7.1      1.377      1.884
REMARK  Name = 
REMARK  8 active torsions:
REMARK  status: ('A' for Active; 'I' for Inactive)
REMARK    1  A    between atoms: C_1  and  O_2
REMARK    2  A    between atoms: O_2  and  C_3
REMARK    3  A    between atoms: C_3  and  C_4
REMARK    4  A    between atoms: C_3  and  C_5
REMARK    5  A    between atoms: C_3  and  C_6
REMARK    6  A    between atoms: C_8  and  C_9
REMARK    7  A    between atoms: C_9  and  C_10
REMARK    8  A    between atoms: N_12  and  C_13
REMARK                            x       y       z     vdW  Elec       q    Type
REMARK                         _______ _______ _______ _____ _____    ______ ____
ROOT
ATOM      1  C   UNL     1       3.583   5.019  18.891  0.00  0.00    +0.000 A 
ATOM      2  N   UNL     1       4.893   4.909  18.853  0.00  0.00    +0.000 NA
ATOM      3  C   UNL     1       5.253   5.933  18.019  0.00  0.00    +0.000 A 
ATOM      4  N   UNL     1       4.235   6.681  17.571  0.00  0.00    +0.000 NA
ATOM      5  O   UNL     1       3.116   6.077  18.156  0.00  0.00    +0.000 OA
ENDROOT
BRANCH   1   6
ATOM      6  C   UNL     1       2.562   4.121  19.546  0.00  0.00    +0.000 C 
ATOM      7  C   UNL     1       1.782   4.935  20.592  0.00  0.00    +0.000 C 
ATOM      8  C   UNL     1       3.287   2.947  20.223  0.00  0.00    +0.000 C 
BRANCH   6  10
ATOM      9  C   UNL     1       0.875   2.550  18.770  0.00  0.00    +0.000 C 
ATOM     10  O   UNL     1       1.702   3.669  18.486  0.00  0.00    +0.000 OA
ENDBRANCH   6  10
ENDBRANCH   1   6
BRANCH   3  11
ATOM     11  C   UNL     1       6.655   6.188  17.639  0.00  0.00    +0.000 C 
BRANCH  11  12
ATOM     12  C   UNL     1       7.074   5.235  16.546  0.00  0.00    +0.000 C 
ATOM     13  O   UNL     1       7.957   4.395  16.713  0.00  0.00    +0.000 OA
ATOM     14  N   UNL     1       6.412   5.393  15.340  0.00  0.00    +0.000 N 
ATOM     15  H   UNL     1       5.533   5.900  15.335  0.00  0.00    +0.000 HD
BRANCH  14  16
ATOM     16  C   UNL     1       6.689   4.483  14.252  0.00  0.00    +0.000 C 
ATOM     17  C   UNL     1       5.430   3.928  13.589  0.00  0.00    +0.000 C 
ATOM     18  C   UNL     1       5.978   3.274  12.326  0.00  0.00    +0.000 C 
ATOM     19  C   UNL     1       7.227   4.082  11.953  0.00  0.00    +0.000 C 
ATOM     20  C   UNL     1       7.411   5.113  13.067  0.00  0.00    +0.000 C 
ENDBRANCH  14  16
ENDBRANCH  11  12
ENDBRANCH   3  11
TORSDOF 5
ENDMDL
MODEL 3
REMARK VINA RESULT:      -7.1      1.395      1.900
REMARK  Name = 
REMARK  8 active torsions:
REMARK  status: ('A' for Active; 'I' for Inactive)
REMARK    1  A    between atoms: C_1  and  O_2
REMARK    2  A    between atoms: O_2  and  C_3
REMARK    3  A    between atoms: C_3  and  C_4
REMARK    4  A    between atoms: C_3  and  C_5
REMARK    5  A    between atoms: C_3  and  C_6
REMARK    6  A    between atoms: C_8  and  C_9
REMARK    7  A    between atoms: C_9  and  C_10
REMARK    8  A    between atoms: N_12  and  C_13
REMARK                            x       y       z     vdW  Elec       q    Type
REMARK                         _______ _______ _______ _____ _____    ______ ____
ROOT
ATOM      1  C   UNL     1       3.661   4.309  18.542  0.00  0.00    +0.000 A 
ATOM      2  N   UNL     1       4.574   4.583  17.634  0.00  0.00    +0.000 NA
ATOM      3  C   UNL     1       5.455   5.368  18.328  0.00  0.00    +0.000 A 
ATOM      4  N   UNL     1       5.145   5.562  19.617  0.00  0.00    +0.000 NA
ATOM      5  O   UNL     1       3.949   4.851  19.766  0.00  0.00    +0.000 OA
ENDROOT
BRANCH   1   6
ATOM      6  C   UNL     1       2.352   3.573  18.395  0.00  0.00    +0.000 C 
ATOM      7  C   UNL     1       1.386   4.435  17.564  0.00  0.00    +0.000 C 
ATOM      8  C   UNL     1       1.762   3.314  19.790  0.00  0.00    +0.000 C 
BRANCH   6  10
ATOM      9  C   UNL     1       3.491   1.423  18.423  0.00  0.00    +0.000 C 
ATOM     10  O   UNL     1       2.668   2.343  17.720  0.00  0.00    +0.000 OA
ENDBRANCH   6  10
ENDBRANCH   1   6
BRANCH   3  11
ATOM     11  C   UNL     1       6.651   5.958  17.699  0.00  0.00    +0.000 C 
BRANCH  11  12
ATOM     12  C   UNL     1       7.122   5.082  16.564  0.00  0.00    +0.000 C 
ATOM     13  O   UNL     1       7.987   4.220  16.717  0.00  0.00    +0.000 OA
ATOM     14  N   UNL     1       6.531   5.336  15.338  0.00  0.00    +0.000 N 
ATOM     15  H   UNL     1       5.659   5.855  15.320  0.00  0.00    +0.000 HD
BRANCH  14  16
ATOM     16  C   UNL     1       6.861   4.504  14.202  0.00  0.00    +0.000 C 
ATOM     17  C   UNL     1       5.639   3.875  13.536  0.00  0.00    +0.000 C 
ATOM     18  C   UNL     1       6.213   3.329  12.234  0.00  0.00    +0.000 C 
ATOM     19  C   UNL     1       7.381   4.257  11.878  0.00  0.00    +0.000 C 
ATOM     20  C   UNL     1       7.502   5.248  13.037  0.00  0.00    +0.000 C 
ENDBRANCH  14  16
ENDBRANCH  11  12
ENDBRANCH   3  11
TORSDOF 5
ENDMDL
MODEL 4
REMARK VINA RESULT:      -7.1      1.177      1.782
REMARK  Name = 
REMARK  8 active torsions:
REMARK  status: ('A' for Active; 'I' for Inactive)
REMARK    1  A    between atoms: C_1  and  O_2
REMARK    2  A    between atoms: O_2  and  C_3
REMARK    3  A    between atoms: C_3  and  C_4
REMARK    4  A    between atoms: C_3  and  C_5
REMARK    5  A    between atoms: C_3  and  C_6
REMARK    6  A    between atoms: C_8  and  C_9
REMARK    7  A    between atoms: C_9  and  C_10
REMARK    8  A    between atoms: N_12  and  C_13
REMARK                            x       y       z     vdW  Elec       q    Type
REMARK                         _______ _______ _______ _____ _____    ______ ____
ROOT
ATOM      1  C   UNL     1       3.634   4.049  19.519  0.00  0.00    +0.000 A 
ATOM      2  N   UNL     1       4.944   3.932  19.549  0.00  0.00    +0.000 NA
ATOM      3  C   UNL     1       5.359   5.087  18.940  0.00  0.00    +0.000 A 
ATOM      4  N   UNL     1       4.373   5.915  18.569  0.00  0.00    +0.000 NA
ATOM      5  O   UNL     1       3.217   5.228  18.959  0.00  0.00    +0.000 OA
ENDROOT
BRANCH   1   6
ATOM      6  C   UNL     1       2.573   3.060  19.932  0.00  0.00    +0.000 C 
ATOM      7  C   UNL     1       1.188   3.686  19.696  0.00  0.00    +0.000 C 
ATOM      8  C   UNL     1       2.753   2.721  21.420  0.00  0.00    +0.000 C 
BRANCH   6  10
ATOM      9  C   UNL     1       2.665   2.099  17.699  0.00  0.00    +0.000 C 
ATOM     10  O   UNL     1       2.772   1.903  19.101  0.00  0.00    +0.000 OA
ENDBRANCH   6  10
ENDBRANCH   1   6
BRANCH   3  11
ATOM     11  C   UNL     1       6.782   5.390  18.707  0.00  0.00    +0.000 C 
BRANCH  11  12
ATOM     12  C   UNL     1       7.239   4.756  17.415  0.00  0.00    +0.000 C 
ATOM     13  O   UNL     1       8.280   4.105  17.337  0.00  0.00    +0.000 OA
ATOM     14  N   UNL     1       6.417   4.982  16.324  0.00  0.00    +0.000 N 
ATOM     15  H   UNL     1       5.464   5.286  16.493  0.00  0.00    +0.000 HD
BRANCH  14  16
ATOM     16  C   UNL     1       6.728   4.359  15.057  0.00  0.00    +0.000 C 
ATOM     17  C   UNL     1       5.489   3.947  14.264  0.00  0.00    +0.000 C 
ATOM     18  C   UNL     1       6.066   3.620  12.892  0.00  0.00    +0.000 C 
ATOM     19  C   UNL     1       7.298   4.520  12.737  0.00  0.00    +0.000 C 
ATOM     20  C   UNL     1       7.445   5.265  14.064  0.00  0.00    +0.000 C 
ENDBRANCH  14  16
ENDBRANCH  11  12
ENDBRANCH   3  11
TORSDOF 5
ENDMDL
MODEL 5
REMARK VINA RESULT:      -7.0      1.294      1.694
REMARK  Name = 
REMARK  8 active torsions:
REMARK  status: ('A' for Active; 'I' for Inactive)
REMARK    1  A    between atoms: C_1  and  O_2
REMARK    2  A    between atoms: O_2  and  C_3
REMARK    3  A    between atoms: C_3  and  C_4
REMARK    4  A    between atoms: C_3  and  C_5
REMARK    5  A    between atoms: C_3  and  C_6
REMARK    6  A    between atoms: C_8  and  C_9
REMARK    7  A    between atoms: C_9  and  C_10
REMARK    8  A    between atoms: N_12  and  C_13
REMARK                            x       y       z     vdW  Elec       q    Type
REMARK                         _______ _______ _______ _____ _____    ______ ____
ROOT
ATOM      1  C   UNL     1       3.594   4.264  18.715  0.00  0.00    +0.000 A 
ATOM      2  N   UNL     1       4.855   4.279  18.342  0.00  0.00    +0.000 NA
ATOM      3  C   UNL     1       5.092   5.613  18.151  0.00  0.00    +0.000 A 
ATOM      4  N   UNL     1       4.052   6.416  18.417  0.00  0.00    +0.000 NA
ATOM      5  O   UNL     1       3.049   5.518  18.801  0.00  0.00    +0.000 OA
ENDROOT
BRANCH   1   6
ATOM      6  C   UNL     1       2.683   3.089  18.974  0.00  0.00    +0.000 C 
ATOM      7  C   UNL     1       3.262   1.847  18.277  0.00  0.00    +0.000 C 
ATOM      8  C   UNL     1       1.286   3.404  18.417  0.00  0.00    +0.000 C 
BRANCH   6  10
ATOM      9  C   UNL     1       1.393   3.064  21.037  0.00  0.00    +0.000 C 
ATOM     10  O   UNL     1       2.655   2.923  20.402  0.00  0.00    +0.000 OA
ENDBRANCH   6  10
ENDBRANCH   1   6
BRANCH   3  11
ATOM     11  C   UNL     1       6.392   6.126  17.681  0.00  0.00    +0.000 C 
BRANCH  11  12
ATOM     12  C   UNL     1       6.929   5.241  16.583  0.00  0.00    +0.000 C 
ATOM     13  O   UNL     1       7.920   4.529  16.740  0.00  0.00    +0.000 OA
ATOM     14  N   UNL     1       6.241   5.307  15.383  0.00  0.00    +0.000 N 
ATOM     15  H   UNL     1       5.301   5.690  15.385  0.00  0.00    +0.000 HD
BRANCH  14  16
ATOM     16  C   UNL     1       6.631   4.446  14.290  0.00  0.00    +0.000 C 
ATOM     17  C   UNL     1       5.445   3.867  13.520  0.00  0.00    +0.000 C 
ATOM     18  C   UNL     1       6.108   3.277  12.281  0.00  0.00    +0.000 C 
ATOM     19  C   UNL     1       7.347   4.142  12.025  0.00  0.00    +0.000 C 
ATOM     20  C   UNL     1       7.411   5.142  13.181  0.00  0.00    +0.000 C 
ENDBRANCH  14  16
ENDBRANCH  11  12
ENDBRANCH   3  11
TORSDOF 5
ENDMDL
MODEL 6
REMARK VINA RESULT:      -6.9      1.575      2.001
REMARK  Name = 
REMARK  8 active torsions:
REMARK  status: ('A' for Active; 'I' for Inactive)
REMARK    1  A    between atoms: C_1  and  O_2
REMARK    2  A    between atoms: O_2  and  C_3
REMARK    3  A    between atoms: C_3  and  C_4
REMARK    4  A    between atoms: C_3  and  C_5
REMARK    5  A    between atoms: C_3  and  C_6
REMARK    6  A    between atoms: C_8  and  C_9
REMARK    7  A    between atoms: C_9  and  C_10
REMARK    8  A    between atoms: N_12  and  C_13
REMARK                            x       y       z     vdW  Elec       q    Type
REMARK                         _______ _______ _______ _____ _____    ______ ____
ROOT
ATOM      1  C   UNL     1       3.986   5.889  18.783  0.00  0.00    +0.000 A 
ATOM      2  N   UNL     1       4.824   6.227  17.826  0.00  0.00    +0.000 NA
ATOM      3  C   UNL     1       6.040   5.918  18.376  0.00  0.00    +0.000 A 
ATOM      4  N   UNL     1       5.985   5.381  19.602  0.00  0.00    +0.000 NA
ATOM      5  O   UNL     1       4.613   5.354  19.876  0.00  0.00    +0.000 OA
ENDROOT
BRANCH   1   6
ATOM      6  C   UNL     1       2.491   6.079  18.860  0.00  0.00    +0.000 C 
ATOM      7  C   UNL     1       2.166   7.568  18.659  0.00  0.00    +0.000 C 
ATOM      8  C   UNL     1       1.995   5.611  20.237  0.00  0.00    +0.000 C 
BRANCH   6  10
ATOM      9  C   UNL     1       1.604   3.935  18.125  0.00  0.00    +0.000 C 
ATOM     10  O   UNL     1       1.939   5.276  17.801  0.00  0.00    +0.000 OA
ENDBRANCH   6  10
ENDBRANCH   1   6
BRANCH   3  11
ATOM     11  C   UNL     1       7.311   6.165  17.670  0.00  0.00    +0.000 C 
BRANCH  11  12
ATOM     12  C   UNL     1       7.495   5.148  16.571  0.00  0.00    +0.000 C 
ATOM     13  O   UNL     1       8.088   4.085  16.753  0.00  0.00    +0.000 OA
ATOM     14  N   UNL     1       6.972   5.508  15.340  0.00  0.00    +0.000 N 
ATOM     15  H   UNL     1       6.280   6.249  15.308  0.00  0.00    +0.000 HD
BRANCH  14  16
ATOM     16  C   UNL     1       7.034   4.574  14.239  0.00  0.00    +0.000 C 
ATOM     17  C   UNL     1       5.661   4.091  13.776  0.00  0.00    +0.000 C 
ATOM     18  C   UNL     1       5.979   3.393  12.459  0.00  0.00    +0.000 C 
ATOM     19  C   UNL     1       7.206   4.120  11.894  0.00  0.00    +0.000 C 
ATOM     20  C   UNL     1       7.612   5.148  12.951  0.00  0.00    +0.000 C 
ENDBRANCH  14  16
ENDBRANCH  11  12
ENDBRANCH   3  11
TORSDOF 5
ENDMDL
MODEL 7
REMARK VINA RESULT:      -6.7      1.057      1.583
REMARK  Name = 
REMARK  8 active torsions:
REMARK  status: ('A' for Active; 'I' for Inactive)
REMARK    1  A    between atoms: C_1  and  O_2
REMARK    2  A    between atoms: O_2  and  C_3
REMARK    3  A    between atoms: C_3  and  C_4
REMARK    4  A    between atoms: C_3  and  C_5
REMARK    5  A    between atoms: C_3  and  C_6
REMARK    6  A    between atoms: C_8  and  C_9
REMARK    7  A    between atoms: C_9  and  C_10
REMARK    8  A    between atoms: N_12  and  C_13
REMARK                            x       y       z     vdW  Elec       q    Type
REMARK                         _______ _______ _______ _____ _____    ______ ____
ROOT
ATOM      1  C   UNL     1       3.434   4.659  19.165  0.00  0.00    +0.000 A 
ATOM      2  N   UNL     1       4.672   5.067  19.340  0.00  0.00    +0.000 NA
ATOM      3  C   UNL     1       5.053   5.413  18.071  0.00  0.00    +0.000 A 
ATOM      4  N   UNL     1       4.103   5.267  17.137  0.00  0.00    +0.000 NA
ATOM      5  O   UNL     1       3.016   4.768  17.865  0.00  0.00    +0.000 OA
ENDROOT
BRANCH   1   6
ATOM      6  C   UNL     1       2.479   4.038  20.154  0.00  0.00    +0.000 C 
ATOM      7  C   UNL     1       3.126   2.774  20.745  0.00  0.00    +0.000 C 
ATOM      8  C   UNL     1       1.173   3.673  19.430  0.00  0.00    +0.000 C 
BRANCH   6  10
ATOM      9  C   UNL     1       1.569   6.210  20.764  0.00  0.00    +0.000 C 
ATOM     10  O   UNL     1       2.259   5.036  21.166  0.00  0.00    +0.000 OA
ENDBRANCH   6  10
ENDBRANCH   1   6
BRANCH   3  11
ATOM     11  C   UNL     1       6.408   5.902  17.759  0.00  0.00    +0.000 C 
BRANCH  11  12
ATOM     12  C   UNL     1       6.996   5.101  16.623  0.00  0.00    +0.000 C 
ATOM     13  O   UNL     1       7.939   4.328  16.786  0.00  0.00    +0.000 OA
ATOM     14  N   UNL     1       6.414   5.318  15.385  0.00  0.00    +0.000 N 
ATOM     15  H   UNL     1       5.495   5.746  15.351  0.00  0.00    +0.000 HD
BRANCH  14  16
ATOM     16  C   UNL     1       6.858   4.547  14.245  0.00  0.00    +0.000 C 
ATOM     17  C   UNL     1       5.720   3.841  13.511  0.00  0.00    +0.000 C 
ATOM     18  C   UNL     1       6.390   3.378  12.223  0.00  0.00    +0.000 C 
ATOM     19  C   UNL     1       7.493   4.405  11.941  0.00  0.00    +0.000 C 
ATOM     20  C   UNL     1       7.484   5.370  13.127  0.00  0.00    +0.000 C 
ENDBRANCH  14  16
ENDBRANCH  11  12
ENDBRANCH   3  11
TORSDOF 5
ENDMDL
MODEL 8
REMARK VINA RESULT:      -6.7      0.896      1.350
REMARK  Name = 
REMARK  8 active torsions:
REMARK  status: ('A' for Active; 'I' for Inactive)
REMARK    1  A    between atoms: C_1  and  O_2
REMARK    2  A    between atoms: O_2  and  C_3
REMARK    3  A    between atoms: C_3  and  C_4
REMARK    4  A    between atoms: C_3  and  C_5
REMARK    5  A    between atoms: C_3  and  C_6
REMARK    6  A    between atoms: C_8  and  C_9
REMARK    7  A    between atoms: C_9  and  C_10
REMARK    8  A    between atoms: N_12  and  C_13
REMARK                            x       y       z     vdW  Elec       q    Type
REMARK                         _______ _______ _______ _____ _____    ______ ____
ROOT
ATOM      1  C   UNL     1       3.333   3.669  19.881  0.00  0.00    +0.000 A 
ATOM      2  N   UNL     1       3.915   4.799  19.543  0.00  0.00    +0.000 NA
ATOM      3  C   UNL     1       5.139   4.380  19.095  0.00  0.00    +0.000 A 
ATOM      4  N   UNL     1       5.323   3.053  19.113  0.00  0.00    +0.000 NA
ATOM      5  O   UNL     1       4.115   2.572  19.633  0.00  0.00    +0.000 OA
ENDROOT
BRANCH   1   6
ATOM      6  C   UNL     1       2.002   3.438  20.554  0.00  0.00    +0.000 C 
ATOM      7  C   UNL     1       1.143   4.705  20.406  0.00  0.00    +0.000 C 
ATOM      8  C   UNL     1       2.237   3.129  22.041  0.00  0.00    +0.000 C 
BRANCH   6  10
ATOM      9  C   UNL     1       0.864   2.574  18.585  0.00  0.00    +0.000 C 
ATOM     10  O   UNL     1       1.408   2.320  19.871  0.00  0.00    +0.000 OA
ENDBRANCH   6  10
ENDBRANCH   1   6
BRANCH   3  11
ATOM     11  C   UNL     1       6.176   5.321  18.634  0.00  0.00    +0.000 C 
BRANCH  11  12
ATOM     12  C   UNL     1       6.824   4.797  17.375  0.00  0.00    +0.000 C 
ATOM     13  O   UNL     1       7.981   4.379  17.358  0.00  0.00    +0.000 OA
ATOM     14  N   UNL     1       6.031   4.846  16.240  0.00  0.00    +0.000 N 
ATOM     15  H   UNL     1       5.028   4.943  16.355  0.00  0.00    +0.000 HD
BRANCH  14  16
ATOM     16  C   UNL     1       6.533   4.302  14.998  0.00  0.00    +0.000 C 
ATOM     17  C   UNL     1       5.429   3.912  14.017  0.00  0.00    +0.000 C 
ATOM     18  C   UNL     1       6.200   3.674  12.724  0.00  0.00    +0.000 C 
ATOM     19  C   UNL     1       7.416   4.606  12.793  0.00  0.00    +0.000 C 
ATOM     20  C   UNL     1       7.356   5.277  14.165  0.00  0.00    +0.000 C 
ENDBRANCH  14  16
ENDBRANCH  11  12
ENDBRANCH   3  11
TORSDOF 5
ENDMDL
MODEL 9
REMARK VINA RESULT:      -6.6      0.828      1.431
REMARK  Name = 
REMARK  8 active torsions:
REMARK  status: ('A' for Active; 'I' for Inactive)
REMARK    1  A    between atoms: C_1  and  O_2
REMARK    2  A    between atoms: O_2  and  C_3
REMARK    3  A    between atoms: C_3  and  C_4
REMARK    4  A    between atoms: C_3  and  C_5
REMARK    5  A    between atoms: C_3  and  C_6
REMARK    6  A    between atoms: C_8  and  C_9
REMARK    7  A    between atoms: C_9  and  C_10
REMARK    8  A    between atoms: N_12  and  C_13
REMARK                            x       y       z     vdW  Elec       q    Type
REMARK                         _______ _______ _______ _____ _____    ______ ____
ROOT
ATOM      1  C   UNL     1       3.382   4.196  19.373  0.00  0.00    +0.000 A 
ATOM      2  N   UNL     1       4.196   5.120  18.909  0.00  0.00    +0.000 NA
ATOM      3  C   UNL     1       5.415   4.499  18.972  0.00  0.00    +0.000 A 
ATOM      4  N   UNL     1       5.383   3.236  19.420  0.00  0.00    +0.000 NA
ATOM      5  O   UNL     1       4.024   3.027  19.684  0.00  0.00    +0.000 OA
ENDROOT
BRANCH   1   6
ATOM      6  C   UNL     1       1.905   4.280  19.671  0.00  0.00    +0.000 C 
ATOM      7  C   UNL     1       1.649   3.730  21.083  0.00  0.00    +0.000 C 
ATOM      8  C   UNL     1       1.135   3.449  18.632  0.00  0.00    +0.000 C 
BRANCH   6  10
ATOM      9  C   UNL     1       1.571   6.410  20.799  0.00  0.00    +0.000 C 
ATOM     10  O   UNL     1       1.567   5.676  19.584  0.00  0.00    +0.000 OA
ENDBRANCH   6  10
ENDBRANCH   1   6
BRANCH   3  11
ATOM     11  C   UNL     1       6.666   5.173  18.581  0.00  0.00    +0.000 C 
BRANCH  11  12
ATOM     12  C   UNL     1       7.146   4.639  17.253  0.00  0.00    +0.000 C 
ATOM     13  O   UNL     1       8.278   4.181  17.102  0.00  0.00    +0.000 OA
ATOM     14  N   UNL     1       6.231   4.726  16.217  0.00  0.00    +0.000 N 
ATOM     15  H   UNL     1       5.252   4.858  16.447  0.00  0.00    +0.000 HD
BRANCH  14  16
ATOM     16  C   UNL     1       6.568   4.178  14.923  0.00  0.00    +0.000 C 
ATOM     17  C   UNL     1       5.346   3.851  14.066  0.00  0.00    +0.000 C 
ATOM     18  C   UNL     1       5.959   3.596  12.694  0.00  0.00    +0.000 C 
ATOM     19  C   UNL     1       7.217   4.471  12.637  0.00  0.00    +0.000 C 
ATOM     20  C   UNL     1       7.340   5.126  14.013  0.00  0.00    +0.000 C 
ENDBRANCH  14  16
ENDBRANCH  11  12
ENDBRANCH   3  11
TORSDOF 5
ENDMDL
