MODEL 1
REMARK VINA RESULT:      -8.0      0.000      0.000
REMARK  Name = 
REMARK  7 active torsions:
REMARK  status: ('A' for Active; 'I' for Inactive)
REMARK    1  A    between atoms: C_2  and  O_3
REMARK    2  A    between atoms: C_2  and  C_4
REMARK    3  A    between atoms: C_4  and  O_5
REMARK    4  A    between atoms: O_5  and  C_6
REMARK    5  A    between atoms: C_12  and  C_13
REMARK    6  A    between atoms: N_24  and  C_25
REMARK    7  A    between atoms: C_25  and  C_26
REMARK                            x       y       z     vdW  Elec       q    Type
REMARK                         _______ _______ _______ _____ _____    ______ ____
ROOT
ATOM      1  C   UNL     1       3.387   5.121  18.152  0.00  0.00    +0.000 C 
ATOM      2  C   UNL     1       2.728   3.785  18.504  0.00  0.00    +0.000 A 
ATOM      3  S   UNL     1       2.554   2.449  17.443  0.00  0.00    +0.000 S 
ATOM      4  C   UNL     1       1.792   1.556  18.690  0.00  0.00    +0.000 A 
ATOM      5  N   UNL     1       1.577   2.204  19.813  0.00  0.00    +0.000 NA
ATOM      6  C   UNL     1       2.074   3.483  19.690  0.00  0.00    +0.000 A 
ATOM      7  C   UNL     1       1.875   4.473  20.775  0.00  0.00    +0.000 C 
ATOM      8  C   UNL     1       2.874   5.613  20.602  0.00  0.00    +0.000 C 
ATOM      9  N   UNL     1       2.923   6.108  19.198  0.00  0.00    +0.000 N 
ATOM     10  C   UNL     1       2.400   7.321  18.767  0.00  0.00    +0.000 C 
ATOM     11  O   UNL     1       2.356   7.635  17.581  0.00  0.00    +0.000 OA
ATOM     12  N   UNL     1       1.899   8.123  19.752  0.00  0.00    +0.000 N 
ATOM     13  H   UNL     1       2.348   8.097  20.649  0.00  0.00    +0.000 HD
ENDROOT
BRANCH   1  20
ATOM     14  C   UNL     1       5.593   4.708  16.838  0.00  0.00    +0.000 A 
ATOM     15  C   UNL     1       6.986   4.506  16.827  0.00  0.00    +0.000 A 
ATOM     16  C   UNL     1       7.756   4.781  17.953  0.00  0.00    +0.000 A 
ATOM     17  C   UNL     1       7.137   5.258  19.095  0.00  0.00    +0.000 A 
ATOM     18 CL   UNL     1       8.081   5.686  20.467  0.00  0.00    +0.000 Cl
ATOM     19  C   UNL     1       5.749   5.390  19.140  0.00  0.00    +0.000 A 
ATOM     20  C   UNL     1       4.930   5.057  18.040  0.00  0.00    +0.000 A 
BRANCH  14  21
ATOM     21  O   UNL     1       4.843   4.611  15.691  0.00  0.00    +0.000 OA
BRANCH  21  22
ATOM     22  C   UNL     1       5.481   5.065  14.489  0.00  0.00    +0.000 C 
BRANCH  22  24
ATOM     23  O   UNL     1       4.672   3.766  12.614  0.00  0.00    +0.000 OA
ATOM     24  C   UNL     1       5.533   3.948  13.463  0.00  0.00    +0.000 C 
BRANCH  24  25
ATOM     25  O   UNL     1       6.643   3.179  13.556  0.00  0.00    +0.000 OA
ATOM     26  H   UNL     1       6.771   2.885  14.485  0.00  0.00    +0.000 HD
ENDBRANCH  24  25
ENDBRANCH  22  24
ENDBRANCH  21  22
ENDBRANCH  14  21
ENDBRANCH   1  20
BRANCH  12  27
ATOM     27  C   UNL     1       1.232   9.381  19.474  0.00  0.00    +0.000 C 
BRANCH  27  28
ATOM     28  C   UNL     1       0.470   9.844  20.695  0.00  0.00    +0.000 A 
ATOM     29  C   UNL     1      -0.240  11.053  20.705  0.00  0.00    +0.000 A 
ATOM     30  C   UNL     1      -0.934  11.458  21.850  0.00  0.00    +0.000 A 
ATOM     31  C   UNL     1      -0.927  10.661  22.994  0.00  0.00    +0.000 A 
ATOM     32  C   UNL     1      -0.227   9.457  22.996  0.00  0.00    +0.000 A 
ATOM     33  C   UNL     1       0.465   9.050  21.854  0.00  0.00    +0.000 A 
ENDBRANCH  27  28
ENDBRANCH  12  27
TORSDOF 7
ENDMDL
MODEL 2
REMARK VINA RESULT:      -7.9      0.514      1.087
REMARK  Name = 
REMARK  7 active torsions:
REMARK  status: ('A' for Active; 'I' for Inactive)
REMARK    1  A    between atoms: C_2  and  O_3
REMARK    2  A    between atoms: C_2  and  C_4
REMARK    3  A    between atoms: C_4  and  O_5
REMARK    4  A    between atoms: O_5  and  C_6
REMARK    5  A    between atoms: C_12  and  C_13
REMARK    6  A    between atoms: N_24  and  C_25
REMARK    7  A    between atoms: C_25  and  C_26
REMARK                            x       y       z     vdW  Elec       q    Type
REMARK                         _______ _______ _______ _____ _____    ______ ____
ROOT
ATOM      1  C   UNL     1       3.471   5.083  18.192  0.00  0.00    +0.000 C 
ATOM      2  C   UNL     1       2.805   3.744  18.517  0.00  0.00    +0.000 A 
ATOM      3  S   UNL     1       2.663   2.414  17.443  0.00  0.00    +0.000 S 
ATOM      4  C   UNL     1       1.868   1.513  18.663  0.00  0.00    +0.000 A 
ATOM      5  N   UNL     1       1.621   2.152  19.783  0.00  0.00    +0.000 NA
ATOM      6  C   UNL     1       2.119   3.433  19.682  0.00  0.00    +0.000 A 
ATOM      7  C   UNL     1       1.888   4.416  20.767  0.00  0.00    +0.000 C 
ATOM      8  C   UNL     1       2.890   5.558  20.630  0.00  0.00    +0.000 C 
ATOM      9  N   UNL     1       2.976   6.062  19.230  0.00  0.00    +0.000 N 
ATOM     10  C   UNL     1       2.464   7.277  18.793  0.00  0.00    +0.000 C 
ATOM     11  O   UNL     1       2.453   7.599  17.608  0.00  0.00    +0.000 OA
ATOM     12  N   UNL     1       1.934   8.072  19.768  0.00  0.00    +0.000 N 
ATOM     13  H   UNL     1       2.358   8.041  20.678  0.00  0.00    +0.000 HD
ENDROOT
BRANCH   1  20
ATOM     14  C   UNL     1       5.714   4.663  16.942  0.00  0.00    +0.000 A 
ATOM     15  C   UNL     1       7.107   4.465  16.971  0.00  0.00    +0.000 A 
ATOM     16  C   UNL     1       7.845   4.752  18.115  0.00  0.00    +0.000 A 
ATOM     17  C   UNL     1       7.194   5.239  19.235  0.00  0.00    +0.000 A 
ATOM     18 CL   UNL     1       8.099   5.681  20.629  0.00  0.00    +0.000 Cl
ATOM     19  C   UNL     1       5.805   5.367  19.241  0.00  0.00    +0.000 A 
ATOM     20  C   UNL     1       5.017   5.022  18.123  0.00  0.00    +0.000 A 
BRANCH  14  21
ATOM     21  O   UNL     1       4.995   4.553  15.776  0.00  0.00    +0.000 OA
BRANCH  21  22
ATOM     22  C   UNL     1       5.435   5.386  14.693  0.00  0.00    +0.000 C 
BRANCH  22  24
ATOM     23  O   UNL     1       7.575   5.267  13.569  0.00  0.00    +0.000 OA
ATOM     24  C   UNL     1       6.549   4.702  13.921  0.00  0.00    +0.000 C 
BRANCH  24  25
ATOM     25  O   UNL     1       6.314   3.392  13.677  0.00  0.00    +0.000 OA
ATOM     26  H   UNL     1       6.036   3.269  12.743  0.00  0.00    +0.000 HD
ENDBRANCH  24  25
ENDBRANCH  22  24
ENDBRANCH  21  22
ENDBRANCH  14  21
ENDBRANCH   1  20
BRANCH  12  27
ATOM     27  C   UNL     1       1.273   9.331  19.480  0.00  0.00    +0.000 C 
BRANCH  27  28
ATOM     28  C   UNL     1       0.525   9.815  20.702  0.00  0.00    +0.000 A 
ATOM     29  C   UNL     1       0.144   8.938  21.726  0.00  0.00    +0.000 A 
ATOM     30  C   UNL     1      -0.550   9.412  22.844  0.00  0.00    +0.000 A 
ATOM     31  C   UNL     1      -0.870  10.765  22.950  0.00  0.00    +0.000 A 
ATOM     32  C   UNL     1      -0.496  11.647  21.940  0.00  0.00    +0.000 A 
ATOM     33  C   UNL     1       0.199  11.176  20.824  0.00  0.00    +0.000 A 
ENDBRANCH  27  28
ENDBRANCH  12  27
TORSDOF 7
ENDMDL
MODEL 3
REMARK VINA RESULT:      -7.7      4.925      9.974
REMARK  Name = 
REMARK  7 active torsions:
REMARK  status: ('A' for Active; 'I' for Inactive)
REMARK    1  A    between atoms: C_2  and  O_3
REMARK    2  A    between atoms: C_2  and  C_4
REMARK    3  A    between atoms: C_4  and  O_5
REMARK    4  A    between atoms: O_5  and  C_6
REMARK    5  A    between atoms: C_12  and  C_13
REMARK    6  A    between atoms: N_24  and  C_25
REMARK    7  A    between atoms: C_25  and  C_26
REMARK                            x       y       z     vdW  Elec       q    Type
REMARK                         _______ _______ _______ _____ _____    ______ ____
ROOT
ATOM      1  C   UNL     1      -0.014  11.284  18.651  0.00  0.00    +0.000 C 
ATOM      2  C   UNL     1       0.227  12.425  19.641  0.00  0.00    +0.000 A 
ATOM      3  S   UNL     1       0.353  14.087  19.237  0.00  0.00    +0.000 S 
ATOM      4  C   UNL     1       0.572  14.475  20.891  0.00  0.00    +0.000 A 
ATOM      5  N   UNL     1       0.645  13.455  21.716  0.00  0.00    +0.000 NA
ATOM      6  C   UNL     1       0.489  12.290  20.997  0.00  0.00    +0.000 A 
ATOM      7  C   UNL     1       0.633  10.973  21.662  0.00  0.00    +0.000 C 
ATOM      8  C   UNL     1      -0.016   9.900  20.793  0.00  0.00    +0.000 C 
ATOM      9  N   UNL     1       0.389  10.015  19.364  0.00  0.00    +0.000 N 
ATOM     10  C   UNL     1       1.257   9.146  18.714  0.00  0.00    +0.000 C 
ATOM     11  O   UNL     1       1.656   9.346  17.571  0.00  0.00    +0.000 OA
ATOM     12  N   UNL     1       1.668   8.073  19.452  0.00  0.00    +0.000 N 
ATOM     13  H   UNL     1       1.021   7.684  20.113  0.00  0.00    +0.000 HD
ENDROOT
BRANCH   1  20
ATOM     14  C   UNL     1      -2.584  11.636  18.850  0.00  0.00    +0.000 A 
ATOM     15  C   UNL     1      -3.886  11.409  18.366  0.00  0.00    +0.000 A 
ATOM     16  C   UNL     1      -4.095  10.907  17.085  0.00  0.00    +0.000 A 
ATOM     17  C   UNL     1      -3.002  10.628  16.282  0.00  0.00    +0.000 A 
ATOM     18 CL   UNL     1      -3.241  10.089  14.667  0.00  0.00    +0.000 Cl
ATOM     19  C   UNL     1      -1.707  10.778  16.779  0.00  0.00    +0.000 A 
ATOM     20  C   UNL     1      -1.458  11.220  18.096  0.00  0.00    +0.000 A 
BRANCH  14  21
ATOM     21  O   UNL     1      -2.360  12.291  20.037  0.00  0.00    +0.000 OA
BRANCH  21  22
ATOM     22  C   UNL     1      -3.506  12.922  20.624  0.00  0.00    +0.000 C 
BRANCH  22  24
ATOM     23  O   UNL     1      -4.484  12.310  22.752  0.00  0.00    +0.000 OA
ATOM     24  C   UNL     1      -3.513  12.713  22.128  0.00  0.00    +0.000 C 
BRANCH  24  25
ATOM     25  O   UNL     1      -2.327  12.990  22.718  0.00  0.00    +0.000 OA
ATOM     26  H   UNL     1      -1.679  12.280  22.520  0.00  0.00    +0.000 HD
ENDBRANCH  24  25
ENDBRANCH  22  24
ENDBRANCH  21  22
ENDBRANCH  14  21
ENDBRANCH   1  20
BRANCH  12  27
ATOM     27  C   UNL     1       2.644   7.115  18.966  0.00  0.00    +0.000 C 
BRANCH  27  28
ATOM     28  C   UNL     1       2.121   5.708  19.140  0.00  0.00    +0.000 A 
ATOM     29  C   UNL     1       1.727   5.219  20.393  0.00  0.00    +0.000 A 
ATOM     30  C   UNL     1       1.249   3.911  20.525  0.00  0.00    +0.000 A 
ATOM     31  C   UNL     1       1.159   3.080  19.410  0.00  0.00    +0.000 A 
ATOM     32  C   UNL     1       1.546   3.554  18.159  0.00  0.00    +0.000 A 
ATOM     33  C   UNL     1       2.021   4.860  18.024  0.00  0.00    +0.000 A 
ENDBRANCH  27  28
ENDBRANCH  12  27
TORSDOF 7
ENDMDL
MODEL 4
REMARK VINA RESULT:      -7.6      5.039     10.094
REMARK  Name = 
REMARK  7 active torsions:
REMARK  status: ('A' for Active; 'I' for Inactive)
REMARK    1  A    between atoms: C_2  and  O_3
REMARK    2  A    between atoms: C_2  and  C_4
REMARK    3  A    between atoms: C_4  and  O_5
REMARK    4  A    between atoms: O_5  and  C_6
REMARK    5  A    between atoms: C_12  and  C_13
REMARK    6  A    between atoms: N_24  and  C_25
REMARK    7  A    between atoms: C_25  and  C_26
REMARK                            x       y       z     vdW  Elec       q    Type
REMARK                         _______ _______ _______ _____ _____    ______ ____
ROOT
ATOM      1  C   UNL     1      -0.195  11.398  18.825  0.00  0.00    +0.000 C 
ATOM      2  C   UNL     1      -0.050  12.500  19.878  0.00  0.00    +0.000 A 
ATOM      3  S   UNL     1       0.042  14.181  19.557  0.00  0.00    +0.000 S 
ATOM      4  C   UNL     1       0.152  14.498  21.236  0.00  0.00    +0.000 A 
ATOM      5  N   UNL     1       0.211  13.444  22.018  0.00  0.00    +0.000 NA
ATOM      6  C   UNL     1       0.137  12.309  21.240  0.00  0.00    +0.000 A 
ATOM      7  C   UNL     1       0.286  10.968  21.853  0.00  0.00    +0.000 C 
ATOM      8  C   UNL     1      -0.274   9.917  20.900  0.00  0.00    +0.000 C 
ATOM      9  N   UNL     1       0.209  10.111  19.504  0.00  0.00    +0.000 N 
ATOM     10  C   UNL     1       1.141   9.300  18.869  0.00  0.00    +0.000 C 
ATOM     11  O   UNL     1       1.599   9.565  17.762  0.00  0.00    +0.000 OA
ATOM     12  N   UNL     1       1.545   8.207  19.581  0.00  0.00    +0.000 N 
ATOM     13  H   UNL     1       0.874   7.768  20.185  0.00  0.00    +0.000 HD
ENDROOT
BRANCH   1  20
ATOM     14  C   UNL     1      -2.778  11.698  18.873  0.00  0.00    +0.000 A 
ATOM     15  C   UNL     1      -4.045  11.454  18.308  0.00  0.00    +0.000 A 
ATOM     16  C   UNL     1      -4.166  10.967  17.010  0.00  0.00    +0.000 A 
ATOM     17  C   UNL     1      -3.021  10.721  16.271  0.00  0.00    +0.000 A 
ATOM     18 CL   UNL     1      -3.151  10.202  14.637  0.00  0.00    +0.000 Cl
ATOM     19  C   UNL     1      -1.762  10.888  16.848  0.00  0.00    +0.000 A 
ATOM     20  C   UNL     1      -1.602  11.315  18.183  0.00  0.00    +0.000 A 
BRANCH  14  21
ATOM     21  O   UNL     1      -2.640  12.339  20.080  0.00  0.00    +0.000 OA
BRANCH  21  22
ATOM     22  C   UNL     1      -3.780  13.090  20.520  0.00  0.00    +0.000 C 
BRANCH  22  24
ATOM     23  O   UNL     1      -3.419  12.766  22.892  0.00  0.00    +0.000 OA
ATOM     24  C   UNL     1      -4.170  12.682  21.930  0.00  0.00    +0.000 C 
BRANCH  24  25
ATOM     25  O   UNL     1      -5.444  12.237  22.032  0.00  0.00    +0.000 OA
ATOM     26  H   UNL     1      -5.599  11.866  22.928  0.00  0.00    +0.000 HD
ENDBRANCH  24  25
ENDBRANCH  22  24
ENDBRANCH  21  22
ENDBRANCH  14  21
ENDBRANCH   1  20
BRANCH  12  27
ATOM     27  C   UNL     1       2.580   7.304  19.112  0.00  0.00    +0.000 C 
BRANCH  27  28
ATOM     28  C   UNL     1       2.090   5.876  19.179  0.00  0.00    +0.000 A 
ATOM     29  C   UNL     1       2.012   5.070  18.035  0.00  0.00    +0.000 A 
ATOM     30  C   UNL     1       1.552   3.752  18.126  0.00  0.00    +0.000 A 
ATOM     31  C   UNL     1       1.166   3.226  19.359  0.00  0.00    +0.000 A 
ATOM     32  C   UNL     1       1.241   4.016  20.503  0.00  0.00    +0.000 A 
ATOM     33  C   UNL     1       1.702   5.331  20.415  0.00  0.00    +0.000 A 
ENDBRANCH  27  28
ENDBRANCH  12  27
TORSDOF 7
ENDMDL
MODEL 5
REMARK VINA RESULT:      -7.5      2.546      3.286
REMARK  Name = 
REMARK  7 active torsions:
REMARK  status: ('A' for Active; 'I' for Inactive)
REMARK    1  A    between atoms: C_2  and  O_3
REMARK    2  A    between atoms: C_2  and  C_4
REMARK    3  A    between atoms: C_4  and  O_5
REMARK    4  A    between atoms: O_5  and  C_6
REMARK    5  A    between atoms: C_12  and  C_13
REMARK    6  A    between atoms: N_24  and  C_25
REMARK    7  A    between atoms: C_25  and  C_26
REMARK                            x       y       z     vdW  Elec       q    Type
REMARK                         _______ _______ _______ _____ _____    ______ ____
ROOT
ATOM      1  C   UNL     1       3.047   5.976  18.253  0.00  0.00    +0.000 C 
ATOM      2  C   UNL     1       2.344   4.623  18.393  0.00  0.00    +0.000 A 
ATOM      3  S   UNL     1       2.349   3.371  17.221  0.00  0.00    +0.000 S 
ATOM      4  C   UNL     1       1.399   2.394  18.259  0.00  0.00    +0.000 A 
ATOM      5  N   UNL     1       1.003   2.958  19.378  0.00  0.00    +0.000 NA
ATOM      6  C   UNL     1       1.509   4.239  19.432  0.00  0.00    +0.000 A 
ATOM      7  C   UNL     1       1.134   5.147  20.542  0.00  0.00    +0.000 C 
ATOM      8  C   UNL     1       2.144   6.288  20.618  0.00  0.00    +0.000 C 
ATOM      9  N   UNL     1       2.416   6.886  19.280  0.00  0.00    +0.000 N 
ATOM     10  C   UNL     1       1.966   8.132  18.862  0.00  0.00    +0.000 C 
ATOM     11  O   UNL     1       2.112   8.534  17.712  0.00  0.00    +0.000 OA
ATOM     12  N   UNL     1       1.310   8.863  19.811  0.00  0.00    +0.000 N 
ATOM     13  H   UNL     1       1.607   8.766  20.765  0.00  0.00    +0.000 HD
ENDROOT
BRANCH   1  20
ATOM     14  C   UNL     1       5.239   4.983  19.240  0.00  0.00    +0.000 A 
ATOM     15  C   UNL     1       6.629   5.065  19.450  0.00  0.00    +0.000 A 
ATOM     16  C   UNL     1       7.409   5.955  18.719  0.00  0.00    +0.000 A 
ATOM     17  C   UNL     1       6.803   6.769  17.776  0.00  0.00    +0.000 A 
ATOM     18 CL   UNL     1       7.762   7.814  16.803  0.00  0.00    +0.000 Cl
ATOM     19  C   UNL     1       5.418   6.748  17.616  0.00  0.00    +0.000 A 
ATOM     20  C   UNL     1       4.588   5.906  18.386  0.00  0.00    +0.000 A 
BRANCH  14  21
ATOM     21  O   UNL     1       4.480   3.995  19.821  0.00  0.00    +0.000 OA
BRANCH  21  22
ATOM     22  C   UNL     1       5.013   2.666  19.728  0.00  0.00    +0.000 C 
BRANCH  22  24
ATOM     23  O   UNL     1       5.489   1.119  21.528  0.00  0.00    +0.000 OA
ATOM     24  C   UNL     1       4.699   1.881  20.989  0.00  0.00    +0.000 C 
BRANCH  24  25
ATOM     25  O   UNL     1       3.462   2.123  21.483  0.00  0.00    +0.000 OA
ATOM     26  H   UNL     1       3.386   3.064  21.754  0.00  0.00    +0.000 HD
ENDBRANCH  24  25
ENDBRANCH  22  24
ENDBRANCH  21  22
ENDBRANCH  14  21
ENDBRANCH   1  20
BRANCH  12  27
ATOM     27  C   UNL     1       0.692  10.144  19.524  0.00  0.00    +0.000 C 
BRANCH  27  28
ATOM     28  C   UNL     1      -0.106  10.613  20.720  0.00  0.00    +0.000 A 
ATOM     29  C   UNL     1      -0.925  11.749  20.658  0.00  0.00    +0.000 A 
ATOM     30  C   UNL     1      -1.650  12.163  21.781  0.00  0.00    +0.000 A 
ATOM     31  C   UNL     1      -1.563  11.448  22.975  0.00  0.00    +0.000 A 
ATOM     32  C   UNL     1      -0.754  10.317  23.049  0.00  0.00    +0.000 A 
ATOM     33  C   UNL     1      -0.032   9.901  21.929  0.00  0.00    +0.000 A 
ENDBRANCH  27  28
ENDBRANCH  12  27
TORSDOF 7
ENDMDL
MODEL 6
REMARK VINA RESULT:      -7.5      0.916      1.151
REMARK  Name = 
REMARK  7 active torsions:
REMARK  status: ('A' for Active; 'I' for Inactive)
REMARK    1  A    between atoms: C_2  and  O_3
REMARK    2  A    between atoms: C_2  and  C_4
REMARK    3  A    between atoms: C_4  and  O_5
REMARK    4  A    between atoms: O_5  and  C_6
REMARK    5  A    between atoms: C_12  and  C_13
REMARK    6  A    between atoms: N_24  and  C_25
REMARK    7  A    between atoms: C_25  and  C_26
REMARK                            x       y       z     vdW  Elec       q    Type
REMARK                         _______ _______ _______ _____ _____    ______ ____
ROOT
ATOM      1  C   UNL     1       3.562   5.395  17.821  0.00  0.00    +0.000 C 
ATOM      2  C   UNL     1       2.783   4.162  18.287  0.00  0.00    +0.000 A 
ATOM      3  S   UNL     1       2.612   2.699  17.410  0.00  0.00    +0.000 S 
ATOM      4  C   UNL     1       1.683   2.039  18.688  0.00  0.00    +0.000 A 
ATOM      5  N   UNL     1       1.415   2.852  19.684  0.00  0.00    +0.000 NA
ATOM      6  C   UNL     1       2.008   4.071  19.435  0.00  0.00    +0.000 A 
ATOM      7  C   UNL     1       1.783   5.216  20.348  0.00  0.00    +0.000 C 
ATOM      8  C   UNL     1       2.870   6.261  20.117  0.00  0.00    +0.000 C 
ATOM      9  N   UNL     1       3.077   6.546  18.670  0.00  0.00    +0.000 N 
ATOM     10  C   UNL     1       2.679   7.711  18.026  0.00  0.00    +0.000 C 
ATOM     11  O   UNL     1       2.762   7.854  16.810  0.00  0.00    +0.000 OA
ATOM     12  N   UNL     1       2.150   8.674  18.838  0.00  0.00    +0.000 N 
ATOM     13  H   UNL     1       2.515   8.752  19.770  0.00  0.00    +0.000 HD
ENDROOT
BRANCH   1  20
ATOM     14  C   UNL     1       5.860   4.822  16.744  0.00  0.00    +0.000 A 
ATOM     15  C   UNL     1       7.230   4.529  16.878  0.00  0.00    +0.000 A 
ATOM     16  C   UNL     1       7.897   4.767  18.076  0.00  0.00    +0.000 A 
ATOM     17  C   UNL     1       7.196   5.298  19.145  0.00  0.00    +0.000 A 
ATOM     18 CL   UNL     1       8.020   5.680  20.606  0.00  0.00    +0.000 Cl
ATOM     19  C   UNL     1       5.823   5.521  19.046  0.00  0.00    +0.000 A 
ATOM     20  C   UNL     1       5.101   5.228  17.869  0.00  0.00    +0.000 A 
BRANCH  14  21
ATOM     21  O   UNL     1       5.226   4.760  15.526  0.00  0.00    +0.000 OA
BRANCH  21  22
ATOM     22  C   UNL     1       5.499   3.589  14.742  0.00  0.00    +0.000 C 
BRANCH  22  24
ATOM     23  O   UNL     1       7.088   4.911  13.481  0.00  0.00    +0.000 OA
ATOM     24  C   UNL     1       6.331   3.951  13.525  0.00  0.00    +0.000 C 
BRANCH  24  25
ATOM     25  O   UNL     1       6.178   3.092  12.490  0.00  0.00    +0.000 OA
ATOM     26  H   UNL     1       6.983   2.538  12.391  0.00  0.00    +0.000 HD
ENDBRANCH  24  25
ENDBRANCH  22  24
ENDBRANCH  21  22
ENDBRANCH  14  21
ENDBRANCH   1  20
BRANCH  12  27
ATOM     27  C   UNL     1       1.599   9.914  18.326  0.00  0.00    +0.000 C 
BRANCH  27  28
ATOM     28  C   UNL     1       0.619  10.495  19.319  0.00  0.00    +0.000 A 
ATOM     29  C   UNL     1      -0.449  11.306  18.911  0.00  0.00    +0.000 A 
ATOM     30  C   UNL     1      -1.340  11.832  19.853  0.00  0.00    +0.000 A 
ATOM     31  C   UNL     1      -1.174  11.554  21.209  0.00  0.00    +0.000 A 
ATOM     32  C   UNL     1      -0.118  10.748  21.627  0.00  0.00    +0.000 A 
ATOM     33  C   UNL     1       0.771  10.220  20.688  0.00  0.00    +0.000 A 
ENDBRANCH  27  28
ENDBRANCH  12  27
TORSDOF 7
ENDMDL
MODEL 7
REMARK VINA RESULT:      -7.4      5.172      9.743
REMARK  Name = 
REMARK  7 active torsions:
REMARK  status: ('A' for Active; 'I' for Inactive)
REMARK    1  A    between atoms: C_2  and  O_3
REMARK    2  A    between atoms: C_2  and  C_4
REMARK    3  A    between atoms: C_4  and  O_5
REMARK    4  A    between atoms: O_5  and  C_6
REMARK    5  A    between atoms: C_12  and  C_13
REMARK    6  A    between atoms: N_24  and  C_25
REMARK    7  A    between atoms: C_25  and  C_26
REMARK                            x       y       z     vdW  Elec       q    Type
REMARK                         _______ _______ _______ _____ _____    ______ ____
ROOT
ATOM      1  C   UNL     1      -0.479  10.811  20.396  0.00  0.00    +0.000 C 
ATOM      2  C   UNL     1      -1.416  11.003  19.200  0.00  0.00    +0.000 A 
ATOM      3  S   UNL     1      -2.981  11.700  19.260  0.00  0.00    +0.000 S 
ATOM      4  C   UNL     1      -3.143  11.487  17.569  0.00  0.00    +0.000 A 
ATOM      5  N   UNL     1      -2.157  10.858  16.971  0.00  0.00    +0.000 NA
ATOM      6  C   UNL     1      -1.195  10.548  17.908  0.00  0.00    +0.000 A 
ATOM      7  C   UNL     1      -0.012   9.740  17.529  0.00  0.00    +0.000 C 
ATOM      8  C   UNL     1       1.078   9.924  18.581  0.00  0.00    +0.000 C 
ATOM      9  N   UNL     1       0.548   9.790  19.967  0.00  0.00    +0.000 N 
ATOM     10  C   UNL     1       0.782   8.706  20.803  0.00  0.00    +0.000 C 
ATOM     11  O   UNL     1       0.229   8.582  21.892  0.00  0.00    +0.000 OA
ATOM     12  N   UNL     1       1.640   7.765  20.311  0.00  0.00    +0.000 N 
ATOM     13  H   UNL     1       2.394   8.078  19.726  0.00  0.00    +0.000 HD
ENDROOT
BRANCH   1  20
ATOM     14  C   UNL     1      -0.414  12.898  21.947  0.00  0.00    +0.000 A 
ATOM     15  C   UNL     1       0.119  14.160  22.272  0.00  0.00    +0.000 A 
ATOM     16  C   UNL     1       1.302  14.606  21.689  0.00  0.00    +0.000 A 
ATOM     17  C   UNL     1       1.955  13.793  20.778  0.00  0.00    +0.000 A 
ATOM     18 CL   UNL     1       3.461  14.290  20.113  0.00  0.00    +0.000 Cl
ATOM     19  C   UNL     1       1.395  12.575  20.394  0.00  0.00    +0.000 A 
ATOM     20  C   UNL     1       0.164  12.121  20.913  0.00  0.00    +0.000 A 
BRANCH  14  21
ATOM     21  O   UNL     1      -1.478  12.367  22.636  0.00  0.00    +0.000 OA
BRANCH  21  22
ATOM     22  C   UNL     1      -2.553  13.275  22.916  0.00  0.00    +0.000 C 
BRANCH  22  24
ATOM     23  O   UNL     1      -4.011  12.029  24.393  0.00  0.00    +0.000 OA
ATOM     24  C   UNL     1      -3.810  12.508  23.286  0.00  0.00    +0.000 C 
BRANCH  24  25
ATOM     25  O   UNL     1      -4.709  12.423  22.277  0.00  0.00    +0.000 OA
ATOM     26  H   UNL     1      -5.212  11.583  22.347  0.00  0.00    +0.000 HD
ENDBRANCH  24  25
ENDBRANCH  22  24
ENDBRANCH  21  22
ENDBRANCH  14  21
ENDBRANCH   1  20
BRANCH  12  27
ATOM     27  C   UNL     1       1.927   6.525  21.008  0.00  0.00    +0.000 C 
BRANCH  27  28
ATOM     28  C   UNL     1       1.739   5.351  20.074  0.00  0.00    +0.000 A 
ATOM     29  C   UNL     1       2.164   5.396  18.739  0.00  0.00    +0.000 A 
ATOM     30  C   UNL     1       1.975   4.296  17.897  0.00  0.00    +0.000 A 
ATOM     31  C   UNL     1       1.359   3.141  18.378  0.00  0.00    +0.000 A 
ATOM     32  C   UNL     1       0.933   3.083  19.702  0.00  0.00    +0.000 A 
ATOM     33  C   UNL     1       1.124   4.179  20.546  0.00  0.00    +0.000 A 
ENDBRANCH  27  28
ENDBRANCH  12  27
TORSDOF 7
ENDMDL
MODEL 8
REMARK VINA RESULT:      -7.3      6.332     10.749
REMARK  Name = 
REMARK  7 active torsions:
REMARK  status: ('A' for Active; 'I' for Inactive)
REMARK    1  A    between atoms: C_2  and  O_3
REMARK    2  A    between atoms: C_2  and  C_4
REMARK    3  A    between atoms: C_4  and  O_5
REMARK    4  A    between atoms: O_5  and  C_6
REMARK    5  A    between atoms: C_12  and  C_13
REMARK    6  A    between atoms: N_24  and  C_25
REMARK    7  A    between atoms: C_25  and  C_26
REMARK                            x       y       z     vdW  Elec       q    Type
REMARK                         _______ _______ _______ _____ _____    ______ ____
ROOT
ATOM      1  C   UNL     1      -2.689  13.173  20.157  0.00  0.00    +0.000 C 
ATOM      2  C   UNL     1      -2.504  14.202  21.275  0.00  0.00    +0.000 A 
ATOM      3  S   UNL     1      -3.114  15.805  21.266  0.00  0.00    +0.000 S 
ATOM      4  C   UNL     1      -2.444  16.070  22.820  0.00  0.00    +0.000 A 
ATOM      5  N   UNL     1      -1.726  15.086  23.313  0.00  0.00    +0.000 NA
ATOM      6  C   UNL     1      -1.729  14.041  22.414  0.00  0.00    +0.000 A 
ATOM      7  C   UNL     1      -0.907  12.833  22.665  0.00  0.00    +0.000 C 
ATOM      8  C   UNL     1      -1.423  11.689  21.799  0.00  0.00    +0.000 C 
ATOM      9  N   UNL     1      -1.642  12.109  20.387  0.00  0.00    +0.000 N 
ATOM     10  C   UNL     1      -0.837  11.740  19.316  0.00  0.00    +0.000 C 
ATOM     11  O   UNL     1      -0.985  12.205  18.190  0.00  0.00    +0.000 OA
ATOM     12  N   UNL     1       0.159  10.855  19.613  0.00  0.00    +0.000 N 
ATOM     13  H   UNL     1      -0.022  10.169  20.323  0.00  0.00    +0.000 HD
ENDROOT
BRANCH   1  20
ATOM     14  C   UNL     1      -4.617  11.973  18.888  0.00  0.00    +0.000 A 
ATOM     15  C   UNL     1      -5.973  11.603  18.798  0.00  0.00    +0.000 A 
ATOM     16  C   UNL     1      -6.814  11.701  19.902  0.00  0.00    +0.000 A 
ATOM     17  C   UNL     1      -6.305  12.170  21.101  0.00  0.00    +0.000 A 
ATOM     18 CL   UNL     1      -7.306  12.217  22.498  0.00  0.00    +0.000 Cl
ATOM     19  C   UNL     1      -4.983  12.610  21.179  0.00  0.00    +0.000 A 
ATOM     20  C   UNL     1      -4.120  12.589  20.063  0.00  0.00    +0.000 A 
BRANCH  14  21
ATOM     21  O   UNL     1      -3.733  11.722  17.867  0.00  0.00    +0.000 OA
BRANCH  21  22
ATOM     22  C   UNL     1      -4.321  11.464  16.584  0.00  0.00    +0.000 C 
BRANCH  22  24
ATOM     23  O   UNL     1      -3.482  10.716  14.440  0.00  0.00    +0.000 OA
ATOM     24  C   UNL     1      -3.287  10.884  15.636  0.00  0.00    +0.000 C 
BRANCH  24  25
ATOM     25  O   UNL     1      -2.109  10.590  16.233  0.00  0.00    +0.000 OA
ATOM     26  H   UNL     1      -1.555  10.043  15.634  0.00  0.00    +0.000 HD
ENDBRANCH  24  25
ENDBRANCH  22  24
ENDBRANCH  21  22
ENDBRANCH  14  21
ENDBRANCH   1  20
BRANCH  12  27
ATOM     27  C   UNL     1       1.149  10.433  18.640  0.00  0.00    +0.000 C 
BRANCH  27  28
ATOM     28  C   UNL     1       1.620   9.032  18.954  0.00  0.00    +0.000 A 
ATOM     29  C   UNL     1       2.280   8.245  17.999  0.00  0.00    +0.000 A 
ATOM     30  C   UNL     1       2.703   6.951  18.317  0.00  0.00    +0.000 A 
ATOM     31  C   UNL     1       2.472   6.428  19.589  0.00  0.00    +0.000 A 
ATOM     32  C   UNL     1       1.819   7.200  20.546  0.00  0.00    +0.000 A 
ATOM     33  C   UNL     1       1.398   8.493  20.232  0.00  0.00    +0.000 A 
ENDBRANCH  27  28
ENDBRANCH  12  27
TORSDOF 7
ENDMDL
MODEL 9
REMARK VINA RESULT:      -7.3      5.137      9.390
REMARK  Name = 
REMARK  7 active torsions:
REMARK  status: ('A' for Active; 'I' for Inactive)
REMARK    1  A    between atoms: C_2  and  O_3
REMARK    2  A    between atoms: C_2  and  C_4
REMARK    3  A    between atoms: C_4  and  O_5
REMARK    4  A    between atoms: O_5  and  C_6
REMARK    5  A    between atoms: C_12  and  C_13
REMARK    6  A    between atoms: N_24  and  C_25
REMARK    7  A    between atoms: C_25  and  C_26
REMARK                            x       y       z     vdW  Elec       q    Type
REMARK                         _______ _______ _______ _____ _____    ______ ____
ROOT
ATOM      1  C   UNL     1      -0.371  11.224  19.828  0.00  0.00    +0.000 C 
ATOM      2  C   UNL     1      -1.635  11.226  18.964  0.00  0.00    +0.000 A 
ATOM      3  S   UNL     1      -3.107  12.014  19.352  0.00  0.00    +0.000 S 
ATOM      4  C   UNL     1      -3.787  11.474  17.876  0.00  0.00    +0.000 A 
ATOM      5  N   UNL     1      -3.033  10.680  17.151  0.00  0.00    +0.000 NA
ATOM      6  C   UNL     1      -1.825  10.508  17.791  0.00  0.00    +0.000 A 
ATOM      7  C   UNL     1      -0.814   9.571  17.248  0.00  0.00    +0.000 C 
ATOM      8  C   UNL     1       0.548   9.898  17.852  0.00  0.00    +0.000 C 
ATOM      9  N   UNL     1       0.478  10.078  19.329  0.00  0.00    +0.000 N 
ATOM     10  C   UNL     1       0.968   9.173  20.262  0.00  0.00    +0.000 C 
ATOM     11  O   UNL     1       0.783   9.304  21.468  0.00  0.00    +0.000 OA
ATOM     12  N   UNL     1       1.636   8.102  19.740  0.00  0.00    +0.000 N 
ATOM     13  H   UNL     1       2.167   8.246  18.900  0.00  0.00    +0.000 HD
ENDROOT
BRANCH   1  20
ATOM     14  C   UNL     1      -0.063  13.702  20.554  0.00  0.00    +0.000 A 
ATOM     15  C   UNL     1       0.577  14.947  20.402  0.00  0.00    +0.000 A 
ATOM     16  C   UNL     1       1.749  15.062  19.661  0.00  0.00    +0.000 A 
ATOM     17  C   UNL     1       2.286  13.932  19.067  0.00  0.00    +0.000 A 
ATOM     18 CL   UNL     1       3.779  14.036  18.220  0.00  0.00    +0.000 Cl
ATOM     19  C   UNL     1       1.619  12.709  19.149  0.00  0.00    +0.000 A 
ATOM     20  C   UNL     1       0.394  12.570  19.836  0.00  0.00    +0.000 A 
BRANCH  14  21
ATOM     21  O   UNL     1      -1.117  13.536  21.421  0.00  0.00    +0.000 OA
BRANCH  21  22
ATOM     22  C   UNL     1      -0.764  13.217  22.774  0.00  0.00    +0.000 C 
BRANCH  22  24
ATOM     23  O   UNL     1      -2.608  11.762  23.360  0.00  0.00    +0.000 OA
ATOM     24  C   UNL     1      -1.405  11.906  23.193  0.00  0.00    +0.000 C 
BRANCH  24  25
ATOM     25  O   UNL     1      -0.519  10.894  23.341  0.00  0.00    +0.000 OA
ATOM     26  H   UNL     1      -0.898  10.061  22.983  0.00  0.00    +0.000 HD
ENDBRANCH  24  25
ENDBRANCH  22  24
ENDBRANCH  21  22
ENDBRANCH  14  21
ENDBRANCH   1  20
BRANCH  12  27
ATOM     27  C   UNL     1       2.133   7.013  20.560  0.00  0.00    +0.000 C 
BRANCH  27  28
ATOM     28  C   UNL     1       1.858   5.689  19.884  0.00  0.00    +0.000 A 
ATOM     29  C   UNL     1       1.287   4.613  20.579  0.00  0.00    +0.000 A 
ATOM     30  C   UNL     1       1.046   3.398  19.930  0.00  0.00    +0.000 A 
ATOM     31  C   UNL     1       1.372   3.244  18.583  0.00  0.00    +0.000 A 
ATOM     32  C   UNL     1       1.938   4.306  17.881  0.00  0.00    +0.000 A 
ATOM     33  C   UNL     1       2.177   5.521  18.527  0.00  0.00    +0.000 A 
ENDBRANCH  27  28
ENDBRANCH  12  27
TORSDOF 7
ENDMDL
