MODEL 1
REMARK VINA RESULT:      -7.7      0.000      0.000
REMARK  Name = 
REMARK  7 active torsions:
REMARK  status: ('A' for Active; 'I' for Inactive)
REMARK    1  A    between atoms: C_2  and  C_3
REMARK    2  A    between atoms: C_6  and  S_7
REMARK    3  A    between atoms: S_7  and  N_10
REMARK    4  A    between atoms: N_18  and  C_19
REMARK    5  A    between atoms: N_18  and  C_25
REMARK    6  A    between atoms: C_19  and  C_20
REMARK    7  A    between atoms: C_25  and  C_26
REMARK                            x       y       z     vdW  Elec       q    Type
REMARK                         _______ _______ _______ _____ _____    ______ ____
ROOT
ATOM      1  O   UNL     1       1.638  11.663  19.338  0.00  0.00    +0.000 OA
ATOM      2  C   UNL     1       0.802  10.751  19.254  0.00  0.00    +0.000 C 
ATOM      3  N   UNL     1      -0.570  11.008  19.432  0.00  0.00    +0.000 N 
ENDROOT
BRANCH   2   4
ATOM      4  C   UNL     1       1.350   9.365  18.992  0.00  0.00    +0.000 A 
ATOM      5  C   UNL     1       1.622   8.433  20.003  0.00  0.00    +0.000 A 
ATOM      6  C   UNL     1       2.285   7.223  19.761  0.00  0.00    +0.000 A 
ATOM      7  C   UNL     1       2.760   6.935  18.492  0.00  0.00    +0.000 A 
ATOM      8  C   UNL     1       2.505   7.843  17.450  0.00  0.00    +0.000 A 
ATOM      9  C   UNL     1       1.798   9.044  17.699  0.00  0.00    +0.000 A 
BRANCH   7  10
ATOM     10  S   UNL     1       4.098   5.748  18.348  0.00  0.00    +0.000 S 
ATOM     11  O   UNL     1       4.552   5.507  19.700  0.00  0.00    +0.000 OA
ATOM     12  O   UNL     1       3.616   4.655  17.531  0.00  0.00    +0.000 OA
BRANCH  10  13
ATOM     13  N   UNL     1       5.380   6.499  17.496  0.00  0.00    +0.000 NA
ATOM     14  C   UNL     1       5.487   6.221  16.014  0.00  0.00    +0.000 C 
ATOM     15  C   UNL     1       6.205   4.885  15.678  0.00  0.00    +0.000 C 
ATOM     16  O   UNL     1       7.381   4.620  16.460  0.00  0.00    +0.000 OA
ATOM     17  C   UNL     1       7.110   4.761  17.861  0.00  0.00    +0.000 C 
ATOM     18  C   UNL     1       6.721   6.216  18.122  0.00  0.00    +0.000 C 
ENDBRANCH  10  13
ENDBRANCH   7  10
ENDBRANCH   2   4
BRANCH   3  19
ATOM     19  C   UNL     1      -1.647  10.050  19.204  0.00  0.00    +0.000 C 
BRANCH  19  20
ATOM     20  C   UNL     1      -2.352  10.333  17.909  0.00  0.00    +0.000 A 
ATOM     21  C   UNL     1      -2.054  10.139  16.569  0.00  0.00    +0.000 A 
ATOM     22  C   UNL     1      -3.076  10.781  15.829  0.00  0.00    +0.000 A 
ATOM     23  C   UNL     1      -3.943  11.307  16.755  0.00  0.00    +0.000 A 
ATOM     24  O   UNL     1      -3.514  11.045  18.016  0.00  0.00    +0.000 OA
ENDBRANCH  19  20
ENDBRANCH   3  19
BRANCH   3  25
ATOM     25  C   UNL     1      -0.985  12.336  19.902  0.00  0.00    +0.000 C 
BRANCH  25  26
ATOM     26  C   UNL     1      -1.888  12.278  21.105  0.00  0.00    +0.000 A 
ATOM     27  C   UNL     1      -3.175  12.770  21.222  0.00  0.00    +0.000 A 
ATOM     28  C   UNL     1      -3.684  12.668  22.551  0.00  0.00    +0.000 A 
ATOM     29  C   UNL     1      -2.780  12.081  23.406  0.00  0.00    +0.000 A 
ATOM     30  S   UNL     1      -1.322  11.677  22.612  0.00  0.00    +0.000 S 
ENDBRANCH  25  26
ENDBRANCH   3  25
TORSDOF 7
ENDMDL
MODEL 2
REMARK VINA RESULT:      -7.6      2.866      9.164
REMARK  Name = 
REMARK  7 active torsions:
REMARK  status: ('A' for Active; 'I' for Inactive)
REMARK    1  A    between atoms: C_2  and  C_3
REMARK    2  A    between atoms: C_6  and  S_7
REMARK    3  A    between atoms: S_7  and  N_10
REMARK    4  A    between atoms: N_18  and  C_19
REMARK    5  A    between atoms: N_18  and  C_25
REMARK    6  A    between atoms: C_19  and  C_20
REMARK    7  A    between atoms: C_25  and  C_26
REMARK                            x       y       z     vdW  Elec       q    Type
REMARK                         _______ _______ _______ _____ _____    ______ ____
ROOT
ATOM      1  O   UNL     1       5.056   6.414  18.773  0.00  0.00    +0.000 OA
ATOM      2  C   UNL     1       3.885   6.057  18.572  0.00  0.00    +0.000 C 
ATOM      3  N   UNL     1       3.590   4.747  18.150  0.00  0.00    +0.000 N 
ENDROOT
BRANCH   2   4
ATOM      4  C   UNL     1       2.821   7.115  18.771  0.00  0.00    +0.000 A 
ATOM      5  C   UNL     1       2.541   8.120  17.836  0.00  0.00    +0.000 A 
ATOM      6  C   UNL     1       1.675   9.188  18.106  0.00  0.00    +0.000 A 
ATOM      7  C   UNL     1       1.106   9.318  19.363  0.00  0.00    +0.000 A 
ATOM      8  C   UNL     1       1.361   8.328  20.328  0.00  0.00    +0.000 A 
ATOM      9  C   UNL     1       2.205   7.231  20.029  0.00  0.00    +0.000 A 
BRANCH   7  10
ATOM     10  S   UNL     1       0.550  10.947  19.866  0.00  0.00    +0.000 S 
ATOM     11  O   UNL     1      -0.893  10.866  19.924  0.00  0.00    +0.000 OA
ATOM     12  O   UNL     1       1.311  11.317  21.041  0.00  0.00    +0.000 OA
BRANCH  10  13
ATOM     13  N   UNL     1       0.959  12.052  18.622  0.00  0.00    +0.000 NA
ATOM     14  C   UNL     1       2.277  12.781  18.744  0.00  0.00    +0.000 C 
ATOM     15  C   UNL     1       2.220  14.028  19.669  0.00  0.00    +0.000 C 
ATOM     16  O   UNL     1       1.054  14.850  19.500  0.00  0.00    +0.000 OA
ATOM     17  C   UNL     1      -0.144  14.064  19.563  0.00  0.00    +0.000 C 
ATOM     18  C   UNL     1      -0.122  13.077  18.396  0.00  0.00    +0.000 C 
ENDBRANCH  10  13
ENDBRANCH   7  10
ENDBRANCH   2   4
BRANCH   3  19
ATOM     19  C   UNL     1       2.251   4.177  18.034  0.00  0.00    +0.000 C 
BRANCH  19  20
ATOM     20  C   UNL     1       1.819   3.557  19.331  0.00  0.00    +0.000 A 
ATOM     21  C   UNL     1       0.958   3.925  20.353  0.00  0.00    +0.000 A 
ATOM     22  C   UNL     1       1.118   2.968  21.384  0.00  0.00    +0.000 A 
ATOM     23  C   UNL     1       2.047   2.066  20.924  0.00  0.00    +0.000 A 
ATOM     24  O   UNL     1       2.479   2.413  19.685  0.00  0.00    +0.000 OA
ENDBRANCH  19  20
ENDBRANCH   3  19
BRANCH   3  25
ATOM     25  C   UNL     1       4.697   3.861  17.769  0.00  0.00    +0.000 C 
BRANCH  25  26
ATOM     26  C   UNL     1       5.394   4.299  16.509  0.00  0.00    +0.000 A 
ATOM     27  C   UNL     1       4.866   4.382  15.234  0.00  0.00    +0.000 A 
ATOM     28  C   UNL     1       5.849   4.699  14.250  0.00  0.00    +0.000 A 
ATOM     29  C   UNL     1       7.097   4.871  14.805  0.00  0.00    +0.000 A 
ATOM     30  S   UNL     1       7.080   4.631  16.497  0.00  0.00    +0.000 S 
ENDBRANCH  25  26
ENDBRANCH   3  25
TORSDOF 7
ENDMDL
MODEL 3
REMARK VINA RESULT:      -7.5      2.702      9.345
REMARK  Name = 
REMARK  7 active torsions:
REMARK  status: ('A' for Active; 'I' for Inactive)
REMARK    1  A    between atoms: C_2  and  C_3
REMARK    2  A    between atoms: C_6  and  S_7
REMARK    3  A    between atoms: S_7  and  N_10
REMARK    4  A    between atoms: N_18  and  C_19
REMARK    5  A    between atoms: N_18  and  C_25
REMARK    6  A    between atoms: C_19  and  C_20
REMARK    7  A    between atoms: C_25  and  C_26
REMARK                            x       y       z     vdW  Elec       q    Type
REMARK                         _______ _______ _______ _____ _____    ______ ____
ROOT
ATOM      1  O   UNL     1       5.152   6.460  18.535  0.00  0.00    +0.000 OA
ATOM      2  C   UNL     1       3.991   6.043  18.402  0.00  0.00    +0.000 C 
ATOM      3  N   UNL     1       3.737   4.696  18.084  0.00  0.00    +0.000 N 
ENDROOT
BRANCH   2   4
ATOM      4  C   UNL     1       2.891   7.070  18.561  0.00  0.00    +0.000 A 
ATOM      5  C   UNL     1       2.551   8.005  17.575  0.00  0.00    +0.000 A 
ATOM      6  C   UNL     1       1.650   9.053  17.800  0.00  0.00    +0.000 A 
ATOM      7  C   UNL     1       1.104   9.239  19.060  0.00  0.00    +0.000 A 
ATOM      8  C   UNL     1       1.418   8.321  20.077  0.00  0.00    +0.000 A 
ATOM      9  C   UNL     1       2.299   7.241  19.825  0.00  0.00    +0.000 A 
BRANCH   7  10
ATOM     10  S   UNL     1       0.495  10.874  19.477  0.00  0.00    +0.000 S 
ATOM     11  O   UNL     1       1.213  11.788  18.615  0.00  0.00    +0.000 OA
ATOM     12  O   UNL     1      -0.950  10.816  19.442  0.00  0.00    +0.000 OA
BRANCH  10  13
ATOM     13  N   UNL     1       0.956  11.214  21.092  0.00  0.00    +0.000 NA
ATOM     14  C   UNL     1      -0.030  10.866  22.184  0.00  0.00    +0.000 C 
ATOM     15  C   UNL     1      -1.131  11.939  22.398  0.00  0.00    +0.000 C 
ATOM     16  O   UNL     1      -0.661  13.297  22.377  0.00  0.00    +0.000 OA
ATOM     17  C   UNL     1       0.132  13.549  21.209  0.00  0.00    +0.000 C 
ATOM     18  C   UNL     1       1.367  12.651  21.275  0.00  0.00    +0.000 C 
ENDBRANCH  10  13
ENDBRANCH   7  10
ENDBRANCH   2   4
BRANCH   3  19
ATOM     19  C   UNL     1       2.420   4.067  18.057  0.00  0.00    +0.000 C 
BRANCH  19  20
ATOM     20  C   UNL     1       2.046   3.547  19.414  0.00  0.00    +0.000 A 
ATOM     21  C   UNL     1       0.928   3.650  20.228  0.00  0.00    +0.000 A 
ATOM     22  C   UNL     1       1.273   3.061  21.468  0.00  0.00    +0.000 A 
ATOM     23  C   UNL     1       2.566   2.618  21.333  0.00  0.00    +0.000 A 
ATOM     24  O   UNL     1       3.044   2.909  20.096  0.00  0.00    +0.000 OA
ENDBRANCH  19  20
ENDBRANCH   3  19
BRANCH   3  25
ATOM     25  C   UNL     1       4.867   3.829  17.729  0.00  0.00    +0.000 C 
BRANCH  25  26
ATOM     26  C   UNL     1       5.507   4.203  16.419  0.00  0.00    +0.000 A 
ATOM     27  C   UNL     1       4.969   4.088  15.151  0.00  0.00    +0.000 A 
ATOM     28  C   UNL     1       5.907   4.405  14.124  0.00  0.00    +0.000 A 
ATOM     29  C   UNL     1       7.129   4.775  14.638  0.00  0.00    +0.000 A 
ATOM     30  S   UNL     1       7.145   4.719  16.346  0.00  0.00    +0.000 S 
ENDBRANCH  25  26
ENDBRANCH   3  25
TORSDOF 7
ENDMDL
MODEL 4
REMARK VINA RESULT:      -7.5      2.139      3.021
REMARK  Name = 
REMARK  7 active torsions:
REMARK  status: ('A' for Active; 'I' for Inactive)
REMARK    1  A    between atoms: C_2  and  C_3
REMARK    2  A    between atoms: C_6  and  S_7
REMARK    3  A    between atoms: S_7  and  N_10
REMARK    4  A    between atoms: N_18  and  C_19
REMARK    5  A    between atoms: N_18  and  C_25
REMARK    6  A    between atoms: C_19  and  C_20
REMARK    7  A    between atoms: C_25  and  C_26
REMARK                            x       y       z     vdW  Elec       q    Type
REMARK                         _______ _______ _______ _____ _____    ______ ____
ROOT
ATOM      1  O   UNL     1       1.321  12.124  19.364  0.00  0.00    +0.000 OA
ATOM      2  C   UNL     1       0.636  11.108  19.173  0.00  0.00    +0.000 C 
ATOM      3  N   UNL     1      -0.769  11.177  19.142  0.00  0.00    +0.000 N 
ENDROOT
BRANCH   2   4
ATOM      4  C   UNL     1       1.398   9.809  19.020  0.00  0.00    +0.000 A 
ATOM      5  C   UNL     1       1.969   9.381  17.814  0.00  0.00    +0.000 A 
ATOM      6  C   UNL     1       2.521   8.104  17.647  0.00  0.00    +0.000 A 
ATOM      7  C   UNL     1       2.458   7.182  18.679  0.00  0.00    +0.000 A 
ATOM      8  C   UNL     1       1.895   7.574  19.905  0.00  0.00    +0.000 A 
ATOM      9  C   UNL     1       1.377   8.881  20.075  0.00  0.00    +0.000 A 
BRANCH   7  10
ATOM     10  S   UNL     1       2.579   5.442  18.256  0.00  0.00    +0.000 S 
ATOM     11  O   UNL     1       1.342   5.120  17.579  0.00  0.00    +0.000 OA
ATOM     12  O   UNL     1       3.850   5.250  17.590  0.00  0.00    +0.000 OA
BRANCH  10  13
ATOM     13  N   UNL     1       2.622   4.546  19.714  0.00  0.00    +0.000 NA
ATOM     14  C   UNL     1       3.665   3.458  19.832  0.00  0.00    +0.000 C 
ATOM     15  C   UNL     1       3.252   2.120  19.161  0.00  0.00    +0.000 C 
ATOM     16  O   UNL     1       1.892   1.722  19.397  0.00  0.00    +0.000 OA
ATOM     17  C   UNL     1       0.984   2.790  19.096  0.00  0.00    +0.000 C 
ATOM     18  C   UNL     1       1.282   3.946  20.052  0.00  0.00    +0.000 C 
ENDBRANCH  10  13
ENDBRANCH   7  10
ENDBRANCH   2   4
BRANCH   3  19
ATOM     19  C   UNL     1      -1.662  10.082  18.774  0.00  0.00    +0.000 C 
BRANCH  19  20
ATOM     20  C   UNL     1      -2.524  10.463  17.605  0.00  0.00    +0.000 A 
ATOM     21  C   UNL     1      -3.815  10.947  17.456  0.00  0.00    +0.000 A 
ATOM     22  C   UNL     1      -4.092  10.943  16.068  0.00  0.00    +0.000 A 
ATOM     23  C   UNL     1      -2.954  10.480  15.454  0.00  0.00    +0.000 A 
ATOM     24  O   UNL     1      -2.000  10.184  16.374  0.00  0.00    +0.000 OA
ENDBRANCH  19  20
ENDBRANCH   3  19
BRANCH   3  25
ATOM     25  C   UNL     1      -1.424  12.435  19.523  0.00  0.00    +0.000 C 
BRANCH  25  26
ATOM     26  C   UNL     1      -1.982  12.408  20.920  0.00  0.00    +0.000 A 
ATOM     27  C   UNL     1      -1.415  11.843  22.048  0.00  0.00    +0.000 A 
ATOM     28  C   UNL     1      -2.285  11.878  23.178  0.00  0.00    +0.000 A 
ATOM     29  C   UNL     1      -3.483  12.490  22.888  0.00  0.00    +0.000 A 
ATOM     30  S   UNL     1      -3.560  12.997  21.257  0.00  0.00    +0.000 S 
ENDBRANCH  25  26
ENDBRANCH   3  25
TORSDOF 7
ENDMDL
MODEL 5
REMARK VINA RESULT:      -7.4      1.498      1.823
REMARK  Name = 
REMARK  7 active torsions:
REMARK  status: ('A' for Active; 'I' for Inactive)
REMARK    1  A    between atoms: C_2  and  C_3
REMARK    2  A    between atoms: C_6  and  S_7
REMARK    3  A    between atoms: S_7  and  N_10
REMARK    4  A    between atoms: N_18  and  C_19
REMARK    5  A    between atoms: N_18  and  C_25
REMARK    6  A    between atoms: C_19  and  C_20
REMARK    7  A    between atoms: C_25  and  C_26
REMARK                            x       y       z     vdW  Elec       q    Type
REMARK                         _______ _______ _______ _____ _____    ______ ____
ROOT
ATOM      1  O   UNL     1       1.075  12.286  19.196  0.00  0.00    +0.000 OA
ATOM      2  C   UNL     1       0.412  11.243  19.096  0.00  0.00    +0.000 C 
ATOM      3  N   UNL     1      -0.991  11.283  19.001  0.00  0.00    +0.000 N 
ENDROOT
BRANCH   2   4
ATOM      4  C   UNL     1       1.196   9.948  19.123  0.00  0.00    +0.000 A 
ATOM      5  C   UNL     1       1.738   9.344  17.981  0.00  0.00    +0.000 A 
ATOM      6  C   UNL     1       2.312   8.066  17.999  0.00  0.00    +0.000 A 
ATOM      7  C   UNL     1       2.301   7.317  19.165  0.00  0.00    +0.000 A 
ATOM      8  C   UNL     1       1.768   7.889  20.333  0.00  0.00    +0.000 A 
ATOM      9  C   UNL     1       1.228   9.198  20.311  0.00  0.00    +0.000 A 
BRANCH   7  10
ATOM     10  S   UNL     1       2.445   5.535  19.017  0.00  0.00    +0.000 S 
ATOM     11  O   UNL     1       1.912   4.998  20.250  0.00  0.00    +0.000 OA
ATOM     12  O   UNL     1       1.866   5.162  17.744  0.00  0.00    +0.000 OA
BRANCH  10  13
ATOM     13  N   UNL     1       4.111   5.143  18.957  0.00  0.00    +0.000 NA
ATOM     14  C   UNL     1       4.857   5.470  17.684  0.00  0.00    +0.000 C 
ATOM     15  C   UNL     1       4.689   4.403  16.568  0.00  0.00    +0.000 C 
ATOM     16  O   UNL     1       4.770   3.041  17.020  0.00  0.00    +0.000 OA
ATOM     17  C   UNL     1       3.895   2.815  18.134  0.00  0.00    +0.000 C 
ATOM     18  C   UNL     1       4.367   3.697  19.290  0.00  0.00    +0.000 C 
ENDBRANCH  10  13
ENDBRANCH   7  10
ENDBRANCH   2   4
BRANCH   3  19
ATOM     19  C   UNL     1      -1.854  10.139  18.725  0.00  0.00    +0.000 C 
BRANCH  19  20
ATOM     20  C   UNL     1      -2.638  10.349  17.462  0.00  0.00    +0.000 A 
ATOM     21  C   UNL     1      -2.349  10.284  16.108  0.00  0.00    +0.000 A 
ATOM     22  C   UNL     1      -3.494  10.757  15.424  0.00  0.00    +0.000 A 
ATOM     23  C   UNL     1      -4.417  11.062  16.395  0.00  0.00    +0.000 A 
ATOM     24  O   UNL     1      -3.909  10.822  17.631  0.00  0.00    +0.000 OA
ENDBRANCH  19  20
ENDBRANCH   3  19
BRANCH   3  25
ATOM     25  C   UNL     1      -1.677  12.565  19.207  0.00  0.00    +0.000 C 
BRANCH  25  26
ATOM     26  C   UNL     1      -2.551  12.573  20.433  0.00  0.00    +0.000 A 
ATOM     27  C   UNL     1      -3.898  12.873  20.510  0.00  0.00    +0.000 A 
ATOM     28  C   UNL     1      -4.376  12.921  21.854  0.00  0.00    +0.000 A 
ATOM     29  C   UNL     1      -3.384  12.634  22.764  0.00  0.00    +0.000 A 
ATOM     30  S   UNL     1      -1.886  12.330  21.999  0.00  0.00    +0.000 S 
ENDBRANCH  25  26
ENDBRANCH   3  25
TORSDOF 7
ENDMDL
MODEL 6
REMARK VINA RESULT:      -7.4      2.450      9.409
REMARK  Name = 
REMARK  7 active torsions:
REMARK  status: ('A' for Active; 'I' for Inactive)
REMARK    1  A    between atoms: C_2  and  C_3
REMARK    2  A    between atoms: C_6  and  S_7
REMARK    3  A    between atoms: S_7  and  N_10
REMARK    4  A    between atoms: N_18  and  C_19
REMARK    5  A    between atoms: N_18  and  C_25
REMARK    6  A    between atoms: C_19  and  C_20
REMARK    7  A    between atoms: C_25  and  C_26
REMARK                            x       y       z     vdW  Elec       q    Type
REMARK                         _______ _______ _______ _____ _____    ______ ____
ROOT
ATOM      1  O   UNL     1       5.105   6.445  18.619  0.00  0.00    +0.000 OA
ATOM      2  C   UNL     1       3.922   6.089  18.519  0.00  0.00    +0.000 C 
ATOM      3  N   UNL     1       3.591   4.758  18.201  0.00  0.00    +0.000 N 
ENDROOT
BRANCH   2   4
ATOM      4  C   UNL     1       2.880   7.168  18.719  0.00  0.00    +0.000 A 
ATOM      5  C   UNL     1       2.643   8.199  17.801  0.00  0.00    +0.000 A 
ATOM      6  C   UNL     1       1.798   9.282  18.076  0.00  0.00    +0.000 A 
ATOM      7  C   UNL     1       1.209   9.401  19.324  0.00  0.00    +0.000 A 
ATOM      8  C   UNL     1       1.420   8.386  20.273  0.00  0.00    +0.000 A 
ATOM      9  C   UNL     1       2.243   7.275  19.968  0.00  0.00    +0.000 A 
BRANCH   7  10
ATOM     10  S   UNL     1       0.683  11.033  19.851  0.00  0.00    +0.000 S 
ATOM     11  O   UNL     1       1.481  11.343  21.016  0.00  0.00    +0.000 OA
ATOM     12  O   UNL     1       0.722  11.893  18.687  0.00  0.00    +0.000 OA
BRANCH  10  13
ATOM     13  N   UNL     1      -0.951  10.925  20.354  0.00  0.00    +0.000 NA
ATOM     14  C   UNL     1      -1.952  11.824  19.665  0.00  0.00    +0.000 C 
ATOM     15  C   UNL     1      -1.996  13.267  20.238  0.00  0.00    +0.000 C 
ATOM     16  O   UNL     1      -1.952  13.347  21.672  0.00  0.00    +0.000 OA
ATOM     17  C   UNL     1      -0.861  12.580  22.198  0.00  0.00    +0.000 C 
ATOM     18  C   UNL     1      -1.101  11.114  21.841  0.00  0.00    +0.000 C 
ENDBRANCH  10  13
ENDBRANCH   7  10
ENDBRANCH   2   4
BRANCH   3  19
ATOM     19  C   UNL     1       2.244   4.196  18.211  0.00  0.00    +0.000 C 
BRANCH  19  20
ATOM     20  C   UNL     1       1.937   3.560  19.536  0.00  0.00    +0.000 A 
ATOM     21  C   UNL     1       0.803   3.433  20.323  0.00  0.00    +0.000 A 
ATOM     22  C   UNL     1       1.219   2.858  21.547  0.00  0.00    +0.000 A 
ATOM     23  C   UNL     1       2.572   2.648  21.428  0.00  0.00    +0.000 A 
ATOM     24  O   UNL     1       3.017   3.072  20.217  0.00  0.00    +0.000 OA
ENDBRANCH  19  20
ENDBRANCH   3  19
BRANCH   3  25
ATOM     25  C   UNL     1       4.664   3.838  17.806  0.00  0.00    +0.000 C 
BRANCH  25  26
ATOM     26  C   UNL     1       5.366   4.260  16.543  0.00  0.00    +0.000 A 
ATOM     27  C   UNL     1       4.834   4.356  15.271  0.00  0.00    +0.000 A 
ATOM     28  C   UNL     1       5.820   4.651  14.283  0.00  0.00    +0.000 A 
ATOM     29  C   UNL     1       7.074   4.796  14.832  0.00  0.00    +0.000 A 
ATOM     30  S   UNL     1       7.059   4.555  16.524  0.00  0.00    +0.000 S 
ENDBRANCH  25  26
ENDBRANCH   3  25
TORSDOF 7
ENDMDL
MODEL 7
REMARK VINA RESULT:      -7.3      2.639      4.152
REMARK  Name = 
REMARK  7 active torsions:
REMARK  status: ('A' for Active; 'I' for Inactive)
REMARK    1  A    between atoms: C_2  and  C_3
REMARK    2  A    between atoms: C_6  and  S_7
REMARK    3  A    between atoms: S_7  and  N_10
REMARK    4  A    between atoms: N_18  and  C_19
REMARK    5  A    between atoms: N_18  and  C_25
REMARK    6  A    between atoms: C_19  and  C_20
REMARK    7  A    between atoms: C_25  and  C_26
REMARK                            x       y       z     vdW  Elec       q    Type
REMARK                         _______ _______ _______ _____ _____    ______ ____
ROOT
ATOM      1  O   UNL     1      -1.377  10.227  19.066  0.00  0.00    +0.000 OA
ATOM      2  C   UNL     1      -0.260  10.553  19.495  0.00  0.00    +0.000 C 
ATOM      3  N   UNL     1      -0.044  11.823  20.062  0.00  0.00    +0.000 N 
ENDROOT
BRANCH   2   4
ATOM      4  C   UNL     1       0.842   9.528  19.335  0.00  0.00    +0.000 A 
ATOM      5  C   UNL     1       1.473   9.250  18.116  0.00  0.00    +0.000 A 
ATOM      6  C   UNL     1       2.368   8.185  17.949  0.00  0.00    +0.000 A 
ATOM      7  C   UNL     1       2.610   7.313  18.998  0.00  0.00    +0.000 A 
ATOM      8  C   UNL     1       1.997   7.559  20.239  0.00  0.00    +0.000 A 
ATOM      9  C   UNL     1       1.126   8.663  20.406  0.00  0.00    +0.000 A 
BRANCH   7  10
ATOM     10  S   UNL     1       3.218   5.673  18.601  0.00  0.00    +0.000 S 
ATOM     11  O   UNL     1       3.851   5.795  17.307  0.00  0.00    +0.000 OA
ATOM     12  O   UNL     1       3.973   5.207  19.745  0.00  0.00    +0.000 OA
BRANCH  10  13
ATOM     13  N   UNL     1       1.865   4.637  18.423  0.00  0.00    +0.000 NA
ATOM     14  C   UNL     1       1.316   3.989  19.673  0.00  0.00    +0.000 C 
ATOM     15  C   UNL     1       2.086   2.712  20.107  0.00  0.00    +0.000 C 
ATOM     16  O   UNL     1       2.433   1.824  19.032  0.00  0.00    +0.000 OA
ATOM     17  C   UNL     1       3.093   2.530  17.973  0.00  0.00    +0.000 C 
ATOM     18  C   UNL     1       2.110   3.554  17.405  0.00  0.00    +0.000 C 
ENDBRANCH  10  13
ENDBRANCH   7  10
ENDBRANCH   2   4
BRANCH   3  19
ATOM     19  C   UNL     1       1.178  12.253  20.734  0.00  0.00    +0.000 C 
BRANCH  19  20
ATOM     20  C   UNL     1       2.041  13.064  19.811  0.00  0.00    +0.000 A 
ATOM     21  C   UNL     1       2.305  13.047  18.450  0.00  0.00    +0.000 A 
ATOM     22  C   UNL     1       3.348  13.978  18.227  0.00  0.00    +0.000 A 
ATOM     23  C   UNL     1       3.642  14.520  19.455  0.00  0.00    +0.000 A 
ATOM     24  O   UNL     1       2.860  13.973  20.420  0.00  0.00    +0.000 OA
ENDBRANCH  19  20
ENDBRANCH   3  19
BRANCH   3  25
ATOM     25  C   UNL     1      -1.111  12.828  19.972  0.00  0.00    +0.000 C 
BRANCH  25  26
ATOM     26  C   UNL     1      -1.871  12.996  21.260  0.00  0.00    +0.000 A 
ATOM     27  C   UNL     1      -2.060  12.061  22.260  0.00  0.00    +0.000 A 
ATOM     28  C   UNL     1      -2.952  12.514  23.277  0.00  0.00    +0.000 A 
ATOM     29  C   UNL     1      -3.401  13.792  23.037  0.00  0.00    +0.000 A 
ATOM     30  S   UNL     1      -2.765  14.428  21.583  0.00  0.00    +0.000 S 
ENDBRANCH  25  26
ENDBRANCH   3  25
TORSDOF 7
ENDMDL
MODEL 8
REMARK VINA RESULT:      -7.3      1.983      2.587
REMARK  Name = 
REMARK  7 active torsions:
REMARK  status: ('A' for Active; 'I' for Inactive)
REMARK    1  A    between atoms: C_2  and  C_3
REMARK    2  A    between atoms: C_6  and  S_7
REMARK    3  A    between atoms: S_7  and  N_10
REMARK    4  A    between atoms: N_18  and  C_19
REMARK    5  A    between atoms: N_18  and  C_25
REMARK    6  A    between atoms: C_19  and  C_20
REMARK    7  A    between atoms: C_25  and  C_26
REMARK                            x       y       z     vdW  Elec       q    Type
REMARK                         _______ _______ _______ _____ _____    ______ ____
ROOT
ATOM      1  O   UNL     1       0.977  12.208  19.415  0.00  0.00    +0.000 OA
ATOM      2  C   UNL     1       0.335  11.158  19.258  0.00  0.00    +0.000 C 
ATOM      3  N   UNL     1      -1.044  11.187  18.981  0.00  0.00    +0.000 N 
ENDROOT
BRANCH   2   4
ATOM      4  C   UNL     1       1.113   9.870  19.420  0.00  0.00    +0.000 A 
ATOM      5  C   UNL     1       1.700   9.176  18.354  0.00  0.00    +0.000 A 
ATOM      6  C   UNL     1       2.269   7.904  18.497  0.00  0.00    +0.000 A 
ATOM      7  C   UNL     1       2.207   7.250  19.717  0.00  0.00    +0.000 A 
ATOM      8  C   UNL     1       1.628   7.914  20.813  0.00  0.00    +0.000 A 
ATOM      9  C   UNL     1       1.093   9.217  20.665  0.00  0.00    +0.000 A 
BRANCH   7  10
ATOM     10  S   UNL     1       2.351   5.462  19.718  0.00  0.00    +0.000 S 
ATOM     11  O   UNL     1       3.704   5.181  20.147  0.00  0.00    +0.000 OA
ATOM     12  O   UNL     1       1.224   4.941  20.462  0.00  0.00    +0.000 OA
BRANCH  10  13
ATOM     13  N   UNL     1       2.195   4.919  18.101  0.00  0.00    +0.000 NA
ATOM     14  C   UNL     1       1.254   3.765  17.843  0.00  0.00    +0.000 C 
ATOM     15  C   UNL     1       1.879   2.371  18.125  0.00  0.00    +0.000 C 
ATOM     16  O   UNL     1       3.226   2.209  17.653  0.00  0.00    +0.000 OA
ATOM     17  C   UNL     1       4.061   3.287  18.097  0.00  0.00    +0.000 C 
ATOM     18  C   UNL     1       3.527   4.581  17.485  0.00  0.00    +0.000 C 
ENDBRANCH  10  13
ENDBRANCH   7  10
ENDBRANCH   2   4
BRANCH   3  19
ATOM     19  C   UNL     1      -1.861  10.029  18.628  0.00  0.00    +0.000 C 
BRANCH  19  20
ATOM     20  C   UNL     1      -2.646  10.289  17.375  0.00  0.00    +0.000 A 
ATOM     21  C   UNL     1      -3.985  10.501  17.084  0.00  0.00    +0.000 A 
ATOM     22  C   UNL     1      -4.096  10.521  15.673  0.00  0.00    +0.000 A 
ATOM     23  C   UNL     1      -2.823  10.343  15.189  0.00  0.00    +0.000 A 
ATOM     24  O   UNL     1      -1.938  10.199  16.209  0.00  0.00    +0.000 OA
ENDBRANCH  19  20
ENDBRANCH   3  19
BRANCH   3  25
ATOM     25  C   UNL     1      -1.755  12.469  19.064  0.00  0.00    +0.000 C 
BRANCH  25  26
ATOM     26  C   UNL     1      -2.741  12.522  20.199  0.00  0.00    +0.000 A 
ATOM     27  C   UNL     1      -4.110  12.705  20.124  0.00  0.00    +0.000 A 
ATOM     28  C   UNL     1      -4.718  12.846  21.407  0.00  0.00    +0.000 A 
ATOM     29  C   UNL     1      -3.799  12.744  22.427  0.00  0.00    +0.000 A 
ATOM     30  S   UNL     1      -2.214  12.501  21.835  0.00  0.00    +0.000 S 
ENDBRANCH  25  26
ENDBRANCH   3  25
TORSDOF 7
ENDMDL
MODEL 9
REMARK VINA RESULT:      -7.3      1.623      2.101
REMARK  Name = 
REMARK  7 active torsions:
REMARK  status: ('A' for Active; 'I' for Inactive)
REMARK    1  A    between atoms: C_2  and  C_3
REMARK    2  A    between atoms: C_6  and  S_7
REMARK    3  A    between atoms: S_7  and  N_10
REMARK    4  A    between atoms: N_18  and  C_19
REMARK    5  A    between atoms: N_18  and  C_25
REMARK    6  A    between atoms: C_19  and  C_20
REMARK    7  A    between atoms: C_25  and  C_26
REMARK                            x       y       z     vdW  Elec       q    Type
REMARK                         _______ _______ _______ _____ _____    ______ ____
ROOT
ATOM      1  O   UNL     1       1.506  11.870  19.158  0.00  0.00    +0.000 OA
ATOM      2  C   UNL     1       0.751  10.894  19.036  0.00  0.00    +0.000 C 
ATOM      3  N   UNL     1      -0.642  11.064  18.932  0.00  0.00    +0.000 N 
ENDROOT
BRANCH   2   4
ATOM      4  C   UNL     1       1.413   9.533  19.047  0.00  0.00    +0.000 A 
ATOM      5  C   UNL     1       1.823   8.858  17.890  0.00  0.00    +0.000 A 
ATOM      6  C   UNL     1       2.278   7.533  17.904  0.00  0.00    +0.000 A 
ATOM      7  C   UNL     1       2.273   6.812  19.086  0.00  0.00    +0.000 A 
ATOM      8  C   UNL     1       1.871   7.454  20.270  0.00  0.00    +0.000 A 
ATOM      9  C   UNL     1       1.453   8.806  20.250  0.00  0.00    +0.000 A 
BRANCH   7  10
ATOM     10  S   UNL     1       2.244   5.022  18.975  0.00  0.00    +0.000 S 
ATOM     11  O   UNL     1       1.367   4.580  20.037  0.00  0.00    +0.000 OA
ATOM     12  O   UNL     1       1.955   4.682  17.598  0.00  0.00    +0.000 OA
BRANCH  10  13
ATOM     13  N   UNL     1       3.818   4.445  19.327  0.00  0.00    +0.000 NA
ATOM     14  C   UNL     1       4.948   5.448  19.299  0.00  0.00    +0.000 C 
ATOM     15  C   UNL     1       5.500   5.729  17.874  0.00  0.00    +0.000 C 
ATOM     16  O   UNL     1       5.664   4.563  17.051  0.00  0.00    +0.000 OA
ATOM     17  C   UNL     1       4.468   3.773  17.031  0.00  0.00    +0.000 C 
ATOM     18  C   UNL     1       4.204   3.280  18.454  0.00  0.00    +0.000 C 
ENDBRANCH  10  13
ENDBRANCH   7  10
ENDBRANCH   2   4
BRANCH   3  19
ATOM     19  C   UNL     1      -1.604  10.007  18.632  0.00  0.00    +0.000 C 
BRANCH  19  20
ATOM     20  C   UNL     1      -2.546  10.432  17.543  0.00  0.00    +0.000 A 
ATOM     21  C   UNL     1      -3.898  10.731  17.479  0.00  0.00    +0.000 A 
ATOM     22  C   UNL     1      -4.211  10.906  16.110  0.00  0.00    +0.000 A 
ATOM     23  C   UNL     1      -3.035  10.725  15.424  0.00  0.00    +0.000 A 
ATOM     24  O   UNL     1      -2.022  10.436  16.281  0.00  0.00    +0.000 OA
ENDBRANCH  19  20
ENDBRANCH   3  19
BRANCH   3  25
ATOM     25  C   UNL     1      -1.210  12.399  19.156  0.00  0.00    +0.000 C 
BRANCH  25  26
ATOM     26  C   UNL     1      -1.932  12.519  20.471  0.00  0.00    +0.000 A 
ATOM     27  C   UNL     1      -1.446  12.229  21.733  0.00  0.00    +0.000 A 
ATOM     28  C   UNL     1      -2.448  12.322  22.744  0.00  0.00    +0.000 A 
ATOM     29  C   UNL     1      -3.667  12.702  22.229  0.00  0.00    +0.000 A 
ATOM     30  S   UNL     1      -3.600  12.923  20.535  0.00  0.00    +0.000 S 
ENDBRANCH  25  26
ENDBRANCH   3  25
TORSDOF 7
ENDMDL
