MODEL 1
REMARK VINA RESULT:      -5.6      0.000      0.000
REMARK  Name = 
REMARK  10 active torsions:
REMARK  status: ('A' for Active; 'I' for Inactive)
REMARK    1  A    between atoms: C_1  and  C_2
REMARK    2  A    between atoms: C_2  and  N_3
REMARK    3  A    between atoms: N_3  and  C_4
REMARK    4  A    between atoms: N_3  and  C_6
REMARK    5  A    between atoms: C_4  and  C_5
REMARK    6  A    between atoms: C_6  and  C_7
REMARK    7  A    between atoms: C_7  and  N_8
REMARK    8  A    between atoms: C_9  and  C_11
REMARK    9  A    between atoms: C_12  and  C_13
REMARK   10  A    between atoms: C_23  and  C_24
REMARK                            x       y       z     vdW  Elec       q    Type
REMARK                         _______ _______ _______ _____ _____    ______ ____
ROOT
ATOM      1  N   UNL     1      -0.529  12.193  22.257  0.00  0.00    +0.000 N 
ATOM      2  C   UNL     1      -0.370  10.806  22.232  0.00  0.00    +0.000 C 
ATOM      3  O   UNL     1      -0.909  10.104  23.071  0.00  0.00    +0.000 OA
ATOM      4  C   UNL     1       0.157  13.068  21.321  0.00  0.00    +0.000 A 
ATOM      5  N   UNL     1       1.288  12.732  20.654  0.00  0.00    +0.000 NA
ATOM      6  C   UNL     1       1.719  13.706  19.828  0.00  0.00    +0.000 A 
ATOM      7  C   UNL     1       2.828  13.582  18.997  0.00  0.00    +0.000 A 
ATOM      8  C   UNL     1       3.177  14.660  18.172  0.00  0.00    +0.000 A 
ATOM      9  C   UNL     1       2.414  15.852  18.190  0.00  0.00    +0.000 A 
ATOM     10  C   UNL     1       2.800  17.003  17.311  0.00  0.00    +0.000 C 
ATOM     11  C   UNL     1       1.288  15.955  19.036  0.00  0.00    +0.000 A 
ATOM     12  C   UNL     1       0.967  14.864  19.843  0.00  0.00    +0.000 A 
ATOM     13  S   UNL     1      -0.296  14.671  20.939  0.00  0.00    +0.000 S 
ENDROOT
BRANCH   2  14
ATOM     14  C   UNL     1       0.399  10.093  21.152  0.00  0.00    +0.000 C 
ATOM     15  C   UNL     1       0.711   8.786  21.107  0.00  0.00    +0.000 C 
BRANCH  15  16
ATOM     16  C   UNL     1       1.504   8.261  19.955  0.00  0.00    +0.000 A 
ATOM     17  C   UNL     1       1.712   8.893  18.732  0.00  0.00    +0.000 A 
ATOM     18  C   UNL     1       2.489   8.136  17.837  0.00  0.00    +0.000 A 
ATOM     19  C   UNL     1       2.893   6.907  18.340  0.00  0.00    +0.000 A 
ATOM     20  S   UNL     1       2.292   6.763  19.894  0.00  0.00    +0.000 S 
ENDBRANCH  15  16
ENDBRANCH   2  14
BRANCH   1  21
ATOM     21  C   UNL     1      -1.411  12.916  23.197  0.00  0.00    +0.000 C 
BRANCH  21  22
ATOM     22  C   UNL     1      -2.953  12.803  23.087  0.00  0.00    +0.000 C 
BRANCH  22  23
ATOM     23  N   UNL     1      -3.678  14.057  22.743  0.00  0.00    +0.000 NA
BRANCH  23  25
ATOM     24  C   UNL     1      -3.895  12.803  20.553  0.00  0.00    +0.000 C 
ATOM     25  C   UNL     1      -4.041  14.133  21.303  0.00  0.00    +0.000 C 
ENDBRANCH  23  25
BRANCH  23  26
ATOM     26  C   UNL     1      -4.826  14.266  23.670  0.00  0.00    +0.000 C 
ATOM     27  C   UNL     1      -5.712  13.025  23.886  0.00  0.00    +0.000 C 
ENDBRANCH  23  26
ENDBRANCH  22  23
ENDBRANCH  21  22
ENDBRANCH   1  21
TORSDOF 7
ENDMDL
MODEL 2
REMARK VINA RESULT:      -5.6      0.853      1.634
REMARK  Name = 
REMARK  10 active torsions:
REMARK  status: ('A' for Active; 'I' for Inactive)
REMARK    1  A    between atoms: C_1  and  C_2
REMARK    2  A    between atoms: C_2  and  N_3
REMARK    3  A    between atoms: N_3  and  C_4
REMARK    4  A    between atoms: N_3  and  C_6
REMARK    5  A    between atoms: C_4  and  C_5
REMARK    6  A    between atoms: C_6  and  C_7
REMARK    7  A    between atoms: C_7  and  N_8
REMARK    8  A    between atoms: C_9  and  C_11
REMARK    9  A    between atoms: C_12  and  C_13
REMARK   10  A    between atoms: C_23  and  C_24
REMARK                            x       y       z     vdW  Elec       q    Type
REMARK                         _______ _______ _______ _____ _____    ______ ____
ROOT
ATOM      1  N   UNL     1      -0.631  12.557  22.376  0.00  0.00    +0.000 N 
ATOM      2  C   UNL     1      -0.595  11.161  22.383  0.00  0.00    +0.000 C 
ATOM      3  O   UNL     1      -1.179  10.530  23.249  0.00  0.00    +0.000 OA
ATOM      4  C   UNL     1       0.112  13.344  21.406  0.00  0.00    +0.000 A 
ATOM      5  N   UNL     1       1.197  12.893  20.730  0.00  0.00    +0.000 NA
ATOM      6  C   UNL     1       1.697  13.805  19.872  0.00  0.00    +0.000 A 
ATOM      7  C   UNL     1       2.775  13.562  19.027  0.00  0.00    +0.000 A 
ATOM      8  C   UNL     1       3.203  14.585  18.169  0.00  0.00    +0.000 A 
ATOM      9  C   UNL     1       2.548  15.840  18.168  0.00  0.00    +0.000 A 
ATOM     10  C   UNL     1       3.019  16.931  17.254  0.00  0.00    +0.000 C 
ATOM     11  C   UNL     1       1.452  16.063  19.030  0.00  0.00    +0.000 A 
ATOM     12  C   UNL     1       1.051  15.025  19.870  0.00  0.00    +0.000 A 
ATOM     13  S   UNL     1      -0.204  14.972  20.991  0.00  0.00    +0.000 S 
ENDROOT
BRANCH   2  14
ATOM     14  C   UNL     1       0.087  10.357  21.309  0.00  0.00    +0.000 C 
ATOM     15  C   UNL     1       0.719   9.178  21.457  0.00  0.00    +0.000 C 
BRANCH  15  16
ATOM     16  C   UNL     1       1.359   8.537  20.268  0.00  0.00    +0.000 A 
ATOM     17  C   UNL     1       2.011   7.308  20.236  0.00  0.00    +0.000 A 
ATOM     18  C   UNL     1       2.529   6.983  18.970  0.00  0.00    +0.000 A 
ATOM     19  C   UNL     1       2.297   7.949  18.001  0.00  0.00    +0.000 A 
ATOM     20  S   UNL     1       1.446   9.200  18.712  0.00  0.00    +0.000 S 
ENDBRANCH  15  16
ENDBRANCH   2  14
BRANCH   1  21
ATOM     21  C   UNL     1      -1.428  13.378  23.310  0.00  0.00    +0.000 C 
BRANCH  21  22
ATOM     22  C   UNL     1      -2.864  13.833  22.943  0.00  0.00    +0.000 C 
BRANCH  22  23
ATOM     23  N   UNL     1      -3.890  12.757  22.867  0.00  0.00    +0.000 NA
BRANCH  23  25
ATOM     24  C   UNL     1      -5.889  13.995  23.809  0.00  0.00    +0.000 C 
ATOM     25  C   UNL     1      -4.891  12.840  23.963  0.00  0.00    +0.000 C 
ENDBRANCH  23  25
BRANCH  23  26
ATOM     26  C   UNL     1      -4.486  12.702  21.502  0.00  0.00    +0.000 C 
ATOM     27  C   UNL     1      -3.476  12.870  20.352  0.00  0.00    +0.000 C 
ENDBRANCH  23  26
ENDBRANCH  22  23
ENDBRANCH  21  22
ENDBRANCH   1  21
TORSDOF 7
ENDMDL
MODEL 3
REMARK VINA RESULT:      -5.6      2.402      6.646
REMARK  Name = 
REMARK  10 active torsions:
REMARK  status: ('A' for Active; 'I' for Inactive)
REMARK    1  A    between atoms: C_1  and  C_2
REMARK    2  A    between atoms: C_2  and  N_3
REMARK    3  A    between atoms: N_3  and  C_4
REMARK    4  A    between atoms: N_3  and  C_6
REMARK    5  A    between atoms: C_4  and  C_5
REMARK    6  A    between atoms: C_6  and  C_7
REMARK    7  A    between atoms: C_7  and  N_8
REMARK    8  A    between atoms: C_9  and  C_11
REMARK    9  A    between atoms: C_12  and  C_13
REMARK   10  A    between atoms: C_23  and  C_24
REMARK                            x       y       z     vdW  Elec       q    Type
REMARK                         _______ _______ _______ _____ _____    ______ ____
ROOT
ATOM      1  N   UNL     1      -0.130  12.277  21.516  0.00  0.00    +0.000 N 
ATOM      2  C   UNL     1      -0.906  12.212  22.675  0.00  0.00    +0.000 C 
ATOM      3  O   UNL     1      -0.980  11.177  23.315  0.00  0.00    +0.000 OA
ATOM      4  C   UNL     1      -0.076  13.469  20.686  0.00  0.00    +0.000 A 
ATOM      5  N   UNL     1      -1.031  14.432  20.674  0.00  0.00    +0.000 NA
ATOM      6  C   UNL     1      -0.740  15.448  19.836  0.00  0.00    +0.000 A 
ATOM      7  C   UNL     1      -1.537  16.578  19.687  0.00  0.00    +0.000 A 
ATOM      8  C   UNL     1      -1.129  17.576  18.791  0.00  0.00    +0.000 A 
ATOM      9  C   UNL     1       0.071  17.431  18.054  0.00  0.00    +0.000 A 
ATOM     10  C   UNL     1       0.494  18.499  17.092  0.00  0.00    +0.000 C 
ATOM     11  C   UNL     1       0.867  16.279  18.226  0.00  0.00    +0.000 A 
ATOM     12  C   UNL     1       0.434  15.305  19.125  0.00  0.00    +0.000 A 
ATOM     13  S   UNL     1       1.149  13.842  19.555  0.00  0.00    +0.000 S 
ENDROOT
BRANCH   2  14
ATOM     14  C   UNL     1      -1.626  13.406  23.242  0.00  0.00    +0.000 C 
ATOM     15  C   UNL     1      -2.943  13.515  23.492  0.00  0.00    +0.000 C 
BRANCH  15  16
ATOM     16  C   UNL     1      -3.480  14.797  24.041  0.00  0.00    +0.000 A 
ATOM     17  C   UNL     1      -2.794  15.719  24.826  0.00  0.00    +0.000 A 
ATOM     18  C   UNL     1      -3.578  16.823  25.207  0.00  0.00    +0.000 A 
ATOM     19  C   UNL     1      -4.882  16.779  24.733  0.00  0.00    +0.000 A 
ATOM     20  S   UNL     1      -5.059  15.376  23.839  0.00  0.00    +0.000 S 
ENDBRANCH  15  16
ENDBRANCH   2  14
BRANCH   1  21
ATOM     21  C   UNL     1       0.725  11.179  21.020  0.00  0.00    +0.000 C 
BRANCH  21  22
ATOM     22  C   UNL     1       0.103   9.922  20.360  0.00  0.00    +0.000 C 
BRANCH  22  23
ATOM     23  N   UNL     1       0.083   9.908  18.872  0.00  0.00    +0.000 NA
BRANCH  23  25
ATOM     24  C   UNL     1      -2.088  10.034  17.573  0.00  0.00    +0.000 C 
ATOM     25  C   UNL     1      -0.971  10.789  18.304  0.00  0.00    +0.000 C 
ENDBRANCH  23  25
BRANCH  23  26
ATOM     26  C   UNL     1       1.447  10.166  18.330  0.00  0.00    +0.000 C 
ATOM     27  C   UNL     1       2.205   8.906  17.871  0.00  0.00    +0.000 C 
ENDBRANCH  23  26
ENDBRANCH  22  23
ENDBRANCH  21  22
ENDBRANCH   1  21
TORSDOF 7
ENDMDL
MODEL 4
REMARK VINA RESULT:      -5.6      0.802      1.039
REMARK  Name = 
REMARK  10 active torsions:
REMARK  status: ('A' for Active; 'I' for Inactive)
REMARK    1  A    between atoms: C_1  and  C_2
REMARK    2  A    between atoms: C_2  and  N_3
REMARK    3  A    between atoms: N_3  and  C_4
REMARK    4  A    between atoms: N_3  and  C_6
REMARK    5  A    between atoms: C_4  and  C_5
REMARK    6  A    between atoms: C_6  and  C_7
REMARK    7  A    between atoms: C_7  and  N_8
REMARK    8  A    between atoms: C_9  and  C_11
REMARK    9  A    between atoms: C_12  and  C_13
REMARK   10  A    between atoms: C_23  and  C_24
REMARK                            x       y       z     vdW  Elec       q    Type
REMARK                         _______ _______ _______ _____ _____    ______ ____
ROOT
ATOM      1  N   UNL     1      -0.450  11.619  22.162  0.00  0.00    +0.000 N 
ATOM      2  C   UNL     1      -0.246  10.241  22.066  0.00  0.00    +0.000 C 
ATOM      3  O   UNL     1      -0.763   9.480  22.867  0.00  0.00    +0.000 OA
ATOM      4  C   UNL     1       0.209  12.562  21.272  0.00  0.00    +0.000 A 
ATOM      5  N   UNL     1       1.350  12.296  20.591  0.00  0.00    +0.000 NA
ATOM      6  C   UNL     1       1.750  13.325  19.817  0.00  0.00    +0.000 A 
ATOM      7  C   UNL     1       2.862  13.278  18.983  0.00  0.00    +0.000 A 
ATOM      8  C   UNL     1       3.177  14.407  18.215  0.00  0.00    +0.000 A 
ATOM      9  C   UNL     1       2.376  15.572  18.292  0.00  0.00    +0.000 A 
ATOM     10  C   UNL     1       2.726  16.778  17.474  0.00  0.00    +0.000 C 
ATOM     11  C   UNL     1       1.248  15.596  19.140  0.00  0.00    +0.000 A 
ATOM     12  C   UNL     1       0.962  14.456  19.890  0.00  0.00    +0.000 A 
ATOM     13  S   UNL     1      -0.295  14.167  20.973  0.00  0.00    +0.000 S 
ENDROOT
BRANCH   2  14
ATOM     14  C   UNL     1       0.545   9.609  20.953  0.00  0.00    +0.000 C 
ATOM     15  C   UNL     1       1.072   8.371  20.933  0.00  0.00    +0.000 C 
BRANCH  15  16
ATOM     16  C   UNL     1       1.849   7.925  19.738  0.00  0.00    +0.000 A 
ATOM     17  C   UNL     1       2.044   8.638  18.558  0.00  0.00    +0.000 A 
ATOM     18  C   UNL     1       2.808   7.943  17.604  0.00  0.00    +0.000 A 
ATOM     19  C   UNL     1       3.214   6.681  18.017  0.00  0.00    +0.000 A 
ATOM     20  S   UNL     1       2.632   6.433  19.565  0.00  0.00    +0.000 S 
ENDBRANCH  15  16
ENDBRANCH   2  14
BRANCH   1  21
ATOM     21  C   UNL     1      -1.354  12.265  23.135  0.00  0.00    +0.000 C 
BRANCH  21  22
ATOM     22  C   UNL     1      -2.885  12.305  22.893  0.00  0.00    +0.000 C 
BRANCH  22  23
ATOM     23  N   UNL     1      -3.549  13.617  23.126  0.00  0.00    +0.000 NA
BRANCH  23  25
ATOM     24  C   UNL     1      -4.918  14.832  21.375  0.00  0.00    +0.000 C 
ATOM     25  C   UNL     1      -4.861  13.726  22.436  0.00  0.00    +0.000 C 
ENDBRANCH  23  25
BRANCH  23  26
ATOM     26  C   UNL     1      -3.601  13.923  24.583  0.00  0.00    +0.000 C 
ATOM     27  C   UNL     1      -3.147  15.346  24.957  0.00  0.00    +0.000 C 
ENDBRANCH  23  26
ENDBRANCH  22  23
ENDBRANCH  21  22
ENDBRANCH   1  21
TORSDOF 7
ENDMDL
MODEL 5
REMARK VINA RESULT:      -5.6      0.964      1.483
REMARK  Name = 
REMARK  10 active torsions:
REMARK  status: ('A' for Active; 'I' for Inactive)
REMARK    1  A    between atoms: C_1  and  C_2
REMARK    2  A    between atoms: C_2  and  N_3
REMARK    3  A    between atoms: N_3  and  C_4
REMARK    4  A    between atoms: N_3  and  C_6
REMARK    5  A    between atoms: C_4  and  C_5
REMARK    6  A    between atoms: C_6  and  C_7
REMARK    7  A    between atoms: C_7  and  N_8
REMARK    8  A    between atoms: C_9  and  C_11
REMARK    9  A    between atoms: C_12  and  C_13
REMARK   10  A    between atoms: C_23  and  C_24
REMARK                            x       y       z     vdW  Elec       q    Type
REMARK                         _______ _______ _______ _____ _____    ______ ____
ROOT
ATOM      1  N   UNL     1      -0.472  11.789  22.150  0.00  0.00    +0.000 N 
ATOM      2  C   UNL     1      -0.323  10.404  22.058  0.00  0.00    +0.000 C 
ATOM      3  O   UNL     1      -0.859   9.667  22.869  0.00  0.00    +0.000 OA
ATOM      4  C   UNL     1       0.211  12.702  21.248  0.00  0.00    +0.000 A 
ATOM      5  N   UNL     1       1.333  12.390  20.555  0.00  0.00    +0.000 NA
ATOM      6  C   UNL     1       1.763  13.400  19.771  0.00  0.00    +0.000 A 
ATOM      7  C   UNL     1       2.862  13.306  18.924  0.00  0.00    +0.000 A 
ATOM      8  C   UNL     1       3.211  14.420  18.147  0.00  0.00    +0.000 A 
ATOM      9  C   UNL     1       2.456  15.615  18.228  0.00  0.00    +0.000 A 
ATOM     10  C   UNL     1       2.842  16.803  17.400  0.00  0.00    +0.000 C 
ATOM     11  C   UNL     1       1.340  15.686  19.089  0.00  0.00    +0.000 A 
ATOM     12  C   UNL     1       1.019  14.560  19.848  0.00  0.00    +0.000 A 
ATOM     13  S   UNL     1      -0.235  14.325  20.947  0.00  0.00    +0.000 S 
ENDROOT
BRANCH   2  14
ATOM     14  C   UNL     1       0.430   9.737  20.938  0.00  0.00    +0.000 C 
ATOM     15  C   UNL     1       1.105   8.575  20.994  0.00  0.00    +0.000 C 
BRANCH  15  16
ATOM     16  C   UNL     1       1.813   8.080  19.775  0.00  0.00    +0.000 A 
ATOM     17  C   UNL     1       2.444   6.849  19.621  0.00  0.00    +0.000 A 
ATOM     18  C   UNL     1       3.041   6.681  18.359  0.00  0.00    +0.000 A 
ATOM     19  C   UNL     1       2.893   7.773  17.514  0.00  0.00    +0.000 A 
ATOM     20  S   UNL     1       2.017   8.941  18.330  0.00  0.00    +0.000 S 
ENDBRANCH  15  16
ENDBRANCH   2  14
BRANCH   1  21
ATOM     21  C   UNL     1      -1.340  12.474  23.131  0.00  0.00    +0.000 C 
BRANCH  21  22
ATOM     22  C   UNL     1      -2.882  12.460  22.974  0.00  0.00    +0.000 C 
BRANCH  22  23
ATOM     23  N   UNL     1      -3.652  13.179  24.026  0.00  0.00    +0.000 NA
BRANCH  23  25
ATOM     24  C   UNL     1      -4.111  15.637  24.431  0.00  0.00    +0.000 C 
ATOM     25  C   UNL     1      -3.073  14.509  24.351  0.00  0.00    +0.000 C 
ENDBRANCH  23  25
BRANCH  23  26
ATOM     26  C   UNL     1      -5.101  13.215  23.678  0.00  0.00    +0.000 C 
ATOM     27  C   UNL     1      -5.412  12.940  22.196  0.00  0.00    +0.000 C 
ENDBRANCH  23  26
ENDBRANCH  22  23
ENDBRANCH  21  22
ENDBRANCH   1  21
TORSDOF 7
ENDMDL
MODEL 6
REMARK VINA RESULT:      -5.5      1.828      5.446
REMARK  Name = 
REMARK  10 active torsions:
REMARK  status: ('A' for Active; 'I' for Inactive)
REMARK    1  A    between atoms: C_1  and  C_2
REMARK    2  A    between atoms: C_2  and  N_3
REMARK    3  A    between atoms: N_3  and  C_4
REMARK    4  A    between atoms: N_3  and  C_6
REMARK    5  A    between atoms: C_4  and  C_5
REMARK    6  A    between atoms: C_6  and  C_7
REMARK    7  A    between atoms: C_7  and  N_8
REMARK    8  A    between atoms: C_9  and  C_11
REMARK    9  A    between atoms: C_12  and  C_13
REMARK   10  A    between atoms: C_23  and  C_24
REMARK                            x       y       z     vdW  Elec       q    Type
REMARK                         _______ _______ _______ _____ _____    ______ ____
ROOT
ATOM      1  N   UNL     1      -0.556  12.701  21.847  0.00  0.00    +0.000 N 
ATOM      2  C   UNL     1      -0.352  14.022  21.445  0.00  0.00    +0.000 C 
ATOM      3  O   UNL     1      -0.924  14.939  22.011  0.00  0.00    +0.000 OA
ATOM      4  C   UNL     1       0.049  11.578  21.150  0.00  0.00    +0.000 A 
ATOM      5  N   UNL     1       0.483  11.622  19.867  0.00  0.00    +0.000 NA
ATOM      6  C   UNL     1       1.025  10.458  19.456  0.00  0.00    +0.000 A 
ATOM      7  C   UNL     1       1.588  10.269  18.199  0.00  0.00    +0.000 A 
ATOM      8  C   UNL     1       2.131   9.015  17.885  0.00  0.00    +0.000 A 
ATOM      9  C   UNL     1       2.103   7.964  18.833  0.00  0.00    +0.000 A 
ATOM     10  C   UNL     1       2.678   6.625  18.486  0.00  0.00    +0.000 C 
ATOM     11  C   UNL     1       1.532   8.180  20.106  0.00  0.00    +0.000 A 
ATOM     12  C   UNL     1       1.001   9.438  20.387  0.00  0.00    +0.000 A 
ATOM     13  S   UNL     1       0.268  10.008  21.791  0.00  0.00    +0.000 S 
ENDROOT
BRANCH   2  14
ATOM     14  C   UNL     1       0.622  14.404  20.361  0.00  0.00    +0.000 C 
ATOM     15  C   UNL     1       1.104  15.632  20.101  0.00  0.00    +0.000 C 
BRANCH  15  16
ATOM     16  C   UNL     1       2.053  15.819  18.961  0.00  0.00    +0.000 A 
ATOM     17  C   UNL     1       2.105  16.904  18.091  0.00  0.00    +0.000 A 
ATOM     18  C   UNL     1       3.099  16.781  17.104  0.00  0.00    +0.000 A 
ATOM     19  C   UNL     1       3.829  15.603  17.182  0.00  0.00    +0.000 A 
ATOM     20  S   UNL     1       3.248  14.720  18.477  0.00  0.00    +0.000 S 
ENDBRANCH  15  16
ENDBRANCH   2  14
BRANCH   1  21
ATOM     21  C   UNL     1      -1.370  12.298  23.013  0.00  0.00    +0.000 C 
BRANCH  21  22
ATOM     22  C   UNL     1      -2.915  12.225  22.917  0.00  0.00    +0.000 C 
BRANCH  22  23
ATOM     23  N   UNL     1      -3.636  13.526  22.971  0.00  0.00    +0.000 NA
BRANCH  23  25
ATOM     24  C   UNL     1      -5.067  12.540  21.129  0.00  0.00    +0.000 C 
ATOM     25  C   UNL     1      -4.431  13.793  21.743  0.00  0.00    +0.000 C 
ENDBRANCH  23  25
BRANCH  23  26
ATOM     26  C   UNL     1      -4.416  13.638  24.236  0.00  0.00    +0.000 C 
ATOM     27  C   UNL     1      -4.745  12.292  24.908  0.00  0.00    +0.000 C 
ENDBRANCH  23  26
ENDBRANCH  22  23
ENDBRANCH  21  22
ENDBRANCH   1  21
TORSDOF 7
ENDMDL
MODEL 7
REMARK VINA RESULT:      -5.5      2.108      6.460
REMARK  Name = 
REMARK  10 active torsions:
REMARK  status: ('A' for Active; 'I' for Inactive)
REMARK    1  A    between atoms: C_1  and  C_2
REMARK    2  A    between atoms: C_2  and  N_3
REMARK    3  A    between atoms: N_3  and  C_4
REMARK    4  A    between atoms: N_3  and  C_6
REMARK    5  A    between atoms: C_4  and  C_5
REMARK    6  A    between atoms: C_6  and  C_7
REMARK    7  A    between atoms: C_7  and  N_8
REMARK    8  A    between atoms: C_9  and  C_11
REMARK    9  A    between atoms: C_12  and  C_13
REMARK   10  A    between atoms: C_23  and  C_24
REMARK                            x       y       z     vdW  Elec       q    Type
REMARK                         _______ _______ _______ _____ _____    ______ ____
ROOT
ATOM      1  N   UNL     1      -0.065  11.855  21.604  0.00  0.00    +0.000 N 
ATOM      2  C   UNL     1      -0.977  11.761  22.658  0.00  0.00    +0.000 C 
ATOM      3  O   UNL     1      -1.125  10.710  23.258  0.00  0.00    +0.000 OA
ATOM      4  C   UNL     1       0.086  13.068  20.818  0.00  0.00    +0.000 A 
ATOM      5  N   UNL     1      -0.864  14.030  20.712  0.00  0.00    +0.000 NA
ATOM      6  C   UNL     1      -0.476  15.066  19.941  0.00  0.00    +0.000 A 
ATOM      7  C   UNL     1      -1.253  16.199  19.723  0.00  0.00    +0.000 A 
ATOM      8  C   UNL     1      -0.742  17.220  18.909  0.00  0.00    +0.000 A 
ATOM      9  C   UNL     1       0.539  17.094  18.321  0.00  0.00    +0.000 A 
ATOM     10  C   UNL     1       1.073  18.186  17.445  0.00  0.00    +0.000 C 
ATOM     11  C   UNL     1       1.314  15.938  18.561  0.00  0.00    +0.000 A 
ATOM     12  C   UNL     1       0.777  14.942  19.377  0.00  0.00    +0.000 A 
ATOM     13  S   UNL     1       1.440  13.469  19.854  0.00  0.00    +0.000 S 
ENDROOT
BRANCH   2  14
ATOM     14  C   UNL     1      -1.765  12.940  23.161  0.00  0.00    +0.000 C 
ATOM     15  C   UNL     1      -3.088  12.988  23.399  0.00  0.00    +0.000 C 
BRANCH  15  16
ATOM     16  C   UNL     1      -3.700  14.264  23.880  0.00  0.00    +0.000 A 
ATOM     17  C   UNL     1      -4.961  14.756  23.558  0.00  0.00    +0.000 A 
ATOM     18  C   UNL     1      -5.246  15.998  24.154  0.00  0.00    +0.000 A 
ATOM     19  C   UNL     1      -4.216  16.496  24.940  0.00  0.00    +0.000 A 
ATOM     20  S   UNL     1      -2.958  15.394  24.901  0.00  0.00    +0.000 S 
ENDBRANCH  15  16
ENDBRANCH   2  14
BRANCH   1  21
ATOM     21  C   UNL     1       0.850  10.771  21.191  0.00  0.00    +0.000 C 
BRANCH  21  22
ATOM     22  C   UNL     1       0.447   9.774  20.074  0.00  0.00    +0.000 C 
BRANCH  22  23
ATOM     23  N   UNL     1       0.589  10.267  18.676  0.00  0.00    +0.000 NA
BRANCH  23  25
ATOM     24  C   UNL     1       1.997   8.311  17.895  0.00  0.00    +0.000 C 
ATOM     25  C   UNL     1       1.862   9.832  18.042  0.00  0.00    +0.000 C 
ENDBRANCH  23  25
BRANCH  23  26
ATOM     26  C   UNL     1      -0.628   9.939  17.882  0.00  0.00    +0.000 C 
ATOM     27  C   UNL     1      -1.918  10.621  18.373  0.00  0.00    +0.000 C 
ENDBRANCH  23  26
ENDBRANCH  22  23
ENDBRANCH  21  22
ENDBRANCH   1  21
TORSDOF 7
ENDMDL
MODEL 8
REMARK VINA RESULT:      -5.5      1.085      1.676
REMARK  Name = 
REMARK  10 active torsions:
REMARK  status: ('A' for Active; 'I' for Inactive)
REMARK    1  A    between atoms: C_1  and  C_2
REMARK    2  A    between atoms: C_2  and  N_3
REMARK    3  A    between atoms: N_3  and  C_4
REMARK    4  A    between atoms: N_3  and  C_6
REMARK    5  A    between atoms: C_4  and  C_5
REMARK    6  A    between atoms: C_6  and  C_7
REMARK    7  A    between atoms: C_7  and  N_8
REMARK    8  A    between atoms: C_9  and  C_11
REMARK    9  A    between atoms: C_12  and  C_13
REMARK   10  A    between atoms: C_23  and  C_24
REMARK                            x       y       z     vdW  Elec       q    Type
REMARK                         _______ _______ _______ _____ _____    ______ ____
ROOT
ATOM      1  N   UNL     1      -0.626  12.643  22.248  0.00  0.00    +0.000 N 
ATOM      2  C   UNL     1      -0.593  11.247  22.271  0.00  0.00    +0.000 C 
ATOM      3  O   UNL     1      -1.183  10.627  23.140  0.00  0.00    +0.000 OA
ATOM      4  C   UNL     1       0.124  13.418  21.274  0.00  0.00    +0.000 A 
ATOM      5  N   UNL     1       1.212  12.957  20.609  0.00  0.00    +0.000 NA
ATOM      6  C   UNL     1       1.719  13.859  19.744  0.00  0.00    +0.000 A 
ATOM      7  C   UNL     1       2.801  13.605  18.908  0.00  0.00    +0.000 A 
ATOM      8  C   UNL     1       3.236  14.617  18.041  0.00  0.00    +0.000 A 
ATOM      9  C   UNL     1       2.583  15.873  18.022  0.00  0.00    +0.000 A 
ATOM     10  C   UNL     1       3.061  16.952  17.099  0.00  0.00    +0.000 C 
ATOM     11  C   UNL     1       1.483  16.108  18.875  0.00  0.00    +0.000 A 
ATOM     12  C   UNL     1       1.075  15.080  19.724  0.00  0.00    +0.000 A 
ATOM     13  S   UNL     1      -0.187  15.041  20.839  0.00  0.00    +0.000 S 
ENDROOT
BRANCH   2  14
ATOM     14  C   UNL     1       0.094  10.429  21.210  0.00  0.00    +0.000 C 
ATOM     15  C   UNL     1       0.753   9.270  21.381  0.00  0.00    +0.000 C 
BRANCH  15  16
ATOM     16  C   UNL     1       1.393   8.611  20.202  0.00  0.00    +0.000 A 
ATOM     17  C   UNL     1       2.025   7.371  20.183  0.00  0.00    +0.000 A 
ATOM     18  C   UNL     1       2.549   7.030  18.923  0.00  0.00    +0.000 A 
ATOM     19  C   UNL     1       2.342   7.994  17.946  0.00  0.00    +0.000 A 
ATOM     20  S   UNL     1       1.505   9.264  18.643  0.00  0.00    +0.000 S 
ENDBRANCH  15  16
ENDBRANCH   2  14
BRANCH   1  21
ATOM     21  C   UNL     1      -1.427  13.476  23.168  0.00  0.00    +0.000 C 
BRANCH  21  22
ATOM     22  C   UNL     1      -2.924  13.762  22.883  0.00  0.00    +0.000 C 
BRANCH  22  23
ATOM     23  N   UNL     1      -3.793  13.941  24.078  0.00  0.00    +0.000 NA
BRANCH  23  25
ATOM     24  C   UNL     1      -5.955  12.630  24.238  0.00  0.00    +0.000 C 
ATOM     25  C   UNL     1      -4.445  12.675  24.508  0.00  0.00    +0.000 C 
ENDBRANCH  23  25
BRANCH  23  26
ATOM     26  C   UNL     1      -3.050  14.640  25.164  0.00  0.00    +0.000 C 
ATOM     27  C   UNL     1      -3.280  16.161  25.224  0.00  0.00    +0.000 C 
ENDBRANCH  23  26
ENDBRANCH  22  23
ENDBRANCH  21  22
ENDBRANCH   1  21
TORSDOF 7
ENDMDL
MODEL 9
REMARK VINA RESULT:      -5.5      0.718      1.283
REMARK  Name = 
REMARK  10 active torsions:
REMARK  status: ('A' for Active; 'I' for Inactive)
REMARK    1  A    between atoms: C_1  and  C_2
REMARK    2  A    between atoms: C_2  and  N_3
REMARK    3  A    between atoms: N_3  and  C_4
REMARK    4  A    between atoms: N_3  and  C_6
REMARK    5  A    between atoms: C_4  and  C_5
REMARK    6  A    between atoms: C_6  and  C_7
REMARK    7  A    between atoms: C_7  and  N_8
REMARK    8  A    between atoms: C_9  and  C_11
REMARK    9  A    between atoms: C_12  and  C_13
REMARK   10  A    between atoms: C_23  and  C_24
REMARK                            x       y       z     vdW  Elec       q    Type
REMARK                         _______ _______ _______ _____ _____    ______ ____
ROOT
ATOM      1  N   UNL     1      -0.500  11.814  22.216  0.00  0.00    +0.000 N 
ATOM      2  C   UNL     1      -0.313  10.432  22.145  0.00  0.00    +0.000 C 
ATOM      3  O   UNL     1      -0.838   9.692  22.960  0.00  0.00    +0.000 OA
ATOM      4  C   UNL     1       0.168  12.733  21.309  0.00  0.00    +0.000 A 
ATOM      5  N   UNL     1       1.306  12.442  20.632  0.00  0.00    +0.000 NA
ATOM      6  C   UNL     1       1.716  13.451  19.838  0.00  0.00    +0.000 A 
ATOM      7  C   UNL     1       2.827  13.376  19.004  0.00  0.00    +0.000 A 
ATOM      8  C   UNL     1       3.154  14.488  18.215  0.00  0.00    +0.000 A 
ATOM      9  C   UNL     1       2.367  15.663  18.273  0.00  0.00    +0.000 A 
ATOM     10  C   UNL     1       2.730  16.850  17.433  0.00  0.00    +0.000 C 
ATOM     11  C   UNL     1       1.241  15.716  19.122  0.00  0.00    +0.000 A 
ATOM     12  C   UNL     1       0.942  14.593  19.892  0.00  0.00    +0.000 A 
ATOM     13  S   UNL     1      -0.317  14.339  20.982  0.00  0.00    +0.000 S 
ENDROOT
BRANCH   2  14
ATOM     14  C   UNL     1       0.469   9.771  21.041  0.00  0.00    +0.000 C 
ATOM     15  C   UNL     1       0.954   8.516  21.031  0.00  0.00    +0.000 C 
BRANCH  15  16
ATOM     16  C   UNL     1       1.729   8.041  19.845  0.00  0.00    +0.000 A 
ATOM     17  C   UNL     1       1.930   8.729  18.652  0.00  0.00    +0.000 A 
ATOM     18  C   UNL     1       2.689   8.010  17.712  0.00  0.00    +0.000 A 
ATOM     19  C   UNL     1       3.086   6.753  18.151  0.00  0.00    +0.000 A 
ATOM     20  S   UNL     1       2.501   6.540  19.703  0.00  0.00    +0.000 S 
ENDBRANCH  15  16
ENDBRANCH   2  14
BRANCH   1  21
ATOM     21  C   UNL     1      -1.395  12.488  23.179  0.00  0.00    +0.000 C 
BRANCH  21  22
ATOM     22  C   UNL     1      -2.922  12.218  23.168  0.00  0.00    +0.000 C 
BRANCH  22  23
ATOM     23  N   UNL     1      -3.786  13.371  22.793  0.00  0.00    +0.000 NA
BRANCH  23  25
ATOM     24  C   UNL     1      -4.385  15.450  24.111  0.00  0.00    +0.000 C 
ATOM     25  C   UNL     1      -3.305  14.657  23.364  0.00  0.00    +0.000 C 
ENDBRANCH  23  25
BRANCH  23  26
ATOM     26  C   UNL     1      -4.000  13.403  21.319  0.00  0.00    +0.000 C 
ATOM     27  C   UNL     1      -5.440  13.738  20.887  0.00  0.00    +0.000 C 
ENDBRANCH  23  26
ENDBRANCH  22  23
ENDBRANCH  21  22
ENDBRANCH   1  21
TORSDOF 7
ENDMDL
