MODEL 1
REMARK VINA RESULT:      -7.6      0.000      0.000
REMARK  Name = 
REMARK  9 active torsions:
REMARK  status: ('A' for Active; 'I' for Inactive)
REMARK    1  A    between atoms: C_1  and  C_2
REMARK    2  A    between atoms: C_2  and  C_4
REMARK    3  A    between atoms: C_4  and  C_7
REMARK    4  A    between atoms: N_9  and  C_10
REMARK    5  A    between atoms: N_9  and  C_16
REMARK    6  A    between atoms: N_19  and  C_20
REMARK    7  A    between atoms: C_20  and  C_21
REMARK    8  A    between atoms: C_21  and  C_22
REMARK    9  A    between atoms: C_29  and  C_30
REMARK                            x       y       z     vdW  Elec       q    Type
REMARK                         _______ _______ _______ _____ _____    ______ ____
ROOT
ATOM      1  C   UNL     1       5.195   3.699  16.969  0.00  0.00    +0.000 C 
ATOM      2  O   UNL     1       5.016   2.612  16.418  0.00  0.00    +0.000 OA
ATOM      3  N   UNL     1       4.332   4.262  17.925  0.00  0.00    +0.000 N 
ENDROOT
BRANCH   3   4
ATOM      4  C   UNL     1       4.474   5.607  18.597  0.00  0.00    +0.000 C 
ATOM      5  C   UNL     1       3.842   5.636  20.015  0.00  0.00    +0.000 C 
ATOM      6  C   UNL     1       2.321   5.807  20.020  0.00  0.00    +0.000 C 
ATOM      7  N   UNL     1       1.826   6.955  19.250  0.00  0.00    +0.000 NA
ATOM      8  C   UNL     1       2.408   6.976  17.905  0.00  0.00    +0.000 C 
ATOM      9  C   UNL     1       3.945   6.918  17.918  0.00  0.00    +0.000 C 
ATOM     10  C   UNL     1       4.547   7.368  16.592  0.00  0.00    +0.000 C 
BRANCH   7  11
ATOM     11  C   UNL     1       1.993   8.226  19.981  0.00  0.00    +0.000 C 
BRANCH  11  12
ATOM     12  C   UNL     1       1.359   8.202  21.378  0.00  0.00    +0.000 C 
BRANCH  12  13
ATOM     13  C   UNL     1       0.414   9.355  21.558  0.00  0.00    +0.000 A 
ATOM     14  C   UNL     1       0.028  10.124  20.455  0.00  0.00    +0.000 A 
ATOM     15  C   UNL     1      -0.824  11.212  20.625  0.00  0.00    +0.000 A 
ATOM     16  C   UNL     1      -1.287  11.537  21.899  0.00  0.00    +0.000 A 
ATOM     17  C   UNL     1      -0.902  10.775  23.002  0.00  0.00    +0.000 A 
ATOM     18  C   UNL     1      -0.053   9.684  22.838  0.00  0.00    +0.000 A 
ENDBRANCH  12  13
ENDBRANCH  11  12
ENDBRANCH   7  11
ENDBRANCH   3   4
BRANCH   3  19
ATOM     19  C   UNL     1       3.152   3.497  18.169  0.00  0.00    +0.000 A 
ATOM     20  C   UNL     1       3.144   2.451  19.098  0.00  0.00    +0.000 A 
ATOM     21  C   UNL     1       1.934   1.842  19.450  0.00  0.00    +0.000 A 
ATOM     22  C   UNL     1       0.741   2.257  18.858  0.00  0.00    +0.000 A 
ATOM     23  C   UNL     1       0.766   3.223  17.855  0.00  0.00    +0.000 A 
ATOM     24  C   UNL     1       1.978   3.809  17.482  0.00  0.00    +0.000 A 
ENDBRANCH   3  19
BRANCH   1  25
ATOM     25  C   UNL     1       6.387   4.395  16.447  0.00  0.00    +0.000 C 
ATOM     26  N   UNL     1       7.470   4.352  17.189  0.00  0.00    +0.000 NA
ATOM     27  N   UNL     1       8.433   4.324  17.803  0.00  0.00    +0.000 NA
BRANCH  25  29
ATOM     28  C   UNL     1       5.781   4.305  13.953  0.00  0.00    +0.000 C 
ATOM     29  C   UNL     1       6.681   4.806  15.039  0.00  0.00    +0.000 C 
ATOM     30  O   UNL     1       7.658   5.510  14.819  0.00  0.00    +0.000 OA
ENDBRANCH  25  29
ENDBRANCH   1  25
TORSDOF 7
ENDMDL
MODEL 2
REMARK VINA RESULT:      -7.6      5.055     10.070
REMARK  Name = 
REMARK  9 active torsions:
REMARK  status: ('A' for Active; 'I' for Inactive)
REMARK    1  A    between atoms: C_1  and  C_2
REMARK    2  A    between atoms: C_2  and  C_4
REMARK    3  A    between atoms: C_4  and  C_7
REMARK    4  A    between atoms: N_9  and  C_10
REMARK    5  A    between atoms: N_9  and  C_16
REMARK    6  A    between atoms: N_19  and  C_20
REMARK    7  A    between atoms: C_20  and  C_21
REMARK    8  A    between atoms: C_21  and  C_22
REMARK    9  A    between atoms: C_29  and  C_30
REMARK                            x       y       z     vdW  Elec       q    Type
REMARK                         _______ _______ _______ _____ _____    ______ ____
ROOT
ATOM      1  C   UNL     1      -1.928  13.320  20.665  0.00  0.00    +0.000 C 
ATOM      2  O   UNL     1      -1.755  14.538  20.607  0.00  0.00    +0.000 OA
ATOM      3  N   UNL     1      -0.939  12.358  20.395  0.00  0.00    +0.000 N 
ENDROOT
BRANCH   3   4
ATOM      4  C   UNL     1      -1.104  10.857  20.403  0.00  0.00    +0.000 C 
ATOM      5  C   UNL     1      -0.503  10.197  21.672  0.00  0.00    +0.000 C 
ATOM      6  C   UNL     1       1.017  10.017  21.627  0.00  0.00    +0.000 C 
ATOM      7  N   UNL     1       1.521   9.319  20.438  0.00  0.00    +0.000 NA
ATOM      8  C   UNL     1       0.967   9.902  19.212  0.00  0.00    +0.000 C 
ATOM      9  C   UNL     1      -0.569   9.972  19.223  0.00  0.00    +0.000 C 
ATOM     10  C   UNL     1      -1.146  10.162  17.825  0.00  0.00    +0.000 C 
BRANCH   7  11
ATOM     11  C   UNL     1       1.329   7.858  20.530  0.00  0.00    +0.000 C 
BRANCH  11  12
ATOM     12  C   UNL     1       2.426   7.063  19.812  0.00  0.00    +0.000 C 
BRANCH  12  13
ATOM     13  C   UNL     1       1.990   5.647  19.567  0.00  0.00    +0.000 A 
ATOM     14  C   UNL     1       1.997   5.125  18.270  0.00  0.00    +0.000 A 
ATOM     15  C   UNL     1       1.563   3.823  18.036  0.00  0.00    +0.000 A 
ATOM     16  C   UNL     1       1.116   3.042  19.101  0.00  0.00    +0.000 A 
ATOM     17  C   UNL     1       1.104   3.559  20.396  0.00  0.00    +0.000 A 
ATOM     18  C   UNL     1       1.539   4.859  20.635  0.00  0.00    +0.000 A 
ENDBRANCH  12  13
ENDBRANCH  11  12
ENDBRANCH   7  11
ENDBRANCH   3   4
BRANCH   3  19
ATOM     19  C   UNL     1       0.306  12.907  19.962  0.00  0.00    +0.000 A 
ATOM     20  C   UNL     1       1.337  13.172  20.869  0.00  0.00    +0.000 A 
ATOM     21  C   UNL     1       2.604  13.533  20.396  0.00  0.00    +0.000 A 
ATOM     22  C   UNL     1       2.833  13.655  19.025  0.00  0.00    +0.000 A 
ATOM     23  C   UNL     1       1.778  13.498  18.131  0.00  0.00    +0.000 A 
ATOM     24  C   UNL     1       0.506  13.167  18.605  0.00  0.00    +0.000 A 
ENDBRANCH   3  19
BRANCH   1  25
ATOM     25  C   UNL     1      -3.330  12.973  20.969  0.00  0.00    +0.000 C 
ATOM     26  N   UNL     1      -4.077  12.590  19.958  0.00  0.00    +0.000 NA
ATOM     27  N   UNL     1      -4.752  12.240  19.105  0.00  0.00    +0.000 NA
BRANCH  25  29
ATOM     28  C   UNL     1      -3.012  12.389  23.449  0.00  0.00    +0.000 C 
ATOM     29  C   UNL     1      -3.931  12.609  22.289  0.00  0.00    +0.000 C 
ATOM     30  O   UNL     1      -5.146  12.474  22.370  0.00  0.00    +0.000 OA
ENDBRANCH  25  29
ENDBRANCH   1  25
TORSDOF 7
ENDMDL
MODEL 3
REMARK VINA RESULT:      -7.5      1.791      4.378
REMARK  Name = 
REMARK  9 active torsions:
REMARK  status: ('A' for Active; 'I' for Inactive)
REMARK    1  A    between atoms: C_1  and  C_2
REMARK    2  A    between atoms: C_2  and  C_4
REMARK    3  A    between atoms: C_4  and  C_7
REMARK    4  A    between atoms: N_9  and  C_10
REMARK    5  A    between atoms: N_9  and  C_16
REMARK    6  A    between atoms: N_19  and  C_20
REMARK    7  A    between atoms: C_20  and  C_21
REMARK    8  A    between atoms: C_21  and  C_22
REMARK    9  A    between atoms: C_29  and  C_30
REMARK                            x       y       z     vdW  Elec       q    Type
REMARK                         _______ _______ _______ _____ _____    ______ ____
ROOT
ATOM      1  C   UNL     1       3.594   3.185  18.057  0.00  0.00    +0.000 C 
ATOM      2  O   UNL     1       3.687   2.179  17.353  0.00  0.00    +0.000 OA
ATOM      3  N   UNL     1       4.273   4.393  17.818  0.00  0.00    +0.000 N 
ENDROOT
BRANCH   3   4
ATOM      4  C   UNL     1       4.235   5.640  18.668  0.00  0.00    +0.000 C 
ATOM      5  C   UNL     1       2.847   5.878  19.319  0.00  0.00    +0.000 C 
ATOM      6  C   UNL     1       1.812   6.502  18.380  0.00  0.00    +0.000 C 
ATOM      7  N   UNL     1       2.247   7.736  17.713  0.00  0.00    +0.000 NA
ATOM      8  C   UNL     1       3.564   7.561  17.094  0.00  0.00    +0.000 C 
ATOM      9  C   UNL     1       4.625   7.041  18.078  0.00  0.00    +0.000 C 
ATOM     10  C   UNL     1       6.043   7.269  17.569  0.00  0.00    +0.000 C 
BRANCH   7  11
ATOM     11  C   UNL     1       2.172   8.906  18.609  0.00  0.00    +0.000 C 
BRANCH  11  12
ATOM     12  C   UNL     1       0.773   9.534  18.658  0.00  0.00    +0.000 C 
BRANCH  12  13
ATOM     13  C   UNL     1       0.341   9.772  20.076  0.00  0.00    +0.000 A 
ATOM     14  C   UNL     1      -0.433  10.892  20.395  0.00  0.00    +0.000 A 
ATOM     15  C   UNL     1      -0.809  11.131  21.715  0.00  0.00    +0.000 A 
ATOM     16  C   UNL     1      -0.406  10.252  22.719  0.00  0.00    +0.000 A 
ATOM     17  C   UNL     1       0.369   9.135  22.406  0.00  0.00    +0.000 A 
ATOM     18  C   UNL     1       0.744   8.890  21.088  0.00  0.00    +0.000 A 
ENDBRANCH  12  13
ENDBRANCH  11  12
ENDBRANCH   7  11
ENDBRANCH   3   4
BRANCH   3  19
ATOM     19  C   UNL     1       5.169   4.349  16.707  0.00  0.00    +0.000 A 
ATOM     20  C   UNL     1       4.702   4.474  15.394  0.00  0.00    +0.000 A 
ATOM     21  C   UNL     1       5.615   4.613  14.342  0.00  0.00    +0.000 A 
ATOM     22  C   UNL     1       6.987   4.600  14.597  0.00  0.00    +0.000 A 
ATOM     23  C   UNL     1       7.448   4.367  15.890  0.00  0.00    +0.000 A 
ATOM     24  C   UNL     1       6.537   4.198  16.935  0.00  0.00    +0.000 A 
ENDBRANCH   3  19
BRANCH   1  25
ATOM     25  C   UNL     1       2.746   2.956  19.243  0.00  0.00    +0.000 C 
ATOM     26  N   UNL     1       1.486   2.657  19.021  0.00  0.00    +0.000 NA
ATOM     27  N   UNL     1       0.388   2.382  18.865  0.00  0.00    +0.000 NA
BRANCH  25  29
ATOM     28  C   UNL     1       2.224   2.924  21.757  0.00  0.00    +0.000 C 
ATOM     29  C   UNL     1       3.171   2.623  20.638  0.00  0.00    +0.000 C 
ATOM     30  O   UNL     1       4.284   2.146  20.821  0.00  0.00    +0.000 OA
ENDBRANCH  25  29
ENDBRANCH   1  25
TORSDOF 7
ENDMDL
MODEL 4
REMARK VINA RESULT:      -7.3      1.268      1.744
REMARK  Name = 
REMARK  9 active torsions:
REMARK  status: ('A' for Active; 'I' for Inactive)
REMARK    1  A    between atoms: C_1  and  C_2
REMARK    2  A    between atoms: C_2  and  C_4
REMARK    3  A    between atoms: C_4  and  C_7
REMARK    4  A    between atoms: N_9  and  C_10
REMARK    5  A    between atoms: N_9  and  C_16
REMARK    6  A    between atoms: N_19  and  C_20
REMARK    7  A    between atoms: C_20  and  C_21
REMARK    8  A    between atoms: C_21  and  C_22
REMARK    9  A    between atoms: C_29  and  C_30
REMARK                            x       y       z     vdW  Elec       q    Type
REMARK                         _______ _______ _______ _____ _____    ______ ____
ROOT
ATOM      1  C   UNL     1       5.220   3.746  17.164  0.00  0.00    +0.000 C 
ATOM      2  O   UNL     1       5.060   2.584  16.790  0.00  0.00    +0.000 OA
ATOM      3  N   UNL     1       4.343   4.438  18.018  0.00  0.00    +0.000 N 
ENDROOT
BRANCH   3   4
ATOM      4  C   UNL     1       4.461   5.874  18.472  0.00  0.00    +0.000 C 
ATOM      5  C   UNL     1       3.782   6.124  19.845  0.00  0.00    +0.000 C 
ATOM      6  C   UNL     1       2.261   6.283  19.773  0.00  0.00    +0.000 C 
ATOM      7  N   UNL     1       1.791   7.291  18.815  0.00  0.00    +0.000 NA
ATOM      8  C   UNL     1       2.418   7.102  17.504  0.00  0.00    +0.000 C 
ATOM      9  C   UNL     1       3.953   7.057  17.575  0.00  0.00    +0.000 C 
ATOM     10  C   UNL     1       4.599   7.294  16.215  0.00  0.00    +0.000 C 
BRANCH   7  11
ATOM     11  C   UNL     1       1.932   8.663  19.339  0.00  0.00    +0.000 C 
BRANCH  11  12
ATOM     12  C   UNL     1       1.632   9.740  18.288  0.00  0.00    +0.000 C 
BRANCH  12  13
ATOM     13  C   UNL     1       0.290  10.369  18.533  0.00  0.00    +0.000 A 
ATOM     14  C   UNL     1       0.125  11.287  19.574  0.00  0.00    +0.000 A 
ATOM     15  C   UNL     1      -1.125  11.848  19.823  0.00  0.00    +0.000 A 
ATOM     16  C   UNL     1      -2.215  11.486  19.032  0.00  0.00    +0.000 A 
ATOM     17  C   UNL     1      -2.056  10.568  17.994  0.00  0.00    +0.000 A 
ATOM     18  C   UNL     1      -0.808  10.007  17.740  0.00  0.00    +0.000 A 
ENDBRANCH  12  13
ENDBRANCH  11  12
ENDBRANCH   7  11
ENDBRANCH   3   4
BRANCH   3  19
ATOM     19  C   UNL     1       3.174   3.702  18.376  0.00  0.00    +0.000 A 
ATOM     20  C   UNL     1       3.153   2.876  19.506  0.00  0.00    +0.000 A 
ATOM     21  C   UNL     1       1.946   2.315  19.936  0.00  0.00    +0.000 A 
ATOM     22  C   UNL     1       0.769   2.554  19.225  0.00  0.00    +0.000 A 
ATOM     23  C   UNL     1       0.812   3.285  18.041  0.00  0.00    +0.000 A 
ATOM     24  C   UNL     1       2.022   3.820  17.596  0.00  0.00    +0.000 A 
ENDBRANCH   3  19
BRANCH   1  25
ATOM     25  C   UNL     1       6.403   4.371  16.542  0.00  0.00    +0.000 C 
ATOM     26  N   UNL     1       7.525   4.321  17.223  0.00  0.00    +0.000 NA
ATOM     27  N   UNL     1       8.521   4.285  17.782  0.00  0.00    +0.000 NA
BRANCH  25  29
ATOM     28  C   UNL     1       5.728   4.081  14.081  0.00  0.00    +0.000 C 
ATOM     29  C   UNL     1       6.628   4.705  15.102  0.00  0.00    +0.000 C 
ATOM     30  O   UNL     1       7.553   5.450  14.803  0.00  0.00    +0.000 OA
ENDBRANCH  25  29
ENDBRANCH   1  25
TORSDOF 7
ENDMDL
MODEL 5
REMARK VINA RESULT:      -7.3      1.824      4.225
REMARK  Name = 
REMARK  9 active torsions:
REMARK  status: ('A' for Active; 'I' for Inactive)
REMARK    1  A    between atoms: C_1  and  C_2
REMARK    2  A    between atoms: C_2  and  C_4
REMARK    3  A    between atoms: C_4  and  C_7
REMARK    4  A    between atoms: N_9  and  C_10
REMARK    5  A    between atoms: N_9  and  C_16
REMARK    6  A    between atoms: N_19  and  C_20
REMARK    7  A    between atoms: C_20  and  C_21
REMARK    8  A    between atoms: C_21  and  C_22
REMARK    9  A    between atoms: C_29  and  C_30
REMARK                            x       y       z     vdW  Elec       q    Type
REMARK                         _______ _______ _______ _____ _____    ______ ____
ROOT
ATOM      1  C   UNL     1       4.205   2.666  18.199  0.00  0.00    +0.000 C 
ATOM      2  O   UNL     1       4.338   1.678  17.477  0.00  0.00    +0.000 OA
ATOM      3  N   UNL     1       4.587   3.972  17.846  0.00  0.00    +0.000 N 
ENDROOT
BRANCH   3   4
ATOM      4  C   UNL     1       4.493   5.211  18.704  0.00  0.00    +0.000 C 
ATOM      5  C   UNL     1       3.030   5.565  19.083  0.00  0.00    +0.000 C 
ATOM      6  C   UNL     1       2.252   6.285  17.979  0.00  0.00    +0.000 C 
ATOM      7  N   UNL     1       2.911   7.480  17.439  0.00  0.00    +0.000 NA
ATOM      8  C   UNL     1       4.303   7.196  17.078  0.00  0.00    +0.000 C 
ATOM      9  C   UNL     1       5.106   6.576  18.234  0.00  0.00    +0.000 C 
ATOM     10  C   UNL     1       6.610   6.683  18.011  0.00  0.00    +0.000 C 
BRANCH   7  11
ATOM     11  C   UNL     1       2.764   8.646  18.332  0.00  0.00    +0.000 C 
BRANCH  11  12
ATOM     12  C   UNL     1       1.352   9.246  18.307  0.00  0.00    +0.000 C 
BRANCH  12  13
ATOM     13  C   UNL     1       0.847   9.487  19.701  0.00  0.00    +0.000 A 
ATOM     14  C   UNL     1       1.221   8.631  20.741  0.00  0.00    +0.000 A 
ATOM     15  C   UNL     1       0.729   8.835  22.027  0.00  0.00    +0.000 A 
ATOM     16  C   UNL     1      -0.144   9.893  22.274  0.00  0.00    +0.000 A 
ATOM     17  C   UNL     1      -0.523  10.748  21.240  0.00  0.00    +0.000 A 
ATOM     18  C   UNL     1      -0.031  10.550  19.952  0.00  0.00    +0.000 A 
ENDBRANCH  12  13
ENDBRANCH  11  12
ENDBRANCH   7  11
ENDBRANCH   3   4
BRANCH   3  19
ATOM     19  C   UNL     1       5.234   4.067  16.576  0.00  0.00    +0.000 A 
ATOM     20  C   UNL     1       4.495   4.155  15.391  0.00  0.00    +0.000 A 
ATOM     21  C   UNL     1       5.147   4.433  14.184  0.00  0.00    +0.000 A 
ATOM     22  C   UNL     1       6.532   4.595  14.156  0.00  0.00    +0.000 A 
ATOM     23  C   UNL     1       7.275   4.399  15.317  0.00  0.00    +0.000 A 
ATOM     24  C   UNL     1       6.628   4.092  16.516  0.00  0.00    +0.000 A 
ENDBRANCH   3  19
BRANCH   1  25
ATOM     25  C   UNL     1       3.671   2.313  19.529  0.00  0.00    +0.000 C 
ATOM     26  N   UNL     1       4.547   1.996  20.454  0.00  0.00    +0.000 NA
ATOM     27  N   UNL     1       5.282   1.727  21.286  0.00  0.00    +0.000 NA
BRANCH  25  29
ATOM     28  C   UNL     1       1.131   2.535  19.215  0.00  0.00    +0.000 C 
ATOM     29  C   UNL     1       2.329   2.637  20.106  0.00  0.00    +0.000 C 
ATOM     30  O   UNL     1       2.258   3.000  21.274  0.00  0.00    +0.000 OA
ENDBRANCH  25  29
ENDBRANCH   1  25
TORSDOF 7
ENDMDL
MODEL 6
REMARK VINA RESULT:      -7.3      1.842      4.397
REMARK  Name = 
REMARK  9 active torsions:
REMARK  status: ('A' for Active; 'I' for Inactive)
REMARK    1  A    between atoms: C_1  and  C_2
REMARK    2  A    between atoms: C_2  and  C_4
REMARK    3  A    between atoms: C_4  and  C_7
REMARK    4  A    between atoms: N_9  and  C_10
REMARK    5  A    between atoms: N_9  and  C_16
REMARK    6  A    between atoms: N_19  and  C_20
REMARK    7  A    between atoms: C_20  and  C_21
REMARK    8  A    between atoms: C_21  and  C_22
REMARK    9  A    between atoms: C_29  and  C_30
REMARK                            x       y       z     vdW  Elec       q    Type
REMARK                         _______ _______ _______ _____ _____    ______ ____
ROOT
ATOM      1  C   UNL     1       3.614   3.160  18.236  0.00  0.00    +0.000 C 
ATOM      2  O   UNL     1       3.689   2.143  17.546  0.00  0.00    +0.000 OA
ATOM      3  N   UNL     1       4.278   4.367  17.956  0.00  0.00    +0.000 N 
ENDROOT
BRANCH   3   4
ATOM      4  C   UNL     1       4.263   5.628  18.787  0.00  0.00    +0.000 C 
ATOM      5  C   UNL     1       2.907   5.851  19.509  0.00  0.00    +0.000 C 
ATOM      6  C   UNL     1       1.811   6.439  18.618  0.00  0.00    +0.000 C 
ATOM      7  N   UNL     1       2.185   7.670  17.909  0.00  0.00    +0.000 NA
ATOM      8  C   UNL     1       3.470   7.509  17.222  0.00  0.00    +0.000 C 
ATOM      9  C   UNL     1       4.592   7.025  18.154  0.00  0.00    +0.000 C 
ATOM     10  C   UNL     1       5.976   7.271  17.565  0.00  0.00    +0.000 C 
BRANCH   7  11
ATOM     11  C   UNL     1       2.136   8.853  18.790  0.00  0.00    +0.000 C 
BRANCH  11  12
ATOM     12  C   UNL     1       0.752   9.514  18.828  0.00  0.00    +0.000 C 
BRANCH  12  13
ATOM     13  C   UNL     1       0.328   9.788  20.242  0.00  0.00    +0.000 A 
ATOM     14  C   UNL     1       0.641   8.879  21.258  0.00  0.00    +0.000 A 
ATOM     15  C   UNL     1       0.222   9.117  22.564  0.00  0.00    +0.000 A 
ATOM     16  C   UNL     1      -0.518  10.262  22.856  0.00  0.00    +0.000 A 
ATOM     17  C   UNL     1      -0.835  11.170  21.847  0.00  0.00    +0.000 A 
ATOM     18  C   UNL     1      -0.416  10.939  20.540  0.00  0.00    +0.000 A 
ENDBRANCH  12  13
ENDBRANCH  11  12
ENDBRANCH   7  11
ENDBRANCH   3   4
BRANCH   3  19
ATOM     19  C   UNL     1       5.136   4.310  16.816  0.00  0.00    +0.000 A 
ATOM     20  C   UNL     1       4.623   4.396  15.517  0.00  0.00    +0.000 A 
ATOM     21  C   UNL     1       5.497   4.523  14.431  0.00  0.00    +0.000 A 
ATOM     22  C   UNL     1       6.877   4.538  14.639  0.00  0.00    +0.000 A 
ATOM     23  C   UNL     1       7.385   4.343  15.920  0.00  0.00    +0.000 A 
ATOM     24  C   UNL     1       6.514   4.186  17.000  0.00  0.00    +0.000 A 
ENDBRANCH   3  19
BRANCH   1  25
ATOM     25  C   UNL     1       2.808   2.946  19.454  0.00  0.00    +0.000 C 
ATOM     26  N   UNL     1       1.524   2.727  19.283  0.00  0.00    +0.000 NA
ATOM     27  N   UNL     1       0.406   2.522  19.171  0.00  0.00    +0.000 NA
BRANCH  25  29
ATOM     28  C   UNL     1       4.588   1.840  20.939  0.00  0.00    +0.000 C 
ATOM     29  C   UNL     1       3.274   2.547  20.818  0.00  0.00    +0.000 C 
ATOM     30  O   UNL     1       2.557   2.785  21.783  0.00  0.00    +0.000 OA
ENDBRANCH  25  29
ENDBRANCH   1  25
TORSDOF 7
ENDMDL
MODEL 7
REMARK VINA RESULT:      -7.2      5.006     10.080
REMARK  Name = 
REMARK  9 active torsions:
REMARK  status: ('A' for Active; 'I' for Inactive)
REMARK    1  A    between atoms: C_1  and  C_2
REMARK    2  A    between atoms: C_2  and  C_4
REMARK    3  A    between atoms: C_4  and  C_7
REMARK    4  A    between atoms: N_9  and  C_10
REMARK    5  A    between atoms: N_9  and  C_16
REMARK    6  A    between atoms: N_19  and  C_20
REMARK    7  A    between atoms: C_20  and  C_21
REMARK    8  A    between atoms: C_21  and  C_22
REMARK    9  A    between atoms: C_29  and  C_30
REMARK                            x       y       z     vdW  Elec       q    Type
REMARK                         _______ _______ _______ _____ _____    ______ ____
ROOT
ATOM      1  C   UNL     1      -1.683  13.206  20.835  0.00  0.00    +0.000 C 
ATOM      2  O   UNL     1      -1.465  14.418  20.822  0.00  0.00    +0.000 OA
ATOM      3  N   UNL     1      -0.752  12.222  20.460  0.00  0.00    +0.000 N 
ENDROOT
BRANCH   3   4
ATOM      4  C   UNL     1      -0.976  10.730  20.410  0.00  0.00    +0.000 C 
ATOM      5  C   UNL     1      -0.495  10.010  21.699  0.00  0.00    +0.000 C 
ATOM      6  C   UNL     1       1.016   9.769  21.756  0.00  0.00    +0.000 C 
ATOM      7  N   UNL     1       1.576   9.083  20.585  0.00  0.00    +0.000 NA
ATOM      8  C   UNL     1       1.136   9.722  19.341  0.00  0.00    +0.000 C 
ATOM      9  C   UNL     1      -0.392   9.856  19.245  0.00  0.00    +0.000 C 
ATOM     10  C   UNL     1      -0.859  10.109  17.816  0.00  0.00    +0.000 C 
BRANCH   7  11
ATOM     11  C   UNL     1       1.321   7.630  20.619  0.00  0.00    +0.000 C 
BRANCH  11  12
ATOM     12  C   UNL     1       2.443   6.809  19.971  0.00  0.00    +0.000 C 
BRANCH  12  13
ATOM     13  C   UNL     1       1.967   5.427  19.626  0.00  0.00    +0.000 A 
ATOM     14  C   UNL     1       1.998   4.985  18.300  0.00  0.00    +0.000 A 
ATOM     15  C   UNL     1       1.527   3.716  17.974  0.00  0.00    +0.000 A 
ATOM     16  C   UNL     1       1.019   2.888  18.974  0.00  0.00    +0.000 A 
ATOM     17  C   UNL     1       0.983   3.326  20.297  0.00  0.00    +0.000 A 
ATOM     18  C   UNL     1       1.455   4.593  20.629  0.00  0.00    +0.000 A 
ENDBRANCH  12  13
ENDBRANCH  11  12
ENDBRANCH   7  11
ENDBRANCH   3   4
BRANCH   3  19
ATOM     19  C   UNL     1       0.485  12.744  19.974  0.00  0.00    +0.000 A 
ATOM     20  C   UNL     1       0.641  13.109  18.632  0.00  0.00    +0.000 A 
ATOM     21  C   UNL     1       1.796  13.787  18.226  0.00  0.00    +0.000 A 
ATOM     22  C   UNL     1       2.802  14.075  19.148  0.00  0.00    +0.000 A 
ATOM     23  C   UNL     1       2.692  13.615  20.457  0.00  0.00    +0.000 A 
ATOM     24  C   UNL     1       1.553  12.912  20.857  0.00  0.00    +0.000 A 
ENDBRANCH   3  19
BRANCH   1  25
ATOM     25  C   UNL     1      -3.076  12.898  21.211  0.00  0.00    +0.000 C 
ATOM     26  N   UNL     1      -3.278  12.472  22.437  0.00  0.00    +0.000 NA
ATOM     27  N   UNL     1      -3.492  12.112  23.500  0.00  0.00    +0.000 NA
BRANCH  25  29
ATOM     28  C   UNL     1      -4.939  14.654  21.009  0.00  0.00    +0.000 C 
ATOM     29  C   UNL     1      -4.339  13.360  20.556  0.00  0.00    +0.000 C 
ATOM     30  O   UNL     1      -4.854  12.656  19.696  0.00  0.00    +0.000 OA
ENDBRANCH  25  29
ENDBRANCH   1  25
TORSDOF 7
ENDMDL
MODEL 8
REMARK VINA RESULT:      -7.2      2.232      4.594
REMARK  Name = 
REMARK  9 active torsions:
REMARK  status: ('A' for Active; 'I' for Inactive)
REMARK    1  A    between atoms: C_1  and  C_2
REMARK    2  A    between atoms: C_2  and  C_4
REMARK    3  A    between atoms: C_4  and  C_7
REMARK    4  A    between atoms: N_9  and  C_10
REMARK    5  A    between atoms: N_9  and  C_16
REMARK    6  A    between atoms: N_19  and  C_20
REMARK    7  A    between atoms: C_20  and  C_21
REMARK    8  A    between atoms: C_21  and  C_22
REMARK    9  A    between atoms: C_29  and  C_30
REMARK                            x       y       z     vdW  Elec       q    Type
REMARK                         _______ _______ _______ _____ _____    ______ ____
ROOT
ATOM      1  C   UNL     1       3.606   3.141  18.091  0.00  0.00    +0.000 C 
ATOM      2  O   UNL     1       3.734   2.149  17.372  0.00  0.00    +0.000 OA
ATOM      3  N   UNL     1       4.270   4.363  17.891  0.00  0.00    +0.000 N 
ENDROOT
BRANCH   3   4
ATOM      4  C   UNL     1       4.190   5.595  18.761  0.00  0.00    +0.000 C 
ATOM      5  C   UNL     1       2.819   5.734  19.475  0.00  0.00    +0.000 C 
ATOM      6  C   UNL     1       1.706   6.302  18.591  0.00  0.00    +0.000 C 
ATOM      7  N   UNL     1       2.032   7.569  17.926  0.00  0.00    +0.000 NA
ATOM      8  C   UNL     1       3.329   7.489  17.248  0.00  0.00    +0.000 C 
ATOM      9  C   UNL     1       4.463   7.025  18.177  0.00  0.00    +0.000 C 
ATOM     10  C   UNL     1       5.840   7.351  17.612  0.00  0.00    +0.000 C 
BRANCH   7  11
ATOM     11  C   UNL     1       1.921   8.721  18.842  0.00  0.00    +0.000 C 
BRANCH  11  12
ATOM     12  C   UNL     1       1.602  10.035  18.118  0.00  0.00    +0.000 C 
BRANCH  12  13
ATOM     13  C   UNL     1       0.180  10.451  18.363  0.00  0.00    +0.000 A 
ATOM     14  C   UNL     1      -0.861   9.846  17.651  0.00  0.00    +0.000 A 
ATOM     15  C   UNL     1      -2.177  10.252  17.854  0.00  0.00    +0.000 A 
ATOM     16  C   UNL     1      -2.454  11.269  18.766  0.00  0.00    +0.000 A 
ATOM     17  C   UNL     1      -1.420  11.877  19.476  0.00  0.00    +0.000 A 
ATOM     18  C   UNL     1      -0.103  11.473  19.280  0.00  0.00    +0.000 A 
ENDBRANCH  12  13
ENDBRANCH  11  12
ENDBRANCH   7  11
ENDBRANCH   3   4
BRANCH   3  19
ATOM     19  C   UNL     1       5.195   4.354  16.803  0.00  0.00    +0.000 A 
ATOM     20  C   UNL     1       4.757   4.440  15.477  0.00  0.00    +0.000 A 
ATOM     21  C   UNL     1       5.688   4.616  14.447  0.00  0.00    +0.000 A 
ATOM     22  C   UNL     1       7.051   4.677  14.736  0.00  0.00    +0.000 A 
ATOM     23  C   UNL     1       7.491   4.481  16.043  0.00  0.00    +0.000 A 
ATOM     24  C   UNL     1       6.564   4.276  17.067  0.00  0.00    +0.000 A 
ENDBRANCH   3  19
BRANCH   1  25
ATOM     25  C   UNL     1       2.731   2.877  19.250  0.00  0.00    +0.000 C 
ATOM     26  N   UNL     1       1.498   2.510  18.989  0.00  0.00    +0.000 NA
ATOM     27  N   UNL     1       0.421   2.176  18.799  0.00  0.00    +0.000 NA
BRANCH  25  29
ATOM     28  C   UNL     1       2.132   2.851  21.747  0.00  0.00    +0.000 C 
ATOM     29  C   UNL     1       3.126   2.578  20.661  0.00  0.00    +0.000 C 
ATOM     30  O   UNL     1       4.251   2.150  20.885  0.00  0.00    +0.000 OA
ENDBRANCH  25  29
ENDBRANCH   1  25
TORSDOF 7
ENDMDL
MODEL 9
REMARK VINA RESULT:      -7.1      6.122      9.550
REMARK  Name = 
REMARK  9 active torsions:
REMARK  status: ('A' for Active; 'I' for Inactive)
REMARK    1  A    between atoms: C_1  and  C_2
REMARK    2  A    between atoms: C_2  and  C_4
REMARK    3  A    between atoms: C_4  and  C_7
REMARK    4  A    between atoms: N_9  and  C_10
REMARK    5  A    between atoms: N_9  and  C_16
REMARK    6  A    between atoms: N_19  and  C_20
REMARK    7  A    between atoms: C_20  and  C_21
REMARK    8  A    between atoms: C_21  and  C_22
REMARK    9  A    between atoms: C_29  and  C_30
REMARK                            x       y       z     vdW  Elec       q    Type
REMARK                         _______ _______ _______ _____ _____    ______ ____
ROOT
ATOM      1  C   UNL     1      -2.224  10.523  18.294  0.00  0.00    +0.000 C 
ATOM      2  O   UNL     1      -2.251   9.317  18.049  0.00  0.00    +0.000 OA
ATOM      3  N   UNL     1      -1.247  11.157  19.080  0.00  0.00    +0.000 N 
ENDROOT
BRANCH   3   4
ATOM      4  C   UNL     1      -1.187  12.619  19.454  0.00  0.00    +0.000 C 
ATOM      5  C   UNL     1      -0.492  13.485  18.369  0.00  0.00    +0.000 C 
ATOM      6  C   UNL     1       1.037  13.426  18.404  0.00  0.00    +0.000 C 
ATOM      7  N   UNL     1       1.636  13.722  19.711  0.00  0.00    +0.000 NA
ATOM      8  C   UNL     1       1.000  12.935  20.771  0.00  0.00    +0.000 C 
ATOM      9  C   UNL     1      -0.529  13.092  20.797  0.00  0.00    +0.000 C 
ATOM     10  C   UNL     1      -1.131  12.640  22.123  0.00  0.00    +0.000 C 
BRANCH   7  11
ATOM     11  C   UNL     1       1.664  15.171  19.993  0.00  0.00    +0.000 C 
BRANCH  11  12
ATOM     12  C   UNL     1       2.373  15.981  18.901  0.00  0.00    +0.000 C 
BRANCH  12  13
ATOM     13  C   UNL     1       1.409  16.890  18.195  0.00  0.00    +0.000 A 
ATOM     14  C   UNL     1       1.814  17.597  17.058  0.00  0.00    +0.000 A 
ATOM     15  C   UNL     1       0.931  18.464  16.421  0.00  0.00    +0.000 A 
ATOM     16  C   UNL     1      -0.359  18.631  16.923  0.00  0.00    +0.000 A 
ATOM     17  C   UNL     1      -0.767  17.930  18.058  0.00  0.00    +0.000 A 
ATOM     18  C   UNL     1       0.111  17.060  18.697  0.00  0.00    +0.000 A 
ENDBRANCH  12  13
ENDBRANCH  11  12
ENDBRANCH   7  11
ENDBRANCH   3   4
BRANCH   3  19
ATOM     19  C   UNL     1      -0.294  10.265  19.659  0.00  0.00    +0.000 A 
ATOM     20  C   UNL     1      -0.502   9.702  20.924  0.00  0.00    +0.000 A 
ATOM     21  C   UNL     1       0.351   8.693  21.385  0.00  0.00    +0.000 A 
ATOM     22  C   UNL     1       1.422   8.267  20.599  0.00  0.00    +0.000 A 
ATOM     23  C   UNL     1       1.691   8.904  19.391  0.00  0.00    +0.000 A 
ATOM     24  C   UNL     1       0.857   9.931  18.944  0.00  0.00    +0.000 A 
ENDBRANCH   3  19
BRANCH   1  25
ATOM     25  C   UNL     1      -3.393  11.229  17.735  0.00  0.00    +0.000 C 
ATOM     26  N   UNL     1      -3.460  11.321  16.427  0.00  0.00    +0.000 NA
ATOM     27  N   UNL     1      -3.556  11.408  15.292  0.00  0.00    +0.000 NA
BRANCH  25  29
ATOM     28  C   UNL     1      -4.746  12.527  19.491  0.00  0.00    +0.000 C 
ATOM     29  C   UNL     1      -4.708  11.513  18.391  0.00  0.00    +0.000 C 
ATOM     30  O   UNL     1      -5.698  10.889  18.029  0.00  0.00    +0.000 OA
ENDBRANCH  25  29
ENDBRANCH   1  25
TORSDOF 7
ENDMDL
