MODEL 1
REMARK VINA RESULT:      -9.3      0.000      0.000
REMARK  Name = 
REMARK  6 active torsions:
REMARK  status: ('A' for Active; 'I' for Inactive)
REMARK    1  A    between atoms: C_2  and  C_3
REMARK    2  A    between atoms: C_9  and  C_11
REMARK    3  A    between atoms: C_11  and  O_12
REMARK    4  A    between atoms: O_12  and  C_13
REMARK    5  A    between atoms: C_25  and  O_26
REMARK    6  A    between atoms: O_26  and  C_27
REMARK                            x       y       z     vdW  Elec       q    Type
REMARK                         _______ _______ _______ _____ _____    ______ ____
ROOT
ATOM      1  O   UNL     1       3.141   6.983  17.622  0.00  0.00    +0.000 OA
ATOM      2  C   UNL     1       2.714   6.918  18.787  0.00  0.00    +0.000 C 
ATOM      3  N   UNL     1       1.965   7.964  19.261  0.00  0.00    +0.000 N 
ATOM      4  C   UNL     1       1.684   9.071  18.342  0.00  0.00    +0.000 C 
ATOM      5  C   UNL     1       0.933  10.052  19.177  0.00  0.00    +0.000 A 
ATOM      6  C   UNL     1       0.408  11.272  18.801  0.00  0.00    +0.000 A 
ATOM      7  C   UNL     1      -0.166  12.058  19.793  0.00  0.00    +0.000 A 
ATOM      8  F   UNL     1      -0.672  13.251  19.446  0.00  0.00    +0.000 F 
ATOM      9  C   UNL     1      -0.221  11.637  21.136  0.00  0.00    +0.000 A 
ATOM     10  C   UNL     1       0.296  10.390  21.498  0.00  0.00    +0.000 A 
ATOM     11  C   UNL     1       0.852   9.601  20.498  0.00  0.00    +0.000 A 
ATOM     12  C   UNL     1       1.415   8.217  20.588  0.00  0.00    +0.000 C 
ENDROOT
BRANCH   2  13
ATOM     13  C   UNL     1       2.959   5.592  19.557  0.00  0.00    +0.000 C 
ATOM     14  C   UNL     1       2.122   5.115  20.744  0.00  0.00    +0.000 C 
ATOM     15  C   UNL     1       0.871   4.289  20.404  0.00  0.00    +0.000 C 
ATOM     16  C   UNL     1       0.894   3.518  19.078  0.00  0.00    +0.000 C 
ATOM     17  C   UNL     1       1.843   4.065  18.017  0.00  0.00    +0.000 C 
ATOM     18  N   UNL     1       3.100   4.465  18.625  0.00  0.00    +0.000 N 
ATOM     19  C   UNL     1       4.154   3.548  18.640  0.00  0.00    +0.000 C 
ATOM     20  O   UNL     1       4.037   2.435  18.114  0.00  0.00    +0.000 OA
BRANCH  19  21
ATOM     21  C   UNL     1       5.475   3.913  19.337  0.00  0.00    +0.000 C 
BRANCH  21  22
ATOM     22  O   UNL     1       6.510   4.100  18.379  0.00  0.00    +0.000 OA
BRANCH  22  23
ATOM     23  C   UNL     1       6.856   5.403  18.137  0.00  0.00    +0.000 A 
ATOM     24  C   UNL     1       7.857   5.939  18.954  0.00  0.00    +0.000 A 
ATOM     25  C   UNL     1       8.314   7.244  18.759  0.00  0.00    +0.000 A 
ATOM     26  C   UNL     1       7.784   8.018  17.731  0.00  0.00    +0.000 A 
ATOM     27  C   UNL     1       6.802   7.487  16.901  0.00  0.00    +0.000 A 
ATOM     28  C   UNL     1       6.339   6.179  17.104  0.00  0.00    +0.000 A 
ENDBRANCH  22  23
ENDBRANCH  21  22
ENDBRANCH  19  21
ENDBRANCH   2  13
BRANCH   9  29
ATOM     29  O   UNL     1      -0.726  12.556  22.008  0.00  0.00    +0.000 OA
BRANCH  29  30
ATOM     30  C   UNL     1      -2.141  12.654  22.177  0.00  0.00    +0.000 C 
ATOM     31  C   UNL     1      -2.486  14.144  22.160  0.00  0.00    +0.000 C 
ATOM     32  C   UNL     1      -3.895  14.386  22.665  0.00  0.00    +0.000 C 
ATOM     33  O   UNL     1      -4.067  13.816  23.961  0.00  0.00    +0.000 OA
ATOM     34  C   UNL     1      -3.908  12.400  23.952  0.00  0.00    +0.000 C 
ATOM     35  C   UNL     1      -2.504  12.017  23.517  0.00  0.00    +0.000 C 
ENDBRANCH  29  30
ENDBRANCH   9  29
TORSDOF 6
ENDMDL
MODEL 2
REMARK VINA RESULT:      -9.2      0.634      1.105
REMARK  Name = 
REMARK  6 active torsions:
REMARK  status: ('A' for Active; 'I' for Inactive)
REMARK    1  A    between atoms: C_2  and  C_3
REMARK    2  A    between atoms: C_9  and  C_11
REMARK    3  A    between atoms: C_11  and  O_12
REMARK    4  A    between atoms: O_12  and  C_13
REMARK    5  A    between atoms: C_25  and  O_26
REMARK    6  A    between atoms: O_26  and  C_27
REMARK                            x       y       z     vdW  Elec       q    Type
REMARK                         _______ _______ _______ _____ _____    ______ ____
ROOT
ATOM      1  O   UNL     1       2.822   6.712  17.509  0.00  0.00    +0.000 OA
ATOM      2  C   UNL     1       2.560   6.742  18.724  0.00  0.00    +0.000 C 
ATOM      3  N   UNL     1       1.950   7.861  19.227  0.00  0.00    +0.000 N 
ATOM      4  C   UNL     1       1.609   8.931  18.286  0.00  0.00    +0.000 C 
ATOM      5  C   UNL     1       1.043  10.006  19.151  0.00  0.00    +0.000 A 
ATOM      6  C   UNL     1       0.544  11.236  18.772  0.00  0.00    +0.000 A 
ATOM      7  C   UNL     1       0.164  12.114  19.780  0.00  0.00    +0.000 A 
ATOM      8  F   UNL     1      -0.314  13.318  19.430  0.00  0.00    +0.000 F 
ATOM      9  C   UNL     1       0.274  11.774  21.143  0.00  0.00    +0.000 A 
ATOM     10  C   UNL     1       0.762  10.516  21.510  0.00  0.00    +0.000 A 
ATOM     11  C   UNL     1       1.123   9.637  20.497  0.00  0.00    +0.000 A 
ATOM     12  C   UNL     1       1.609   8.225  20.599  0.00  0.00    +0.000 C 
ENDROOT
BRANCH   2  13
ATOM     13  C   UNL     1       2.832   5.447  19.538  0.00  0.00    +0.000 C 
ATOM     14  C   UNL     1       2.009   4.996  20.744  0.00  0.00    +0.000 C 
ATOM     15  C   UNL     1       0.772   4.136  20.438  0.00  0.00    +0.000 C 
ATOM     16  C   UNL     1       0.804   3.321  19.139  0.00  0.00    +0.000 C 
ATOM     17  C   UNL     1       1.738   3.848  18.055  0.00  0.00    +0.000 C 
ATOM     18  N   UNL     1       2.990   4.291  18.644  0.00  0.00    +0.000 N 
ATOM     19  C   UNL     1       4.061   3.394  18.685  0.00  0.00    +0.000 C 
ATOM     20  O   UNL     1       3.961   2.262  18.198  0.00  0.00    +0.000 OA
BRANCH  19  21
ATOM     21  C   UNL     1       5.378   3.807  19.363  0.00  0.00    +0.000 C 
BRANCH  21  22
ATOM     22  O   UNL     1       6.422   3.914  18.403  0.00  0.00    +0.000 OA
BRANCH  22  23
ATOM     23  C   UNL     1       6.878   5.184  18.172  0.00  0.00    +0.000 A 
ATOM     24  C   UNL     1       6.266   5.880  17.125  0.00  0.00    +0.000 A 
ATOM     25  C   UNL     1       6.627   7.198  16.837  0.00  0.00    +0.000 A 
ATOM     26  C   UNL     1       7.594   7.837  17.609  0.00  0.00    +0.000 A 
ATOM     27  C   UNL     1       8.194   7.159  18.665  0.00  0.00    +0.000 A 
ATOM     28  C   UNL     1       7.835   5.832  18.946  0.00  0.00    +0.000 A 
ENDBRANCH  22  23
ENDBRANCH  21  22
ENDBRANCH  19  21
ENDBRANCH   2  13
BRANCH   9  29
ATOM     29  O   UNL     1      -0.046  12.772  22.014  0.00  0.00    +0.000 OA
BRANCH  29  30
ATOM     30  C   UNL     1      -1.212  12.641  22.829  0.00  0.00    +0.000 C 
ATOM     31  C   UNL     1      -2.391  12.414  21.882  0.00  0.00    +0.000 C 
ATOM     32  C   UNL     1      -3.714  12.598  22.600  0.00  0.00    +0.000 C 
ATOM     33  O   UNL     1      -3.772  13.879  23.223  0.00  0.00    +0.000 OA
ATOM     34  C   UNL     1      -2.772  14.035  24.227  0.00  0.00    +0.000 C 
ATOM     35  C   UNL     1      -1.382  13.933  23.626  0.00  0.00    +0.000 C 
ENDBRANCH  29  30
ENDBRANCH   9  29
TORSDOF 6
ENDMDL
MODEL 3
REMARK VINA RESULT:      -8.8      3.256      9.878
REMARK  Name = 
REMARK  6 active torsions:
REMARK  status: ('A' for Active; 'I' for Inactive)
REMARK    1  A    between atoms: C_2  and  C_3
REMARK    2  A    between atoms: C_9  and  C_11
REMARK    3  A    between atoms: C_11  and  O_12
REMARK    4  A    between atoms: O_12  and  C_13
REMARK    5  A    between atoms: C_25  and  O_26
REMARK    6  A    between atoms: O_26  and  C_27
REMARK                            x       y       z     vdW  Elec       q    Type
REMARK                         _______ _______ _______ _____ _____    ______ ____
ROOT
ATOM      1  O   UNL     1       0.417  10.349  22.408  0.00  0.00    +0.000 OA
ATOM      2  C   UNL     1       0.722  10.487  21.211  0.00  0.00    +0.000 C 
ATOM      3  N   UNL     1       1.160   9.386  20.524  0.00  0.00    +0.000 N 
ATOM      4  C   UNL     1       1.198   8.108  21.239  0.00  0.00    +0.000 C 
ATOM      5  C   UNL     1       1.780   7.156  20.249  0.00  0.00    +0.000 A 
ATOM      6  C   UNL     1       2.020   5.805  20.399  0.00  0.00    +0.000 A 
ATOM      7  C   UNL     1       2.671   5.149  19.361  0.00  0.00    +0.000 A 
ATOM      8  F   UNL     1       2.922   3.838  19.494  0.00  0.00    +0.000 F 
ATOM      9  C   UNL     1       3.072   5.823  18.191  0.00  0.00    +0.000 A 
ATOM     10  C   UNL     1       2.802   7.187  18.045  0.00  0.00    +0.000 A 
ATOM     11  C   UNL     1       2.136   7.833  19.079  0.00  0.00    +0.000 A 
ATOM     12  C   UNL     1       1.670   9.253  19.163  0.00  0.00    +0.000 C 
ENDROOT
BRANCH   2  13
ATOM     13  C   UNL     1       0.452  11.876  20.569  0.00  0.00    +0.000 C 
ATOM     14  C   UNL     1      -0.083  12.082  19.152  0.00  0.00    +0.000 C 
ATOM     15  C   UNL     1      -1.612  12.093  18.998  0.00  0.00    +0.000 C 
ATOM     16  C   UNL     1      -2.425  12.510  20.231  0.00  0.00    +0.000 C 
ATOM     17  C   UNL     1      -1.726  12.324  21.573  0.00  0.00    +0.000 C 
ATOM     18  N   UNL     1      -0.333  12.726  21.474  0.00  0.00    +0.000 N 
ATOM     19  C   UNL     1       0.010  14.031  21.836  0.00  0.00    +0.000 C 
ATOM     20  O   UNL     1      -0.842  14.817  22.269  0.00  0.00    +0.000 OA
BRANCH  19  21
ATOM     21  C   UNL     1       1.462  14.512  21.678  0.00  0.00    +0.000 C 
BRANCH  21  22
ATOM     22  O   UNL     1       1.503  15.762  21.000  0.00  0.00    +0.000 OA
BRANCH  22  23
ATOM     23  C   UNL     1       2.172  15.760  19.805  0.00  0.00    +0.000 A 
ATOM     24  C   UNL     1       2.849  14.582  19.477  0.00  0.00    +0.000 A 
ATOM     25  C   UNL     1       3.524  14.462  18.261  0.00  0.00    +0.000 A 
ATOM     26  C   UNL     1       3.511  15.517  17.353  0.00  0.00    +0.000 A 
ATOM     27  C   UNL     1       2.822  16.686  17.662  0.00  0.00    +0.000 A 
ATOM     28  C   UNL     1       2.152  16.807  18.888  0.00  0.00    +0.000 A 
ENDBRANCH  22  23
ENDBRANCH  21  22
ENDBRANCH  19  21
ENDBRANCH   2  13
BRANCH   9  29
ATOM     29  O   UNL     1       3.783   5.069  17.305  0.00  0.00    +0.000 OA
BRANCH  29  30
ATOM     30  C   UNL     1       5.118   5.455  16.972  0.00  0.00    +0.000 C 
ATOM     31  C   UNL     1       5.474   4.735  15.671  0.00  0.00    +0.000 C 
ATOM     32  C   UNL     1       6.965   4.797  15.401  0.00  0.00    +0.000 C 
ATOM     33  O   UNL     1       7.696   4.281  16.511  0.00  0.00    +0.000 OA
ATOM     34  C   UNL     1       7.494   5.050  17.693  0.00  0.00    +0.000 C 
ATOM     35  C   UNL     1       6.035   5.022  18.114  0.00  0.00    +0.000 C 
ENDBRANCH  29  30
ENDBRANCH   9  29
TORSDOF 6
ENDMDL
MODEL 4
REMARK VINA RESULT:      -8.7      1.219      1.652
REMARK  Name = 
REMARK  6 active torsions:
REMARK  status: ('A' for Active; 'I' for Inactive)
REMARK    1  A    between atoms: C_2  and  C_3
REMARK    2  A    between atoms: C_9  and  C_11
REMARK    3  A    between atoms: C_11  and  O_12
REMARK    4  A    between atoms: O_12  and  C_13
REMARK    5  A    between atoms: C_25  and  O_26
REMARK    6  A    between atoms: O_26  and  C_27
REMARK                            x       y       z     vdW  Elec       q    Type
REMARK                         _______ _______ _______ _____ _____    ______ ____
ROOT
ATOM      1  O   UNL     1       2.487   7.077  17.741  0.00  0.00    +0.000 OA
ATOM      2  C   UNL     1       2.325   7.008  18.971  0.00  0.00    +0.000 C 
ATOM      3  N   UNL     1       1.676   8.039  19.598  0.00  0.00    +0.000 N 
ATOM      4  C   UNL     1       1.178   9.137  18.764  0.00  0.00    +0.000 C 
ATOM      5  C   UNL     1       0.606  10.104  19.743  0.00  0.00    +0.000 A 
ATOM      6  C   UNL     1      -0.014  11.312  19.492  0.00  0.00    +0.000 A 
ATOM      7  C   UNL     1      -0.375  12.089  20.586  0.00  0.00    +0.000 A 
ATOM      8  F   UNL     1      -0.969  13.271  20.360  0.00  0.00    +0.000 F 
ATOM      9  C   UNL     1      -0.127  11.672  21.909  0.00  0.00    +0.000 A 
ATOM     10  C   UNL     1       0.483  10.437  22.148  0.00  0.00    +0.000 A 
ATOM     11  C   UNL     1       0.825   9.657  21.050  0.00  0.00    +0.000 A 
ATOM     12  C   UNL     1       1.423   8.285  21.014  0.00  0.00    +0.000 C 
ENDROOT
BRANCH   2  13
ATOM     13  C   UNL     1       2.760   5.689  19.668  0.00  0.00    +0.000 C 
ATOM     14  C   UNL     1       2.034   5.061  20.857  0.00  0.00    +0.000 C 
ATOM     15  C   UNL     1       0.882   4.101  20.519  0.00  0.00    +0.000 C 
ATOM     16  C   UNL     1       0.949   3.398  19.157  0.00  0.00    +0.000 C 
ATOM     17  C   UNL     1       1.782   4.105  18.093  0.00  0.00    +0.000 C 
ATOM     18  N   UNL     1       3.003   4.631  18.679  0.00  0.00    +0.000 N 
ATOM     19  C   UNL     1       4.161   3.852  18.615  0.00  0.00    +0.000 C 
ATOM     20  O   UNL     1       4.161   2.757  18.040  0.00  0.00    +0.000 OA
BRANCH  19  21
ATOM     21  C   UNL     1       5.454   4.347  19.285  0.00  0.00    +0.000 C 
BRANCH  21  22
ATOM     22  O   UNL     1       6.001   5.444  18.564  0.00  0.00    +0.000 OA
BRANCH  22  23
ATOM     23  C   UNL     1       6.115   5.259  17.212  0.00  0.00    +0.000 A 
ATOM     24  C   UNL     1       5.282   6.041  16.407  0.00  0.00    +0.000 A 
ATOM     25  C   UNL     1       5.352   5.961  15.015  0.00  0.00    +0.000 A 
ATOM     26  C   UNL     1       6.273   5.106  14.416  0.00  0.00    +0.000 A 
ATOM     27  C   UNL     1       7.121   4.338  15.208  0.00  0.00    +0.000 A 
ATOM     28  C   UNL     1       7.042   4.415  16.606  0.00  0.00    +0.000 A 
ENDBRANCH  22  23
ENDBRANCH  21  22
ENDBRANCH  19  21
ENDBRANCH   2  13
BRANCH   9  29
ATOM     29  O   UNL     1      -0.449  12.583  22.871  0.00  0.00    +0.000 OA
BRANCH  29  30
ATOM     30  C   UNL     1      -1.790  13.069  22.952  0.00  0.00    +0.000 C 
ATOM     31  C   UNL     1      -1.774  14.251  23.922  0.00  0.00    +0.000 C 
ATOM     32  C   UNL     1      -3.180  14.631  24.347  0.00  0.00    +0.000 C 
ATOM     33  O   UNL     1      -3.858  13.502  24.894  0.00  0.00    +0.000 OA
ATOM     34  C   UNL     1      -4.022  12.457  23.939  0.00  0.00    +0.000 C 
ATOM     35  C   UNL     1      -2.674  11.937  23.471  0.00  0.00    +0.000 C 
ENDBRANCH  29  30
ENDBRANCH   9  29
TORSDOF 6
ENDMDL
MODEL 5
REMARK VINA RESULT:      -8.6      1.239      1.700
REMARK  Name = 
REMARK  6 active torsions:
REMARK  status: ('A' for Active; 'I' for Inactive)
REMARK    1  A    between atoms: C_2  and  C_3
REMARK    2  A    between atoms: C_9  and  C_11
REMARK    3  A    between atoms: C_11  and  O_12
REMARK    4  A    between atoms: O_12  and  C_13
REMARK    5  A    between atoms: C_25  and  O_26
REMARK    6  A    between atoms: O_26  and  C_27
REMARK                            x       y       z     vdW  Elec       q    Type
REMARK                         _______ _______ _______ _____ _____    ______ ____
ROOT
ATOM      1  O   UNL     1       2.918   7.464  17.638  0.00  0.00    +0.000 OA
ATOM      2  C   UNL     1       2.498   7.367  18.803  0.00  0.00    +0.000 C 
ATOM      3  N   UNL     1       1.618   8.315  19.255  0.00  0.00    +0.000 N 
ATOM      4  C   UNL     1       1.201   9.359  18.315  0.00  0.00    +0.000 C 
ATOM      5  C   UNL     1       0.325  10.250  19.129  0.00  0.00    +0.000 A 
ATOM      6  C   UNL     1      -0.352  11.385  18.728  0.00  0.00    +0.000 A 
ATOM      7  C   UNL     1      -1.027  12.108  19.704  0.00  0.00    +0.000 A 
ATOM      8  F   UNL     1      -1.681  13.220  19.333  0.00  0.00    +0.000 F 
ATOM      9  C   UNL     1      -1.032  11.710  21.055  0.00  0.00    +0.000 A 
ATOM     10  C   UNL     1      -0.360  10.547  21.442  0.00  0.00    +0.000 A 
ATOM     11  C   UNL     1       0.298   9.818  20.458  0.00  0.00    +0.000 A 
ATOM     12  C   UNL     1       1.034   8.520  20.577  0.00  0.00    +0.000 C 
ENDROOT
BRANCH   2  13
ATOM     13  C   UNL     1       2.909   6.098  19.599  0.00  0.00    +0.000 C 
ATOM     14  C   UNL     1       2.171   5.575  20.831  0.00  0.00    +0.000 C 
ATOM     15  C   UNL     1       1.002   4.612  20.565  0.00  0.00    +0.000 C 
ATOM     16  C   UNL     1       1.057   3.806  19.261  0.00  0.00    +0.000 C 
ATOM     17  C   UNL     1       1.903   4.415  18.147  0.00  0.00    +0.000 C 
ATOM     18  N   UNL     1       3.133   4.962  18.694  0.00  0.00    +0.000 N 
ATOM     19  C   UNL     1       4.278   4.161  18.692  0.00  0.00    +0.000 C 
ATOM     20  O   UNL     1       4.258   3.025  18.202  0.00  0.00    +0.000 OA
BRANCH  19  21
ATOM     21  C   UNL     1       5.578   4.683  19.325  0.00  0.00    +0.000 C 
BRANCH  21  22
ATOM     22  O   UNL     1       6.164   5.687  18.505  0.00  0.00    +0.000 OA
BRANCH  22  23
ATOM     23  C   UNL     1       6.239   5.386  17.172  0.00  0.00    +0.000 A 
ATOM     24  C   UNL     1       5.411   6.126  16.322  0.00  0.00    +0.000 A 
ATOM     25  C   UNL     1       5.446   5.927  14.940  0.00  0.00    +0.000 A 
ATOM     26  C   UNL     1       6.326   4.996  14.396  0.00  0.00    +0.000 A 
ATOM     27  C   UNL     1       7.168   4.269  15.231  0.00  0.00    +0.000 A 
ATOM     28  C   UNL     1       7.125   4.465  16.619  0.00  0.00    +0.000 A 
ENDBRANCH  22  23
ENDBRANCH  21  22
ENDBRANCH  19  21
ENDBRANCH   2  13
BRANCH   9  29
ATOM     29  O   UNL     1      -1.656  12.572  21.908  0.00  0.00    +0.000 OA
BRANCH  29  30
ATOM     30  C   UNL     1      -2.935  12.225  22.441  0.00  0.00    +0.000 C 
ATOM     31  C   UNL     1      -3.971  13.046  21.673  0.00  0.00    +0.000 C 
ATOM     32  C   UNL     1      -5.318  13.019  22.370  0.00  0.00    +0.000 C 
ATOM     33  O   UNL     1      -5.191  13.454  23.722  0.00  0.00    +0.000 OA
ATOM     34  C   UNL     1      -4.352  12.594  24.488  0.00  0.00    +0.000 C 
ATOM     35  C   UNL     1      -2.940  12.576  23.927  0.00  0.00    +0.000 C 
ENDBRANCH  29  30
ENDBRANCH   9  29
TORSDOF 6
ENDMDL
MODEL 6
REMARK VINA RESULT:      -8.5      2.997      9.890
REMARK  Name = 
REMARK  6 active torsions:
REMARK  status: ('A' for Active; 'I' for Inactive)
REMARK    1  A    between atoms: C_2  and  C_3
REMARK    2  A    between atoms: C_9  and  C_11
REMARK    3  A    between atoms: C_11  and  O_12
REMARK    4  A    between atoms: O_12  and  C_13
REMARK    5  A    between atoms: C_25  and  O_26
REMARK    6  A    between atoms: O_26  and  C_27
REMARK                            x       y       z     vdW  Elec       q    Type
REMARK                         _______ _______ _______ _____ _____    ______ ____
ROOT
ATOM      1  O   UNL     1       0.327  10.571  22.721  0.00  0.00    +0.000 OA
ATOM      2  C   UNL     1       0.381  10.695  21.485  0.00  0.00    +0.000 C 
ATOM      3  N   UNL     1       0.880   9.651  20.751  0.00  0.00    +0.000 N 
ATOM      4  C   UNL     1       1.277   8.440  21.473  0.00  0.00    +0.000 C 
ATOM      5  C   UNL     1       1.834   7.552  20.411  0.00  0.00    +0.000 A 
ATOM      6  C   UNL     1       2.338   6.274  20.541  0.00  0.00    +0.000 A 
ATOM      7  C   UNL     1       2.898   5.686  19.413  0.00  0.00    +0.000 A 
ATOM      8  F   UNL     1       3.402   4.448  19.524  0.00  0.00    +0.000 F 
ATOM      9  C   UNL     1       2.952   6.356  18.175  0.00  0.00    +0.000 A 
ATOM     10  C   UNL     1       2.418   7.642  18.054  0.00  0.00    +0.000 A 
ATOM     11  C   UNL     1       1.844   8.217  19.181  0.00  0.00    +0.000 A 
ATOM     12  C   UNL     1       1.151   9.536  19.321  0.00  0.00    +0.000 C 
ENDROOT
BRANCH   2  13
ATOM     13  C   UNL     1      -0.248  11.978  20.876  0.00  0.00    +0.000 C 
ATOM     14  C   UNL     1      -1.268  12.863  21.592  0.00  0.00    +0.000 C 
ATOM     15  C   UNL     1      -0.695  13.978  22.481  0.00  0.00    +0.000 C 
ATOM     16  C   UNL     1       0.703  14.497  22.119  0.00  0.00    +0.000 C 
ATOM     17  C   UNL     1       1.579  13.530  21.329  0.00  0.00    +0.000 C 
ATOM     18  N   UNL     1       0.790  12.853  20.314  0.00  0.00    +0.000 N 
ATOM     19  C   UNL     1       0.767  13.387  19.023  0.00  0.00    +0.000 C 
ATOM     20  O   UNL     1       1.432  14.390  18.737  0.00  0.00    +0.000 OA
BRANCH  19  21
ATOM     21  C   UNL     1      -0.112  12.736  17.942  0.00  0.00    +0.000 C 
BRANCH  21  22
ATOM     22  O   UNL     1      -1.490  12.918  18.244  0.00  0.00    +0.000 OA
BRANCH  22  23
ATOM     23  C   UNL     1      -2.302  11.858  17.941  0.00  0.00    +0.000 A 
ATOM     24  C   UNL     1      -1.718  10.822  17.207  0.00  0.00    +0.000 A 
ATOM     25  C   UNL     1      -2.448   9.674  16.886  0.00  0.00    +0.000 A 
ATOM     26  C   UNL     1      -3.766   9.549  17.316  0.00  0.00    +0.000 A 
ATOM     27  C   UNL     1      -4.349  10.565  18.065  0.00  0.00    +0.000 A 
ATOM     28  C   UNL     1      -3.617  11.720  18.378  0.00  0.00    +0.000 A 
ENDBRANCH  22  23
ENDBRANCH  21  22
ENDBRANCH  19  21
ENDBRANCH   2  13
BRANCH   9  29
ATOM     29  O   UNL     1       3.616   5.690  17.188  0.00  0.00    +0.000 OA
BRANCH  29  30
ATOM     30  C   UNL     1       5.017   5.444  17.331  0.00  0.00    +0.000 C 
ATOM     31  C   UNL     1       5.712   6.806  17.283  0.00  0.00    +0.000 C 
ATOM     32  C   UNL     1       7.208   6.650  17.085  0.00  0.00    +0.000 C 
ATOM     33  O   UNL     1       7.480   5.873  15.921  0.00  0.00    +0.000 OA
ATOM     34  C   UNL     1       6.974   4.545  16.030  0.00  0.00    +0.000 C 
ATOM     35  C   UNL     1       5.462   4.553  16.173  0.00  0.00    +0.000 C 
ENDBRANCH  29  30
ENDBRANCH   9  29
TORSDOF 6
ENDMDL
MODEL 7
REMARK VINA RESULT:      -8.4      1.192      1.727
REMARK  Name = 
REMARK  6 active torsions:
REMARK  status: ('A' for Active; 'I' for Inactive)
REMARK    1  A    between atoms: C_2  and  C_3
REMARK    2  A    between atoms: C_9  and  C_11
REMARK    3  A    between atoms: C_11  and  O_12
REMARK    4  A    between atoms: O_12  and  C_13
REMARK    5  A    between atoms: C_25  and  O_26
REMARK    6  A    between atoms: O_26  and  C_27
REMARK                            x       y       z     vdW  Elec       q    Type
REMARK                         _______ _______ _______ _____ _____    ______ ____
ROOT
ATOM      1  O   UNL     1       3.213   7.026  17.538  0.00  0.00    +0.000 OA
ATOM      2  C   UNL     1       2.736   6.970  18.684  0.00  0.00    +0.000 C 
ATOM      3  N   UNL     1       1.889   7.972  19.082  0.00  0.00    +0.000 N 
ATOM      4  C   UNL     1       1.572   9.021  18.109  0.00  0.00    +0.000 C 
ATOM      5  C   UNL     1       0.710   9.970  18.870  0.00  0.00    +0.000 A 
ATOM      6  C   UNL     1       0.114  11.133  18.424  0.00  0.00    +0.000 A 
ATOM      7  C   UNL     1      -0.564  11.907  19.357  0.00  0.00    +0.000 A 
ATOM      8  F   UNL     1      -1.140  13.046  18.942  0.00  0.00    +0.000 F 
ATOM      9  C   UNL     1      -0.653  11.531  20.711  0.00  0.00    +0.000 A 
ATOM     10  C   UNL     1      -0.062  10.340  21.145  0.00  0.00    +0.000 A 
ATOM     11  C   UNL     1       0.599   9.562  20.203  0.00  0.00    +0.000 A 
ATOM     12  C   UNL     1       1.258   8.228  20.372  0.00  0.00    +0.000 C 
ENDROOT
BRANCH   2  13
ATOM     13  C   UNL     1       3.041   5.694  19.515  0.00  0.00    +0.000 C 
ATOM     14  C   UNL     1       2.261   5.266  20.757  0.00  0.00    +0.000 C 
ATOM     15  C   UNL     1       1.018   4.395  20.512  0.00  0.00    +0.000 C 
ATOM     16  C   UNL     1       1.010   3.552  19.230  0.00  0.00    +0.000 C 
ATOM     17  C   UNL     1       1.905   4.060  18.105  0.00  0.00    +0.000 C 
ATOM     18  N   UNL     1       3.174   4.521  18.641  0.00  0.00    +0.000 N 
ATOM     19  C   UNL     1       4.250   3.629  18.665  0.00  0.00    +0.000 C 
ATOM     20  O   UNL     1       4.140   2.486  18.206  0.00  0.00    +0.000 OA
BRANCH  19  21
ATOM     21  C   UNL     1       5.587   4.061  19.290  0.00  0.00    +0.000 C 
BRANCH  21  22
ATOM     22  O   UNL     1       6.568   4.262  18.279  0.00  0.00    +0.000 OA
BRANCH  22  23
ATOM     23  C   UNL     1       6.947   5.562  18.079  0.00  0.00    +0.000 A 
ATOM     24  C   UNL     1       7.909   6.069  18.957  0.00  0.00    +0.000 A 
ATOM     25  C   UNL     1       8.396   7.370  18.810  0.00  0.00    +0.000 A 
ATOM     26  C   UNL     1       7.934   8.169  17.768  0.00  0.00    +0.000 A 
ATOM     27  C   UNL     1       6.991   7.667  16.877  0.00  0.00    +0.000 A 
ATOM     28  C   UNL     1       6.498   6.363  17.032  0.00  0.00    +0.000 A 
ENDBRANCH  22  23
ENDBRANCH  21  22
ENDBRANCH  19  21
ENDBRANCH   2  13
BRANCH   9  29
ATOM     29  O   UNL     1      -1.267  12.439  21.523  0.00  0.00    +0.000 OA
BRANCH  29  30
ATOM     30  C   UNL     1      -0.468  13.311  22.325  0.00  0.00    +0.000 C 
ATOM     31  C   UNL     1      -1.378  14.454  22.775  0.00  0.00    +0.000 C 
ATOM     32  C   UNL     1      -0.571  15.607  23.343  0.00  0.00    +0.000 C 
ATOM     33  O   UNL     1       0.406  16.044  22.401  0.00  0.00    +0.000 OA
ATOM     34  C   UNL     1       1.359  15.027  22.102  0.00  0.00    +0.000 C 
ATOM     35  C   UNL     1       0.684  13.825  21.465  0.00  0.00    +0.000 C 
ENDBRANCH  29  30
ENDBRANCH   9  29
TORSDOF 6
ENDMDL
MODEL 8
REMARK VINA RESULT:      -8.4      3.377     10.646
REMARK  Name = 
REMARK  6 active torsions:
REMARK  status: ('A' for Active; 'I' for Inactive)
REMARK    1  A    between atoms: C_2  and  C_3
REMARK    2  A    between atoms: C_9  and  C_11
REMARK    3  A    between atoms: C_11  and  O_12
REMARK    4  A    between atoms: O_12  and  C_13
REMARK    5  A    between atoms: C_25  and  O_26
REMARK    6  A    between atoms: O_26  and  C_27
REMARK                            x       y       z     vdW  Elec       q    Type
REMARK                         _______ _______ _______ _____ _____    ______ ____
ROOT
ATOM      1  O   UNL     1      -0.767  13.106  18.555  0.00  0.00    +0.000 OA
ATOM      2  C   UNL     1      -0.607  12.496  19.626  0.00  0.00    +0.000 C 
ATOM      3  N   UNL     1       0.144  11.349  19.612  0.00  0.00    +0.000 N 
ATOM      4  C   UNL     1       0.742  10.943  18.338  0.00  0.00    +0.000 C 
ATOM      5  C   UNL     1       1.411   9.647  18.650  0.00  0.00    +0.000 A 
ATOM      6  C   UNL     1       2.146   8.838  17.806  0.00  0.00    +0.000 A 
ATOM      7  C   UNL     1       2.586   7.619  18.307  0.00  0.00    +0.000 A 
ATOM      8  F   UNL     1       3.292   6.815  17.498  0.00  0.00    +0.000 F 
ATOM      9  C   UNL     1       2.304   7.212  19.627  0.00  0.00    +0.000 A 
ATOM     10  C   UNL     1       1.577   8.052  20.475  0.00  0.00    +0.000 A 
ATOM     11  C   UNL     1       1.156   9.277  19.974  0.00  0.00    +0.000 A 
ATOM     12  C   UNL     1       0.427  10.384  20.669  0.00  0.00    +0.000 C 
ENDROOT
BRANCH   2  13
ATOM     13  C   UNL     1      -1.165  13.167  20.911  0.00  0.00    +0.000 C 
ATOM     14  C   UNL     1      -0.322  13.524  22.134  0.00  0.00    +0.000 C 
ATOM     15  C   UNL     1       0.349  14.907  22.116  0.00  0.00    +0.000 C 
ATOM     16  C   UNL     1      -0.326  15.989  21.263  0.00  0.00    +0.000 C 
ATOM     17  C   UNL     1      -1.206  15.477  20.128  0.00  0.00    +0.000 C 
ATOM     18  N   UNL     1      -1.988  14.336  20.575  0.00  0.00    +0.000 N 
ATOM     19  C   UNL     1      -3.283  14.562  21.051  0.00  0.00    +0.000 C 
ATOM     20  O   UNL     1      -3.769  15.699  21.057  0.00  0.00    +0.000 OA
BRANCH  19  21
ATOM     21  C   UNL     1      -4.112  13.387  21.596  0.00  0.00    +0.000 C 
BRANCH  21  22
ATOM     22  O   UNL     1      -5.467  13.497  21.177  0.00  0.00    +0.000 OA
BRANCH  22  23
ATOM     23  C   UNL     1      -5.945  12.436  20.455  0.00  0.00    +0.000 A 
ATOM     24  C   UNL     1      -5.279  12.151  19.259  0.00  0.00    +0.000 A 
ATOM     25  C   UNL     1      -5.660  11.063  18.472  0.00  0.00    +0.000 A 
ATOM     26  C   UNL     1      -6.702  10.239  18.886  0.00  0.00    +0.000 A 
ATOM     27  C   UNL     1      -7.358  10.502  20.084  0.00  0.00    +0.000 A 
ATOM     28  C   UNL     1      -6.979  11.601  20.868  0.00  0.00    +0.000 A 
ENDBRANCH  22  23
ENDBRANCH  21  22
ENDBRANCH  19  21
ENDBRANCH   2  13
BRANCH   9  29
ATOM     29  O   UNL     1       2.719   5.952  19.942  0.00  0.00    +0.000 OA
BRANCH  29  30
ATOM     30  C   UNL     1       1.744   4.928  20.152  0.00  0.00    +0.000 C 
ATOM     31  C   UNL     1       2.239   4.081  21.325  0.00  0.00    +0.000 C 
ATOM     32  C   UNL     1       1.470   2.777  21.422  0.00  0.00    +0.000 C 
ATOM     33  O   UNL     1       1.536   2.065  20.188  0.00  0.00    +0.000 OA
ATOM     34  C   UNL     1       0.926   2.784  19.119  0.00  0.00    +0.000 C 
ATOM     35  C   UNL     1       1.645   4.099  18.873  0.00  0.00    +0.000 C 
ENDBRANCH  29  30
ENDBRANCH   9  29
TORSDOF 6
ENDMDL
MODEL 9
REMARK VINA RESULT:      -8.3      0.694      1.095
REMARK  Name = 
REMARK  6 active torsions:
REMARK  status: ('A' for Active; 'I' for Inactive)
REMARK    1  A    between atoms: C_2  and  C_3
REMARK    2  A    between atoms: C_9  and  C_11
REMARK    3  A    between atoms: C_11  and  O_12
REMARK    4  A    between atoms: O_12  and  C_13
REMARK    5  A    between atoms: C_25  and  O_26
REMARK    6  A    between atoms: O_26  and  C_27
REMARK                            x       y       z     vdW  Elec       q    Type
REMARK                         _______ _______ _______ _____ _____    ______ ____
ROOT
ATOM      1  O   UNL     1       2.489   6.535  17.482  0.00  0.00    +0.000 OA
ATOM      2  C   UNL     1       2.372   6.666  18.713  0.00  0.00    +0.000 C 
ATOM      3  N   UNL     1       1.858   7.842  19.193  0.00  0.00    +0.000 N 
ATOM      4  C   UNL     1       1.441   8.851  18.216  0.00  0.00    +0.000 C 
ATOM      5  C   UNL     1       1.011  10.009  19.052  0.00  0.00    +0.000 A 
ATOM      6  C   UNL     1       0.508  11.225  18.638  0.00  0.00    +0.000 A 
ATOM      7  C   UNL     1       0.274  12.190  19.610  0.00  0.00    +0.000 A 
ATOM      8  F   UNL     1      -0.206  13.381  19.224  0.00  0.00    +0.000 F 
ATOM      9  C   UNL     1       0.533  11.948  20.974  0.00  0.00    +0.000 A 
ATOM     10  C   UNL     1       1.023  10.703  21.381  0.00  0.00    +0.000 A 
ATOM     11  C   UNL     1       1.237   9.738  20.405  0.00  0.00    +0.000 A 
ATOM     12  C   UNL     1       1.690   8.320  20.561  0.00  0.00    +0.000 C 
ENDROOT
BRANCH   2  13
ATOM     13  C   UNL     1       2.699   5.426  19.589  0.00  0.00    +0.000 C 
ATOM     14  C   UNL     1       1.887   4.993  20.809  0.00  0.00    +0.000 C 
ATOM     15  C   UNL     1       0.696   4.060  20.536  0.00  0.00    +0.000 C 
ATOM     16  C   UNL     1       0.780   3.187  19.277  0.00  0.00    +0.000 C 
ATOM     17  C   UNL     1       1.698   3.707  18.176  0.00  0.00    +0.000 C 
ATOM     18  N   UNL     1       2.921   4.239  18.753  0.00  0.00    +0.000 N 
ATOM     19  C   UNL     1       4.034   3.398  18.844  0.00  0.00    +0.000 C 
ATOM     20  O   UNL     1       3.994   2.240  18.410  0.00  0.00    +0.000 OA
BRANCH  19  21
ATOM     21  C   UNL     1       5.323   3.906  19.511  0.00  0.00    +0.000 C 
BRANCH  21  22
ATOM     22  O   UNL     1       6.355   4.065  18.546  0.00  0.00    +0.000 OA
BRANCH  22  23
ATOM     23  C   UNL     1       6.652   5.360  18.213  0.00  0.00    +0.000 A 
ATOM     24  C   UNL     1       7.779   5.914  18.827  0.00  0.00    +0.000 A 
ATOM     25  C   UNL     1       8.193   7.212  18.520  0.00  0.00    +0.000 A 
ATOM     26  C   UNL     1       7.490   7.961  17.581  0.00  0.00    +0.000 A 
ATOM     27  C   UNL     1       6.379   7.411  16.950  0.00  0.00    +0.000 A 
ATOM     28  C   UNL     1       5.960   6.110  17.266  0.00  0.00    +0.000 A 
ENDBRANCH  22  23
ENDBRANCH  21  22
ENDBRANCH  19  21
ENDBRANCH   2  13
BRANCH   9  29
ATOM     29  O   UNL     1       0.345  13.020  21.795  0.00  0.00    +0.000 OA
BRANCH  29  30
ATOM     30  C   UNL     1      -0.812  13.065  22.632  0.00  0.00    +0.000 C 
ATOM     31  C   UNL     1      -1.227  11.617  22.892  0.00  0.00    +0.000 C 
ATOM     32  C   UNL     1      -2.624  11.544  23.480  0.00  0.00    +0.000 C 
ATOM     33  O   UNL     1      -3.555  12.221  22.639  0.00  0.00    +0.000 OA
ATOM     34  C   UNL     1      -3.266  13.612  22.526  0.00  0.00    +0.000 C 
ATOM     35  C   UNL     1      -1.905  13.831  21.889  0.00  0.00    +0.000 C 
ENDBRANCH  29  30
ENDBRANCH   9  29
TORSDOF 6
ENDMDL
