MODEL 1
REMARK VINA RESULT:      -8.1      0.000      0.000
REMARK  Name = 
REMARK  15 active torsions:
REMARK  status: ('A' for Active; 'I' for Inactive)
REMARK    1  A    between atoms: C_1  and  C_2
REMARK    2  A    between atoms: C_2  and  C_3
REMARK    3  A    between atoms: C_3  and  C_4
REMARK    4  A    between atoms: C_4  and  C_5
REMARK    5  A    between atoms: C_5  and  C_6
REMARK    6  A    between atoms: C_5  and  N_9
REMARK    7  A    between atoms: C_6  and  O_8
REMARK    8  A    between atoms: C_12  and  C_13
REMARK    9  A    between atoms: C_15  and  C_16
REMARK   10  A    between atoms: C_20  and  O_21
REMARK   11  A    between atoms: O_21  and  C_22
REMARK   12  A    between atoms: C_25  and  C_26
REMARK   13  A    between atoms: C_26  and  C_27
REMARK   14  A    between atoms: C_26  and  C_28
REMARK   15  A    between atoms: C_26  and  C_29
REMARK                            x       y       z     vdW  Elec       q    Type
REMARK                         _______ _______ _______ _____ _____    ______ ____
ROOT
ATOM      1  C   UNL     1       2.626   6.980  19.332  0.00  0.00    +0.000 A 
ATOM      2  C   UNL     1       2.889   7.389  18.018  0.00  0.00    +0.000 A 
ATOM      3  C   UNL     1       2.344   8.573  17.522  0.00  0.00    +0.000 A 
ATOM      4  C   UNL     1       1.527   9.366  18.331  0.00  0.00    +0.000 A 
ATOM      5  C   UNL     1       1.250   8.970  19.639  0.00  0.00    +0.000 A 
ATOM      6  C   UNL     1       1.756   7.759  20.116  0.00  0.00    +0.000 A 
ENDROOT
BRANCH   1  13
ATOM      7  N   UNL     1       3.856   4.803  19.016  0.00  0.00    +0.000 N 
ATOM      8  C   UNL     1       3.487   3.478  19.202  0.00  0.00    +0.000 C 
ATOM      9  O   UNL     1       4.069   2.548  18.646  0.00  0.00    +0.000 OA
ATOM     10  C   UNL     1       2.185   3.327  19.958  0.00  0.00    +0.000 C 
ATOM     11  C   UNL     1       1.060   3.217  18.935  0.00  0.00    +0.000 C 
ATOM     12  S   UNL     1       2.001   4.844  20.910  0.00  0.00    +0.000 S 
ATOM     13  C   UNL     1       3.234   5.744  19.937  0.00  0.00    +0.000 C 
BRANCH   7  14
ATOM     14  C   UNL     1       4.968   5.132  18.085  0.00  0.00    +0.000 C 
BRANCH  14  15
ATOM     15  C   UNL     1       6.331   4.925  18.805  0.00  0.00    +0.000 C 
ATOM     16  O   UNL     1       6.651   5.433  19.868  0.00  0.00    +0.000 OA
BRANCH  15  17
ATOM     17  O   UNL     1       7.169   4.076  18.155  0.00  0.00    +0.000 OA
ATOM     18  H   UNL     1       7.803   4.524  17.548  0.00  0.00    +0.000 HD
ENDBRANCH  15  17
ENDBRANCH  14  15
BRANCH  14  19
ATOM     19  C   UNL     1       5.031   4.414  16.721  0.00  0.00    +0.000 C 
BRANCH  19  20
ATOM     20  C   UNL     1       5.474   5.257  15.527  0.00  0.00    +0.000 C 
BRANCH  20  22
ATOM     21  C   UNL     1       6.187   3.935  13.524  0.00  0.00    +0.000 C 
ATOM     22  C   UNL     1       6.656   4.656  14.775  0.00  0.00    +0.000 C 
ENDBRANCH  20  22
ENDBRANCH  19  20
ENDBRANCH  14  19
ENDBRANCH   7  14
ENDBRANCH   1  13
BRANCH   5  23
ATOM     23  O   UNL     1       0.450   9.796  20.401  0.00  0.00    +0.000 OA
BRANCH  23  24
ATOM     24  C   UNL     1       0.559  11.162  20.231  0.00  0.00    +0.000 A 
ATOM     25  C   UNL     1       1.547  11.937  20.832  0.00  0.00    +0.000 A 
ATOM     26  C   UNL     1       1.583  13.317  20.634  0.00  0.00    +0.000 A 
ATOM     27  C   UNL     1       0.685  13.965  19.770  0.00  0.00    +0.000 A 
ATOM     28  C   UNL     1      -0.286  13.157  19.142  0.00  0.00    +0.000 A 
ATOM     29  C   UNL     1      -0.351  11.777  19.369  0.00  0.00    +0.000 A 
BRANCH  27  30
ATOM     30  C   UNL     1       0.798  15.474  19.472  0.00  0.00    +0.000 C 
ATOM     31  C   UNL     1       1.019  16.320  20.750  0.00  0.00    +0.000 C 
ATOM     32  C   UNL     1       2.009  15.722  18.548  0.00  0.00    +0.000 C 
ATOM     33  C   UNL     1      -0.470  16.012  18.784  0.00  0.00    +0.000 C 
ENDBRANCH  27  30
ENDBRANCH  23  24
ENDBRANCH   5  23
TORSDOF 10
ENDMDL
MODEL 2
REMARK VINA RESULT:      -8.0      2.138      3.224
REMARK  Name = 
REMARK  15 active torsions:
REMARK  status: ('A' for Active; 'I' for Inactive)
REMARK    1  A    between atoms: C_1  and  C_2
REMARK    2  A    between atoms: C_2  and  C_3
REMARK    3  A    between atoms: C_3  and  C_4
REMARK    4  A    between atoms: C_4  and  C_5
REMARK    5  A    between atoms: C_5  and  C_6
REMARK    6  A    between atoms: C_5  and  N_9
REMARK    7  A    between atoms: C_6  and  O_8
REMARK    8  A    between atoms: C_12  and  C_13
REMARK    9  A    between atoms: C_15  and  C_16
REMARK   10  A    between atoms: C_20  and  O_21
REMARK   11  A    between atoms: O_21  and  C_22
REMARK   12  A    between atoms: C_25  and  C_26
REMARK   13  A    between atoms: C_26  and  C_27
REMARK   14  A    between atoms: C_26  and  C_28
REMARK   15  A    between atoms: C_26  and  C_29
REMARK                            x       y       z     vdW  Elec       q    Type
REMARK                         _______ _______ _______ _____ _____    ______ ____
ROOT
ATOM      1  C   UNL     1       2.491   7.332  19.186  0.00  0.00    +0.000 A 
ATOM      2  C   UNL     1       2.793   7.686  17.865  0.00  0.00    +0.000 A 
ATOM      3  C   UNL     1       2.296   8.868  17.317  0.00  0.00    +0.000 A 
ATOM      4  C   UNL     1       1.488   9.713  18.081  0.00  0.00    +0.000 A 
ATOM      5  C   UNL     1       1.172   9.373  19.396  0.00  0.00    +0.000 A 
ATOM      6  C   UNL     1       1.631   8.164  19.924  0.00  0.00    +0.000 A 
ENDROOT
BRANCH   1  13
ATOM      7  N   UNL     1       3.711   5.136  18.979  0.00  0.00    +0.000 N 
ATOM      8  C   UNL     1       3.315   3.818  19.166  0.00  0.00    +0.000 C 
ATOM      9  O   UNL     1       3.917   2.872  18.660  0.00  0.00    +0.000 OA
ATOM     10  C   UNL     1       1.970   3.695  19.846  0.00  0.00    +0.000 C 
ATOM     11  C   UNL     1       0.906   3.580  18.762  0.00  0.00    +0.000 C 
ATOM     12  S   UNL     1       1.750   5.230  20.761  0.00  0.00    +0.000 S 
ATOM     13  C   UNL     1       3.048   6.099  19.846  0.00  0.00    +0.000 C 
BRANCH   7  14
ATOM     14  C   UNL     1       4.879   5.435  18.109  0.00  0.00    +0.000 C 
BRANCH  14  15
ATOM     15  C   UNL     1       6.193   5.042  18.843  0.00  0.00    +0.000 C 
ATOM     16  O   UNL     1       6.711   5.677  19.748  0.00  0.00    +0.000 OA
BRANCH  15  17
ATOM     17  O   UNL     1       6.732   3.873  18.409  0.00  0.00    +0.000 OA
ATOM     18  H   UNL     1       6.872   3.834  17.435  0.00  0.00    +0.000 HD
ENDBRANCH  15  17
ENDBRANCH  14  15
BRANCH  14  19
ATOM     19  C   UNL     1       4.923   4.832  16.690  0.00  0.00    +0.000 C 
BRANCH  19  20
ATOM     20  C   UNL     1       5.689   5.626  15.635  0.00  0.00    +0.000 C 
BRANCH  20  22
ATOM     21  C   UNL     1       6.473   4.260  13.689  0.00  0.00    +0.000 C 
ATOM     22  C   UNL     1       6.856   4.851  15.032  0.00  0.00    +0.000 C 
ENDBRANCH  20  22
ENDBRANCH  19  20
ENDBRANCH  14  19
ENDBRANCH   7  14
ENDBRANCH   1  13
BRANCH   5  23
ATOM     23  O   UNL     1       0.383  10.249  20.112  0.00  0.00    +0.000 OA
BRANCH  23  24
ATOM     24  C   UNL     1      -0.858  10.582  19.607  0.00  0.00    +0.000 A 
ATOM     25  C   UNL     1      -1.500   9.864  18.603  0.00  0.00    +0.000 A 
ATOM     26  C   UNL     1      -2.744  10.273  18.124  0.00  0.00    +0.000 A 
ATOM     27  C   UNL     1      -3.430  11.366  18.680  0.00  0.00    +0.000 A 
ATOM     28  C   UNL     1      -2.778  12.058  19.722  0.00  0.00    +0.000 A 
ATOM     29  C   UNL     1      -1.511  11.675  20.178  0.00  0.00    +0.000 A 
BRANCH  27  30
ATOM     30  C   UNL     1      -4.851  11.745  18.220  0.00  0.00    +0.000 C 
ATOM     31  C   UNL     1      -4.948  11.952  16.688  0.00  0.00    +0.000 C 
ATOM     32  C   UNL     1      -5.828  10.609  18.588  0.00  0.00    +0.000 C 
ATOM     33  C   UNL     1      -5.333  13.048  18.884  0.00  0.00    +0.000 C 
ENDBRANCH  27  30
ENDBRANCH  23  24
ENDBRANCH   5  23
TORSDOF 10
ENDMDL
MODEL 3
REMARK VINA RESULT:      -7.9      0.761      1.170
REMARK  Name = 
REMARK  15 active torsions:
REMARK  status: ('A' for Active; 'I' for Inactive)
REMARK    1  A    between atoms: C_1  and  C_2
REMARK    2  A    between atoms: C_2  and  C_3
REMARK    3  A    between atoms: C_3  and  C_4
REMARK    4  A    between atoms: C_4  and  C_5
REMARK    5  A    between atoms: C_5  and  C_6
REMARK    6  A    between atoms: C_5  and  N_9
REMARK    7  A    between atoms: C_6  and  O_8
REMARK    8  A    between atoms: C_12  and  C_13
REMARK    9  A    between atoms: C_15  and  C_16
REMARK   10  A    between atoms: C_20  and  O_21
REMARK   11  A    between atoms: O_21  and  C_22
REMARK   12  A    between atoms: C_25  and  C_26
REMARK   13  A    between atoms: C_26  and  C_27
REMARK   14  A    between atoms: C_26  and  C_28
REMARK   15  A    between atoms: C_26  and  C_29
REMARK                            x       y       z     vdW  Elec       q    Type
REMARK                         _______ _______ _______ _____ _____    ______ ____
ROOT
ATOM      1  C   UNL     1       2.603   6.992  19.324  0.00  0.00    +0.000 A 
ATOM      2  C   UNL     1       2.782   7.574  18.064  0.00  0.00    +0.000 A 
ATOM      3  C   UNL     1       2.143   8.770  17.737  0.00  0.00    +0.000 A 
ATOM      4  C   UNL     1       1.312   9.400  18.666  0.00  0.00    +0.000 A 
ATOM      5  C   UNL     1       1.117   8.831  19.924  0.00  0.00    +0.000 A 
ATOM      6  C   UNL     1       1.719   7.608  20.228  0.00  0.00    +0.000 A 
ENDROOT
BRANCH   1  13
ATOM      7  N   UNL     1       3.839   4.890  18.688  0.00  0.00    +0.000 N 
ATOM      8  C   UNL     1       3.531   3.541  18.812  0.00  0.00    +0.000 C 
ATOM      9  O   UNL     1       4.062   2.678  18.117  0.00  0.00    +0.000 OA
ATOM     10  C   UNL     1       2.338   3.288  19.707  0.00  0.00    +0.000 C 
ATOM     11  C   UNL     1       1.098   3.215  18.825  0.00  0.00    +0.000 C 
ATOM     12  S   UNL     1       2.236   4.721  20.793  0.00  0.00    +0.000 S 
ATOM     13  C   UNL     1       3.313   5.735  19.750  0.00  0.00    +0.000 C 
BRANCH   7  14
ATOM     14  C   UNL     1       4.817   5.327  17.657  0.00  0.00    +0.000 C 
BRANCH  14  15
ATOM     15  C   UNL     1       6.259   5.251  18.236  0.00  0.00    +0.000 C 
ATOM     16  O   UNL     1       6.889   6.196  18.683  0.00  0.00    +0.000 OA
BRANCH  15  17
ATOM     17  O   UNL     1       6.781   3.997  18.240  0.00  0.00    +0.000 OA
ATOM     18  H   UNL     1       6.373   3.391  17.579  0.00  0.00    +0.000 HD
ENDBRANCH  15  17
ENDBRANCH  14  15
BRANCH  14  19
ATOM     19  C   UNL     1       4.814   4.623  16.284  0.00  0.00    +0.000 C 
BRANCH  19  20
ATOM     20  C   UNL     1       5.606   5.301  15.168  0.00  0.00    +0.000 C 
BRANCH  20  22
ATOM     21  C   UNL     1       6.058   3.737  13.266  0.00  0.00    +0.000 C 
ATOM     22  C   UNL     1       6.631   4.380  14.516  0.00  0.00    +0.000 C 
ENDBRANCH  20  22
ENDBRANCH  19  20
ENDBRANCH  14  19
ENDBRANCH   7  14
ENDBRANCH   1  13
BRANCH   5  23
ATOM     23  O   UNL     1       0.299   9.501  20.810  0.00  0.00    +0.000 OA
BRANCH  23  24
ATOM     24  C   UNL     1       0.181  10.872  20.691  0.00  0.00    +0.000 A 
ATOM     25  C   UNL     1       1.234  11.757  20.902  0.00  0.00    +0.000 A 
ATOM     26  C   UNL     1       1.037  13.133  20.788  0.00  0.00    +0.000 A 
ATOM     27  C   UNL     1      -0.196  13.674  20.384  0.00  0.00    +0.000 A 
ATOM     28  C   UNL     1      -1.240  12.757  20.140  0.00  0.00    +0.000 A 
ATOM     29  C   UNL     1      -1.057  11.378  20.292  0.00  0.00    +0.000 A 
BRANCH  27  30
ATOM     30  C   UNL     1      -0.376  15.188  20.155  0.00  0.00    +0.000 C 
ATOM     31  C   UNL     1      -0.200  15.593  18.671  0.00  0.00    +0.000 C 
ATOM     32  C   UNL     1      -1.802  15.601  20.574  0.00  0.00    +0.000 C 
ATOM     33  C   UNL     1       0.639  16.008  20.973  0.00  0.00    +0.000 C 
ENDBRANCH  27  30
ENDBRANCH  23  24
ENDBRANCH   5  23
TORSDOF 10
ENDMDL
MODEL 4
REMARK VINA RESULT:      -7.9      2.580      3.957
REMARK  Name = 
REMARK  15 active torsions:
REMARK  status: ('A' for Active; 'I' for Inactive)
REMARK    1  A    between atoms: C_1  and  C_2
REMARK    2  A    between atoms: C_2  and  C_3
REMARK    3  A    between atoms: C_3  and  C_4
REMARK    4  A    between atoms: C_4  and  C_5
REMARK    5  A    between atoms: C_5  and  C_6
REMARK    6  A    between atoms: C_5  and  N_9
REMARK    7  A    between atoms: C_6  and  O_8
REMARK    8  A    between atoms: C_12  and  C_13
REMARK    9  A    between atoms: C_15  and  C_16
REMARK   10  A    between atoms: C_20  and  O_21
REMARK   11  A    between atoms: O_21  and  C_22
REMARK   12  A    between atoms: C_25  and  C_26
REMARK   13  A    between atoms: C_26  and  C_27
REMARK   14  A    between atoms: C_26  and  C_28
REMARK   15  A    between atoms: C_26  and  C_29
REMARK                            x       y       z     vdW  Elec       q    Type
REMARK                         _______ _______ _______ _____ _____    ______ ____
ROOT
ATOM      1  C   UNL     1       3.737   6.169  18.399  0.00  0.00    +0.000 A 
ATOM      2  C   UNL     1       3.635   7.232  17.493  0.00  0.00    +0.000 A 
ATOM      3  C   UNL     1       2.781   8.304  17.750  0.00  0.00    +0.000 A 
ATOM      4  C   UNL     1       2.014   8.328  18.917  0.00  0.00    +0.000 A 
ATOM      5  C   UNL     1       2.098   7.275  19.827  0.00  0.00    +0.000 A 
ATOM      6  C   UNL     1       2.916   6.180  19.541  0.00  0.00    +0.000 A 
ENDROOT
BRANCH   1  13
ATOM      7  N   UNL     1       6.021   5.344  17.727  0.00  0.00    +0.000 N 
ATOM      8  C   UNL     1       6.467   4.568  16.665  0.00  0.00    +0.000 C 
ATOM      9  O   UNL     1       7.637   4.583  16.285  0.00  0.00    +0.000 OA
ATOM     10  C   UNL     1       5.342   3.901  15.906  0.00  0.00    +0.000 C 
ATOM     11  C   UNL     1       4.965   4.804  14.738  0.00  0.00    +0.000 C 
ATOM     12  S   UNL     1       3.971   3.798  17.069  0.00  0.00    +0.000 S 
ATOM     13  C   UNL     1       4.684   5.017  18.200  0.00  0.00    +0.000 C 
BRANCH   7  14
ATOM     14  C   UNL     1       6.969   6.260  18.415  0.00  0.00    +0.000 C 
BRANCH  14  15
ATOM     15  C   UNL     1       7.840   5.453  19.420  0.00  0.00    +0.000 C 
ATOM     16  O   UNL     1       7.798   5.564  20.635  0.00  0.00    +0.000 OA
BRANCH  15  17
ATOM     17  O   UNL     1       8.665   4.551  18.828  0.00  0.00    +0.000 OA
ATOM     18  H   UNL     1       8.683   4.610  17.844  0.00  0.00    +0.000 HD
ENDBRANCH  15  17
ENDBRANCH  14  15
BRANCH  14  19
ATOM     19  C   UNL     1       7.909   7.136  17.561  0.00  0.00    +0.000 C 
BRANCH  19  20
ATOM     20  C   UNL     1       7.762   8.648  17.718  0.00  0.00    +0.000 C 
BRANCH  20  22
ATOM     21  C   UNL     1       9.123  10.658  18.330  0.00  0.00    +0.000 C 
ATOM     22  C   UNL     1       8.740   9.244  18.724  0.00  0.00    +0.000 C 
ENDBRANCH  20  22
ENDBRANCH  19  20
ENDBRANCH  14  19
ENDBRANCH   7  14
ENDBRANCH   1  13
BRANCH   5  23
ATOM     23  O   UNL     1       1.330   7.355  20.970  0.00  0.00    +0.000 OA
BRANCH  23  24
ATOM     24  C   UNL     1       0.676   8.540  21.245  0.00  0.00    +0.000 A 
ATOM     25  C   UNL     1       0.661   9.138  22.501  0.00  0.00    +0.000 A 
ATOM     26  C   UNL     1      -0.041  10.325  22.712  0.00  0.00    +0.000 A 
ATOM     27  C   UNL     1      -0.689  10.999  21.663  0.00  0.00    +0.000 A 
ATOM     28  C   UNL     1      -0.631  10.394  20.390  0.00  0.00    +0.000 A 
ATOM     29  C   UNL     1       0.039   9.183  20.182  0.00  0.00    +0.000 A 
BRANCH  27  30
ATOM     30  C   UNL     1      -1.371  12.365  21.881  0.00  0.00    +0.000 C 
ATOM     31  C   UNL     1      -2.212  12.814  20.661  0.00  0.00    +0.000 C 
ATOM     32  C   UNL     1      -2.331  12.269  23.086  0.00  0.00    +0.000 C 
ATOM     33  C   UNL     1      -0.339  13.475  22.156  0.00  0.00    +0.000 C 
ENDBRANCH  27  30
ENDBRANCH  23  24
ENDBRANCH   5  23
TORSDOF 10
ENDMDL
MODEL 5
REMARK VINA RESULT:      -7.9      2.610      4.080
REMARK  Name = 
REMARK  15 active torsions:
REMARK  status: ('A' for Active; 'I' for Inactive)
REMARK    1  A    between atoms: C_1  and  C_2
REMARK    2  A    between atoms: C_2  and  C_3
REMARK    3  A    between atoms: C_3  and  C_4
REMARK    4  A    between atoms: C_4  and  C_5
REMARK    5  A    between atoms: C_5  and  C_6
REMARK    6  A    between atoms: C_5  and  N_9
REMARK    7  A    between atoms: C_6  and  O_8
REMARK    8  A    between atoms: C_12  and  C_13
REMARK    9  A    between atoms: C_15  and  C_16
REMARK   10  A    between atoms: C_20  and  O_21
REMARK   11  A    between atoms: O_21  and  C_22
REMARK   12  A    between atoms: C_25  and  C_26
REMARK   13  A    between atoms: C_26  and  C_27
REMARK   14  A    between atoms: C_26  and  C_28
REMARK   15  A    between atoms: C_26  and  C_29
REMARK                            x       y       z     vdW  Elec       q    Type
REMARK                         _______ _______ _______ _____ _____    ______ ____
ROOT
ATOM      1  C   UNL     1       3.812   6.177  18.377  0.00  0.00    +0.000 A 
ATOM      2  C   UNL     1       3.714   7.222  17.451  0.00  0.00    +0.000 A 
ATOM      3  C   UNL     1       2.863   8.302  17.688  0.00  0.00    +0.000 A 
ATOM      4  C   UNL     1       2.097   8.352  18.854  0.00  0.00    +0.000 A 
ATOM      5  C   UNL     1       2.178   7.316  19.784  0.00  0.00    +0.000 A 
ATOM      6  C   UNL     1       2.992   6.213  19.519  0.00  0.00    +0.000 A 
ENDROOT
BRANCH   1  13
ATOM      7  N   UNL     1       6.112   5.337  17.780  0.00  0.00    +0.000 N 
ATOM      8  C   UNL     1       6.589   4.568  16.726  0.00  0.00    +0.000 C 
ATOM      9  O   UNL     1       7.772   4.576  16.389  0.00  0.00    +0.000 OA
ATOM     10  C   UNL     1       5.486   3.921  15.919  0.00  0.00    +0.000 C 
ATOM     11  C   UNL     1       5.161   4.840  14.749  0.00  0.00    +0.000 C 
ATOM     12  S   UNL     1       4.073   3.818  17.029  0.00  0.00    +0.000 S 
ATOM     13  C   UNL     1       4.755   5.018  18.200  0.00  0.00    +0.000 C 
BRANCH   7  14
ATOM     14  C   UNL     1       7.042   6.235  18.513  0.00  0.00    +0.000 C 
BRANCH  14  15
ATOM     15  C   UNL     1       7.982   5.389  19.418  0.00  0.00    +0.000 C 
ATOM     16  O   UNL     1       8.792   4.568  19.019  0.00  0.00    +0.000 OA
BRANCH  15  17
ATOM     17  O   UNL     1       7.857   5.662  20.743  0.00  0.00    +0.000 OA
ATOM     18  H   UNL     1       8.579   5.290  21.300  0.00  0.00    +0.000 HD
ENDBRANCH  15  17
ENDBRANCH  14  15
BRANCH  14  19
ATOM     19  C   UNL     1       7.912   7.223  17.707  0.00  0.00    +0.000 C 
BRANCH  19  20
ATOM     20  C   UNL     1       7.527   8.698  17.794  0.00  0.00    +0.000 C 
BRANCH  20  22
ATOM     21  C   UNL     1       9.061   9.968  19.311  0.00  0.00    +0.000 C 
ATOM     22  C   UNL     1       8.733   9.628  17.869  0.00  0.00    +0.000 C 
ENDBRANCH  20  22
ENDBRANCH  19  20
ENDBRANCH  14  19
ENDBRANCH   7  14
ENDBRANCH   1  13
BRANCH   5  23
ATOM     23  O   UNL     1       1.411   7.421  20.927  0.00  0.00    +0.000 OA
BRANCH  23  24
ATOM     24  C   UNL     1       0.720   8.595  21.152  0.00  0.00    +0.000 A 
ATOM     25  C   UNL     1       0.223   9.404  20.135  0.00  0.00    +0.000 A 
ATOM     26  C   UNL     1      -0.446  10.590  20.435  0.00  0.00    +0.000 A 
ATOM     27  C   UNL     1      -0.712  10.975  21.760  0.00  0.00    +0.000 A 
ATOM     28  C   UNL     1      -0.232  10.123  22.777  0.00  0.00    +0.000 A 
ATOM     29  C   UNL     1       0.475   8.952  22.479  0.00  0.00    +0.000 A 
BRANCH  27  30
ATOM     30  C   UNL     1      -1.546  12.231  22.083  0.00  0.00    +0.000 C 
ATOM     31  C   UNL     1      -0.669  13.446  22.473  0.00  0.00    +0.000 C 
ATOM     32  C   UNL     1      -2.360  12.638  20.837  0.00  0.00    +0.000 C 
ATOM     33  C   UNL     1      -2.519  11.980  23.250  0.00  0.00    +0.000 C 
ENDBRANCH  27  30
ENDBRANCH  23  24
ENDBRANCH   5  23
TORSDOF 10
ENDMDL
MODEL 6
REMARK VINA RESULT:      -7.9      2.383      3.825
REMARK  Name = 
REMARK  15 active torsions:
REMARK  status: ('A' for Active; 'I' for Inactive)
REMARK    1  A    between atoms: C_1  and  C_2
REMARK    2  A    between atoms: C_2  and  C_3
REMARK    3  A    between atoms: C_3  and  C_4
REMARK    4  A    between atoms: C_4  and  C_5
REMARK    5  A    between atoms: C_5  and  C_6
REMARK    6  A    between atoms: C_5  and  N_9
REMARK    7  A    between atoms: C_6  and  O_8
REMARK    8  A    between atoms: C_12  and  C_13
REMARK    9  A    between atoms: C_15  and  C_16
REMARK   10  A    between atoms: C_20  and  O_21
REMARK   11  A    between atoms: O_21  and  C_22
REMARK   12  A    between atoms: C_25  and  C_26
REMARK   13  A    between atoms: C_26  and  C_27
REMARK   14  A    between atoms: C_26  and  C_28
REMARK   15  A    between atoms: C_26  and  C_29
REMARK                            x       y       z     vdW  Elec       q    Type
REMARK                         _______ _______ _______ _____ _____    ______ ____
ROOT
ATOM      1  C   UNL     1       3.855   5.617  18.715  0.00  0.00    +0.000 A 
ATOM      2  C   UNL     1       3.104   5.473  19.888  0.00  0.00    +0.000 A 
ATOM      3  C   UNL     1       2.095   6.384  20.202  0.00  0.00    +0.000 A 
ATOM      4  C   UNL     1       1.824   7.455  19.348  0.00  0.00    +0.000 A 
ATOM      5  C   UNL     1       2.567   7.618  18.179  0.00  0.00    +0.000 A 
ATOM      6  C   UNL     1       3.609   6.733  17.894  0.00  0.00    +0.000 A 
ENDROOT
BRANCH   1  13
ATOM      7  N   UNL     1       6.163   5.187  17.801  0.00  0.00    +0.000 N 
ATOM      8  C   UNL     1       6.617   4.626  16.615  0.00  0.00    +0.000 C 
ATOM      9  O   UNL     1       7.745   4.840  16.174  0.00  0.00    +0.000 OA
ATOM     10  C   UNL     1       5.524   3.930  15.834  0.00  0.00    +0.000 C 
ATOM     11  C   UNL     1       4.958   4.928  14.832  0.00  0.00    +0.000 C 
ATOM     12  S   UNL     1       4.266   3.498  17.047  0.00  0.00    +0.000 S 
ATOM     13  C   UNL     1       4.914   4.632  18.299  0.00  0.00    +0.000 C 
BRANCH   7  14
ATOM     14  C   UNL     1       7.046   6.114  18.559  0.00  0.00    +0.000 C 
BRANCH  14  15
ATOM     15  C   UNL     1       8.061   5.294  19.406  0.00  0.00    +0.000 C 
ATOM     16  O   UNL     1       8.863   4.490  18.960  0.00  0.00    +0.000 OA
BRANCH  15  17
ATOM     17  O   UNL     1       8.011   5.571  20.735  0.00  0.00    +0.000 OA
ATOM     18  H   UNL     1       8.438   6.423  20.984  0.00  0.00    +0.000 HD
ENDBRANCH  15  17
ENDBRANCH  14  15
BRANCH  14  19
ATOM     19  C   UNL     1       7.830   7.194  17.784  0.00  0.00    +0.000 C 
BRANCH  19  20
ATOM     20  C   UNL     1       8.474   8.299  18.619  0.00  0.00    +0.000 C 
BRANCH  20  22
ATOM     21  C   UNL     1       9.300  10.661  18.675  0.00  0.00    +0.000 C 
ATOM     22  C   UNL     1       8.407   9.669  17.953  0.00  0.00    +0.000 C 
ENDBRANCH  20  22
ENDBRANCH  19  20
ENDBRANCH  14  19
ENDBRANCH   7  14
ENDBRANCH   1  13
BRANCH   5  23
ATOM     23  O   UNL     1       2.249   8.684  17.363  0.00  0.00    +0.000 OA
BRANCH  23  24
ATOM     24  C   UNL     1       1.665   9.799  17.931  0.00  0.00    +0.000 A 
ATOM     25  C   UNL     1       2.357  10.973  18.211  0.00  0.00    +0.000 A 
ATOM     26  C   UNL     1       1.709  12.053  18.808  0.00  0.00    +0.000 A 
ATOM     27  C   UNL     1       0.329  12.032  19.077  0.00  0.00    +0.000 A 
ATOM     28  C   UNL     1      -0.362  10.846  18.751  0.00  0.00    +0.000 A 
ATOM     29  C   UNL     1       0.295   9.745  18.189  0.00  0.00    +0.000 A 
BRANCH  27  30
ATOM     30  C   UNL     1      -0.402  13.269  19.637  0.00  0.00    +0.000 C 
ATOM     31  C   UNL     1      -1.922  13.033  19.817  0.00  0.00    +0.000 C 
ATOM     32  C   UNL     1       0.173  13.617  21.026  0.00  0.00    +0.000 C 
ATOM     33  C   UNL     1      -0.239  14.490  18.712  0.00  0.00    +0.000 C 
ENDBRANCH  27  30
ENDBRANCH  23  24
ENDBRANCH   5  23
TORSDOF 10
ENDMDL
MODEL 7
REMARK VINA RESULT:      -7.8      2.385      3.797
REMARK  Name = 
REMARK  15 active torsions:
REMARK  status: ('A' for Active; 'I' for Inactive)
REMARK    1  A    between atoms: C_1  and  C_2
REMARK    2  A    between atoms: C_2  and  C_3
REMARK    3  A    between atoms: C_3  and  C_4
REMARK    4  A    between atoms: C_4  and  C_5
REMARK    5  A    between atoms: C_5  and  C_6
REMARK    6  A    between atoms: C_5  and  N_9
REMARK    7  A    between atoms: C_6  and  O_8
REMARK    8  A    between atoms: C_12  and  C_13
REMARK    9  A    between atoms: C_15  and  C_16
REMARK   10  A    between atoms: C_20  and  O_21
REMARK   11  A    between atoms: O_21  and  C_22
REMARK   12  A    between atoms: C_25  and  C_26
REMARK   13  A    between atoms: C_26  and  C_27
REMARK   14  A    between atoms: C_26  and  C_28
REMARK   15  A    between atoms: C_26  and  C_29
REMARK                            x       y       z     vdW  Elec       q    Type
REMARK                         _______ _______ _______ _____ _____    ______ ____
ROOT
ATOM      1  C   UNL     1       3.916   5.704  18.640  0.00  0.00    +0.000 A 
ATOM      2  C   UNL     1       3.142   5.553  19.797  0.00  0.00    +0.000 A 
ATOM      3  C   UNL     1       2.151   6.482  20.113  0.00  0.00    +0.000 A 
ATOM      4  C   UNL     1       1.921   7.578  19.278  0.00  0.00    +0.000 A 
ATOM      5  C   UNL     1       2.687   7.747  18.125  0.00  0.00    +0.000 A 
ATOM      6  C   UNL     1       3.712   6.842  17.839  0.00  0.00    +0.000 A 
ENDROOT
BRANCH   1  13
ATOM      7  N   UNL     1       6.203   5.238  17.689  0.00  0.00    +0.000 N 
ATOM      8  C   UNL     1       6.628   4.651  16.504  0.00  0.00    +0.000 C 
ATOM      9  O   UNL     1       7.749   4.847  16.038  0.00  0.00    +0.000 OA
ATOM     10  C   UNL     1       5.514   3.952  15.757  0.00  0.00    +0.000 C 
ATOM     11  C   UNL     1       4.937   4.938  14.749  0.00  0.00    +0.000 C 
ATOM     12  S   UNL     1       4.276   3.552  17.001  0.00  0.00    +0.000 S 
ATOM     13  C   UNL     1       4.958   4.703  18.221  0.00  0.00    +0.000 C 
BRANCH   7  14
ATOM     14  C   UNL     1       7.108   6.169  18.412  0.00  0.00    +0.000 C 
BRANCH  14  15
ATOM     15  C   UNL     1       8.059   5.359  19.340  0.00  0.00    +0.000 C 
ATOM     16  O   UNL     1       8.850   4.508  18.966  0.00  0.00    +0.000 OA
BRANCH  15  17
ATOM     17  O   UNL     1       7.967   5.703  20.651  0.00  0.00    +0.000 OA
ATOM     18  H   UNL     1       7.965   6.675  20.811  0.00  0.00    +0.000 HD
ENDBRANCH  15  17
ENDBRANCH  14  15
BRANCH  14  19
ATOM     19  C   UNL     1       7.963   7.160  17.595  0.00  0.00    +0.000 C 
BRANCH  19  20
ATOM     20  C   UNL     1       7.721   8.645  17.855  0.00  0.00    +0.000 C 
BRANCH  20  22
ATOM     21  C   UNL     1       9.077  10.704  18.290  0.00  0.00    +0.000 C 
ATOM     22  C   UNL     1       8.790   9.282  18.735  0.00  0.00    +0.000 C 
ENDBRANCH  20  22
ENDBRANCH  19  20
ENDBRANCH  14  19
ENDBRANCH   7  14
ENDBRANCH   1  13
BRANCH   5  23
ATOM     23  O   UNL     1       2.409   8.837  17.327  0.00  0.00    +0.000 OA
BRANCH  23  24
ATOM     24  C   UNL     1       1.755   9.916  17.888  0.00  0.00    +0.000 A 
ATOM     25  C   UNL     1       0.451   9.862  18.368  0.00  0.00    +0.000 A 
ATOM     26  C   UNL     1      -0.157  10.999  18.901  0.00  0.00    +0.000 A 
ATOM     27  C   UNL     1       0.539  12.211  19.045  0.00  0.00    +0.000 A 
ATOM     28  C   UNL     1       1.872  12.235  18.585  0.00  0.00    +0.000 A 
ATOM     29  C   UNL     1       2.472  11.107  18.013  0.00  0.00    +0.000 A 
BRANCH  27  30
ATOM     30  C   UNL     1      -0.103  13.432  19.734  0.00  0.00    +0.000 C 
ATOM     31  C   UNL     1       0.352  13.596  21.205  0.00  0.00    +0.000 C 
ATOM     32  C   UNL     1       0.309  14.716  18.984  0.00  0.00    +0.000 C 
ATOM     33  C   UNL     1      -1.640  13.334  19.742  0.00  0.00    +0.000 C 
ENDBRANCH  27  30
ENDBRANCH  23  24
ENDBRANCH   5  23
TORSDOF 10
ENDMDL
MODEL 8
REMARK VINA RESULT:      -7.7      0.527      1.018
REMARK  Name = 
REMARK  15 active torsions:
REMARK  status: ('A' for Active; 'I' for Inactive)
REMARK    1  A    between atoms: C_1  and  C_2
REMARK    2  A    between atoms: C_2  and  C_3
REMARK    3  A    between atoms: C_3  and  C_4
REMARK    4  A    between atoms: C_4  and  C_5
REMARK    5  A    between atoms: C_5  and  C_6
REMARK    6  A    between atoms: C_5  and  N_9
REMARK    7  A    between atoms: C_6  and  O_8
REMARK    8  A    between atoms: C_12  and  C_13
REMARK    9  A    between atoms: C_15  and  C_16
REMARK   10  A    between atoms: C_20  and  O_21
REMARK   11  A    between atoms: O_21  and  C_22
REMARK   12  A    between atoms: C_25  and  C_26
REMARK   13  A    between atoms: C_26  and  C_27
REMARK   14  A    between atoms: C_26  and  C_28
REMARK   15  A    between atoms: C_26  and  C_29
REMARK                            x       y       z     vdW  Elec       q    Type
REMARK                         _______ _______ _______ _____ _____    ______ ____
ROOT
ATOM      1  C   UNL     1       2.646   6.862  19.319  0.00  0.00    +0.000 A 
ATOM      2  C   UNL     1       2.801   7.204  17.970  0.00  0.00    +0.000 A 
ATOM      3  C   UNL     1       2.243   8.379  17.468  0.00  0.00    +0.000 A 
ATOM      4  C   UNL     1       1.520   9.230  18.307  0.00  0.00    +0.000 A 
ATOM      5  C   UNL     1       1.351   8.903  19.652  0.00  0.00    +0.000 A 
ATOM      6  C   UNL     1       1.868   7.700  20.139  0.00  0.00    +0.000 A 
ENDROOT
BRANCH   1  13
ATOM      7  N   UNL     1       3.899   4.698  19.007  0.00  0.00    +0.000 N 
ATOM      8  C   UNL     1       3.548   3.370  19.206  0.00  0.00    +0.000 C 
ATOM      9  O   UNL     1       4.136   2.443  18.650  0.00  0.00    +0.000 OA
ATOM     10  C   UNL     1       2.256   3.208  19.975  0.00  0.00    +0.000 C 
ATOM     11  C   UNL     1       1.123   3.077  18.965  0.00  0.00    +0.000 C 
ATOM     12  S   UNL     1       2.064   4.730  20.919  0.00  0.00    +0.000 S 
ATOM     13  C   UNL     1       3.275   5.637  19.927  0.00  0.00    +0.000 C 
BRANCH   7  14
ATOM     14  C   UNL     1       4.998   5.034  18.063  0.00  0.00    +0.000 C 
BRANCH  14  15
ATOM     15  C   UNL     1       6.370   4.885  18.781  0.00  0.00    +0.000 C 
ATOM     16  O   UNL     1       6.658   5.384  19.858  0.00  0.00    +0.000 OA
BRANCH  15  17
ATOM     17  O   UNL     1       7.255   4.101  18.113  0.00  0.00    +0.000 OA
ATOM     18  H   UNL     1       8.169   4.467  18.079  0.00  0.00    +0.000 HD
ENDBRANCH  15  17
ENDBRANCH  14  15
BRANCH  14  19
ATOM     19  C   UNL     1       5.077   4.282  16.717  0.00  0.00    +0.000 C 
BRANCH  19  20
ATOM     20  C   UNL     1       5.350   5.130  15.477  0.00  0.00    +0.000 C 
BRANCH  20  22
ATOM     21  C   UNL     1       6.044   3.851  13.441  0.00  0.00    +0.000 C 
ATOM     22  C   UNL     1       6.528   4.625  14.653  0.00  0.00    +0.000 C 
ENDBRANCH  20  22
ENDBRANCH  19  20
ENDBRANCH  14  19
ENDBRANCH   7  14
ENDBRANCH   1  13
BRANCH   5  23
ATOM     23  O   UNL     1       0.642   9.784  20.441  0.00  0.00    +0.000 OA
BRANCH  23  24
ATOM     24  C   UNL     1       0.773  11.138  20.200  0.00  0.00    +0.000 A 
ATOM     25  C   UNL     1       1.441  11.663  19.098  0.00  0.00    +0.000 A 
ATOM     26  C   UNL     1       1.556  13.042  18.930  0.00  0.00    +0.000 A 
ATOM     27  C   UNL     1       0.942  13.949  19.811  0.00  0.00    +0.000 A 
ATOM     28  C   UNL     1       0.239  13.396  20.901  0.00  0.00    +0.000 A 
ATOM     29  C   UNL     1       0.156  12.012  21.095  0.00  0.00    +0.000 A 
BRANCH  27  30
ATOM     30  C   UNL     1       0.981  15.470  19.559  0.00  0.00    +0.000 C 
ATOM     31  C   UNL     1      -0.259  15.979  18.782  0.00  0.00    +0.000 C 
ATOM     32  C   UNL     1       1.006  16.211  20.912  0.00  0.00    +0.000 C 
ATOM     33  C   UNL     1       2.224  15.878  18.746  0.00  0.00    +0.000 C 
ENDBRANCH  27  30
ENDBRANCH  23  24
ENDBRANCH   5  23
TORSDOF 10
ENDMDL
MODEL 9
REMARK VINA RESULT:      -7.7      4.447      6.741
REMARK  Name = 
REMARK  15 active torsions:
REMARK  status: ('A' for Active; 'I' for Inactive)
REMARK    1  A    between atoms: C_1  and  C_2
REMARK    2  A    between atoms: C_2  and  C_3
REMARK    3  A    between atoms: C_3  and  C_4
REMARK    4  A    between atoms: C_4  and  C_5
REMARK    5  A    between atoms: C_5  and  C_6
REMARK    6  A    between atoms: C_5  and  N_9
REMARK    7  A    between atoms: C_6  and  O_8
REMARK    8  A    between atoms: C_12  and  C_13
REMARK    9  A    between atoms: C_15  and  C_16
REMARK   10  A    between atoms: C_20  and  O_21
REMARK   11  A    between atoms: O_21  and  C_22
REMARK   12  A    between atoms: C_25  and  C_26
REMARK   13  A    between atoms: C_26  and  C_27
REMARK   14  A    between atoms: C_26  and  C_28
REMARK   15  A    between atoms: C_26  and  C_29
REMARK                            x       y       z     vdW  Elec       q    Type
REMARK                         _______ _______ _______ _____ _____    ______ ____
ROOT
ATOM      1  C   UNL     1       5.478   5.672  17.642  0.00  0.00    +0.000 A 
ATOM      2  C   UNL     1       6.052   5.157  18.811  0.00  0.00    +0.000 A 
ATOM      3  C   UNL     1       7.201   5.735  19.351  0.00  0.00    +0.000 A 
ATOM      4  C   UNL     1       7.795   6.835  18.728  0.00  0.00    +0.000 A 
ATOM      5  C   UNL     1       7.241   7.356  17.560  0.00  0.00    +0.000 A 
ATOM      6  C   UNL     1       6.120   6.744  16.996  0.00  0.00    +0.000 A 
ENDROOT
BRANCH   1  13
ATOM      7  N   UNL     1       3.019   5.182  17.887  0.00  0.00    +0.000 N 
ATOM      8  C   UNL     1       2.296   3.998  17.951  0.00  0.00    +0.000 C 
ATOM      9  O   UNL     1       1.172   3.939  18.447  0.00  0.00    +0.000 OA
ATOM     10  C   UNL     1       3.113   2.785  17.565  0.00  0.00    +0.000 C 
ATOM     11  C   UNL     1       3.693   2.187  18.840  0.00  0.00    +0.000 C 
ATOM     12  S   UNL     1       4.441   3.411  16.522  0.00  0.00    +0.000 S 
ATOM     13  C   UNL     1       4.207   5.126  17.049  0.00  0.00    +0.000 C 
BRANCH   7  14
ATOM     14  C   UNL     1       2.444   6.424  18.469  0.00  0.00    +0.000 C 
BRANCH  14  15
ATOM     15  C   UNL     1       2.397   6.302  20.019  0.00  0.00    +0.000 C 
ATOM     16  O   UNL     1       1.686   6.968  20.756  0.00  0.00    +0.000 OA
BRANCH  15  17
ATOM     17  O   UNL     1       3.214   5.338  20.517  0.00  0.00    +0.000 OA
ATOM     18  H   UNL     1       4.162   5.453  20.276  0.00  0.00    +0.000 HD
ENDBRANCH  15  17
ENDBRANCH  14  15
BRANCH  14  19
ATOM     19  C   UNL     1       3.091   7.780  18.114  0.00  0.00    +0.000 C 
BRANCH  19  20
ATOM     20  C   UNL     1       2.158   8.856  17.563  0.00  0.00    +0.000 C 
BRANCH  20  22
ATOM     21  C   UNL     1       0.077  10.006  18.347  0.00  0.00    +0.000 C 
ATOM     22  C   UNL     1       1.537   9.725  18.651  0.00  0.00    +0.000 C 
ENDBRANCH  20  22
ENDBRANCH  19  20
ENDBRANCH  14  19
ENDBRANCH   7  14
ENDBRANCH   1  13
BRANCH   5  23
ATOM     23  O   UNL     1       7.857   8.453  16.993  0.00  0.00    +0.000 OA
BRANCH  23  24
ATOM     24  C   UNL     1       8.347   9.439  17.827  0.00  0.00    +0.000 A 
ATOM     25  C   UNL     1       9.014   9.178  19.020  0.00  0.00    +0.000 A 
ATOM     26  C   UNL     1       9.461  10.225  19.825  0.00  0.00    +0.000 A 
ATOM     27  C   UNL     1       9.328  11.568  19.435  0.00  0.00    +0.000 A 
ATOM     28  C   UNL     1       8.681  11.810  18.205  0.00  0.00    +0.000 A 
ATOM     29  C   UNL     1       8.195  10.763  17.413  0.00  0.00    +0.000 A 
BRANCH  27  30
ATOM     30  C   UNL     1       9.921  12.715  20.278  0.00  0.00    +0.000 C 
ATOM     31  C   UNL     1       9.406  14.108  19.838  0.00  0.00    +0.000 C 
ATOM     32  C   UNL     1       9.514  12.526  21.755  0.00  0.00    +0.000 C 
ATOM     33  C   UNL     1      11.458  12.750  20.187  0.00  0.00    +0.000 C 
ENDBRANCH  27  30
ENDBRANCH  23  24
ENDBRANCH   5  23
TORSDOF 10
ENDMDL
