MODEL 1
REMARK VINA RESULT:      -9.0      0.000      0.000
REMARK  Name = 
REMARK  7 active torsions:
REMARK  status: ('A' for Active; 'I' for Inactive)
REMARK    1  A    between atoms: C_2  and  C_3
REMARK    2  A    between atoms: C_3  and  S_4
REMARK    3  A    between atoms: S_4  and  C_5
REMARK    4  A    between atoms: C_8  and  C_9
REMARK    5  A    between atoms: N_20  and  C_21
REMARK    6  A    between atoms: C_24  and  S_25
REMARK    7  A    between atoms: S_25  and  N_28
REMARK                            x       y       z     vdW  Elec       q    Type
REMARK                         _______ _______ _______ _____ _____    ______ ____
ROOT
ATOM      1  O   UNL     1       2.216   4.527  18.524  0.00  0.00    +0.000 OA
ATOM      2  C   UNL     1       3.380   4.929  18.501  0.00  0.00    +0.000 C 
ATOM      3  N   UNL     1       3.746   6.268  18.505  0.00  0.00    +0.000 N 
ATOM      4  H   UNL     1       4.746   6.441  18.482  0.00  0.00    +0.000 HD
ENDROOT
BRANCH   3   5
ATOM      5  C   UNL     1       2.910   7.399  18.668  0.00  0.00    +0.000 A 
ATOM      6  C   UNL     1       2.726   8.398  17.704  0.00  0.00    +0.000 A 
ATOM      7  C   UNL     1       1.819   9.455  17.916  0.00  0.00    +0.000 A 
ATOM      8  C   UNL     1       1.055   9.497  19.085  0.00  0.00    +0.000 A 
ATOM      9  C   UNL     1       1.259   8.529  20.071  0.00  0.00    +0.000 A 
ATOM     10  C   UNL     1       2.196   7.506  19.871  0.00  0.00    +0.000 A 
BRANCH   8  11
ATOM     11  S   UNL     1      -0.024  10.885  19.424  0.00  0.00    +0.000 S 
ATOM     12  O   UNL     1      -0.813  10.536  20.586  0.00  0.00    +0.000 OA
ATOM     13  O   UNL     1       0.802  12.075  19.419  0.00  0.00    +0.000 OA
BRANCH  11  14
ATOM     14  N   UNL     1      -1.070  10.974  18.112  0.00  0.00    +0.000 NA
ATOM     15  C   UNL     1      -2.195  11.916  18.096  0.00  0.00    +0.000 C 
ATOM     16  C   UNL     1      -3.410  11.009  18.145  0.00  0.00    +0.000 C 
ATOM     17  C   UNL     1      -2.993   9.790  17.333  0.00  0.00    +0.000 C 
ATOM     18  C   UNL     1      -1.466   9.755  17.387  0.00  0.00    +0.000 C 
ENDBRANCH  11  14
ENDBRANCH   8  11
ENDBRANCH   3   5
BRANCH   2  19
ATOM     19  C   UNL     1       4.520   3.901  18.404  0.00  0.00    +0.000 C 
BRANCH  19  20
ATOM     20  S   UNL     1       5.603   4.143  16.961  0.00  0.00    +0.000 S 
BRANCH  20  21
ATOM     21  C   UNL     1       6.424   5.692  17.359  0.00  0.00    +0.000 A 
ATOM     22  C   UNL     1       7.411   5.658  18.335  0.00  0.00    +0.000 A 
ATOM     23  C   UNL     1       8.110   6.820  18.656  0.00  0.00    +0.000 A 
ATOM     24  C   UNL     1       7.809   8.022  18.004  0.00  0.00    +0.000 A 
ATOM     25  C   UNL     1       6.779   7.965  17.066  0.00  0.00    +0.000 A 
ATOM     26  N   UNL     1       6.087   6.838  16.722  0.00  0.00    +0.000 NA
BRANCH  24  27
ATOM     27  C   UNL     1       8.518   9.265  18.322  0.00  0.00    +0.000 A 
ATOM     28  N   UNL     1       8.612  10.339  17.559  0.00  0.00    +0.000 NA
ATOM     29  C   UNL     1       9.263  11.291  18.314  0.00  0.00    +0.000 A 
ATOM     30  C   UNL     1       9.564  12.632  18.024  0.00  0.00    +0.000 A 
ATOM     31  C   UNL     1      10.222  13.404  18.993  0.00  0.00    +0.000 A 
ATOM     32  C   UNL     1      10.590  12.849  20.221  0.00  0.00    +0.000 A 
ATOM     33  C   UNL     1      10.310  11.511  20.525  0.00  0.00    +0.000 A 
ATOM     34  C   UNL     1       9.637  10.773  19.548  0.00  0.00    +0.000 A 
ATOM     35  N   UNL     1       9.184   9.480  19.512  0.00  0.00    +0.000 N 
ATOM     36  H   UNL     1       9.294   8.803  20.251  0.00  0.00    +0.000 HD
ENDBRANCH  24  27
ENDBRANCH  20  21
ENDBRANCH  19  20
ENDBRANCH   2  19
TORSDOF 7
ENDMDL
MODEL 2
REMARK VINA RESULT:      -8.8      1.593      2.376
REMARK  Name = 
REMARK  7 active torsions:
REMARK  status: ('A' for Active; 'I' for Inactive)
REMARK    1  A    between atoms: C_2  and  C_3
REMARK    2  A    between atoms: C_3  and  S_4
REMARK    3  A    between atoms: S_4  and  C_5
REMARK    4  A    between atoms: C_8  and  C_9
REMARK    5  A    between atoms: N_20  and  C_21
REMARK    6  A    between atoms: C_24  and  S_25
REMARK    7  A    between atoms: S_25  and  N_28
REMARK                            x       y       z     vdW  Elec       q    Type
REMARK                         _______ _______ _______ _____ _____    ______ ____
ROOT
ATOM      1  O   UNL     1       2.175   4.483  17.683  0.00  0.00    +0.000 OA
ATOM      2  C   UNL     1       3.292   4.819  18.081  0.00  0.00    +0.000 C 
ATOM      3  N   UNL     1       3.604   6.085  18.557  0.00  0.00    +0.000 N 
ATOM      4  H   UNL     1       4.569   6.209  18.848  0.00  0.00    +0.000 HD
ENDROOT
BRANCH   3   5
ATOM      5  C   UNL     1       2.723   7.164  18.807  0.00  0.00    +0.000 A 
ATOM      6  C   UNL     1       2.065   7.389  20.024  0.00  0.00    +0.000 A 
ATOM      7  C   UNL     1       1.260   8.528  20.214  0.00  0.00    +0.000 A 
ATOM      8  C   UNL     1       1.139   9.478  19.196  0.00  0.00    +0.000 A 
ATOM      9  C   UNL     1       1.756   9.245  17.965  0.00  0.00    +0.000 A 
ATOM     10  C   UNL     1       2.519   8.085  17.769  0.00  0.00    +0.000 A 
BRANCH   8  11
ATOM     11  S   UNL     1       0.037  10.878  19.377  0.00  0.00    +0.000 S 
ATOM     12  O   UNL     1      -0.549  11.127  18.076  0.00  0.00    +0.000 OA
ATOM     13  O   UNL     1      -0.802  10.612  20.528  0.00  0.00    +0.000 OA
BRANCH  11  14
ATOM     14  N   UNL     1       1.026  12.186  19.744  0.00  0.00    +0.000 NA
ATOM     15  C   UNL     1       0.489  13.389  20.388  0.00  0.00    +0.000 C 
ATOM     16  C   UNL     1       0.625  14.451  19.313  0.00  0.00    +0.000 C 
ATOM     17  C   UNL     1       1.912  14.079  18.589  0.00  0.00    +0.000 C 
ATOM     18  C   UNL     1       2.110  12.583  18.831  0.00  0.00    +0.000 C 
ENDBRANCH  11  14
ENDBRANCH   8  11
ENDBRANCH   3   5
BRANCH   2  19
ATOM     19  C   UNL     1       4.446   3.805  18.001  0.00  0.00    +0.000 C 
BRANCH  19  20
ATOM     20  S   UNL     1       5.594   4.111  16.621  0.00  0.00    +0.000 S 
BRANCH  20  21
ATOM     21  C   UNL     1       6.364   5.661  17.105  0.00  0.00    +0.000 A 
ATOM     22  C   UNL     1       7.382   5.600  18.049  0.00  0.00    +0.000 A 
ATOM     23  C   UNL     1       8.043   6.765  18.433  0.00  0.00    +0.000 A 
ATOM     24  C   UNL     1       7.675   7.996  17.877  0.00  0.00    +0.000 A 
ATOM     25  C   UNL     1       6.620   7.962  16.966  0.00  0.00    +0.000 A 
ATOM     26  N   UNL     1       5.963   6.834  16.561  0.00  0.00    +0.000 NA
BRANCH  24  27
ATOM     27  C   UNL     1       8.343   9.242  18.263  0.00  0.00    +0.000 A 
ATOM     28  N   UNL     1       9.154   9.420  19.291  0.00  0.00    +0.000 NA
ATOM     29  C   UNL     1       9.632  10.709  19.186  0.00  0.00    +0.000 A 
ATOM     30  C   UNL     1      10.575  11.395  19.966  0.00  0.00    +0.000 A 
ATOM     31  C   UNL     1      10.909  12.714  19.623  0.00  0.00    +0.000 A 
ATOM     32  C   UNL     1      10.302  13.345  18.534  0.00  0.00    +0.000 A 
ATOM     33  C   UNL     1       9.351  12.682  17.750  0.00  0.00    +0.000 A 
ATOM     34  C   UNL     1       9.054  11.364  18.104  0.00  0.00    +0.000 A 
ATOM     35  N   UNL     1       8.217  10.424  17.561  0.00  0.00    +0.000 N 
ATOM     36  H   UNL     1       7.626  10.566  16.756  0.00  0.00    +0.000 HD
ENDBRANCH  24  27
ENDBRANCH  20  21
ENDBRANCH  19  20
ENDBRANCH   2  19
TORSDOF 7
ENDMDL
MODEL 3
REMARK VINA RESULT:      -8.6      1.409      2.227
REMARK  Name = 
REMARK  7 active torsions:
REMARK  status: ('A' for Active; 'I' for Inactive)
REMARK    1  A    between atoms: C_2  and  C_3
REMARK    2  A    between atoms: C_3  and  S_4
REMARK    3  A    between atoms: S_4  and  C_5
REMARK    4  A    between atoms: C_8  and  C_9
REMARK    5  A    between atoms: N_20  and  C_21
REMARK    6  A    between atoms: C_24  and  S_25
REMARK    7  A    between atoms: S_25  and  N_28
REMARK                            x       y       z     vdW  Elec       q    Type
REMARK                         _______ _______ _______ _____ _____    ______ ____
ROOT
ATOM      1  O   UNL     1       4.984   5.528  19.857  0.00  0.00    +0.000 OA
ATOM      2  C   UNL     1       4.360   5.131  18.872  0.00  0.00    +0.000 C 
ATOM      3  N   UNL     1       3.152   5.666  18.445  0.00  0.00    +0.000 N 
ATOM      4  H   UNL     1       2.758   5.232  17.616  0.00  0.00    +0.000 HD
ENDROOT
BRANCH   3   5
ATOM      5  C   UNL     1       2.482   6.811  18.940  0.00  0.00    +0.000 A 
ATOM      6  C   UNL     1       2.045   6.968  20.261  0.00  0.00    +0.000 A 
ATOM      7  C   UNL     1       1.450   8.169  20.692  0.00  0.00    +0.000 A 
ATOM      8  C   UNL     1       1.325   9.244  19.808  0.00  0.00    +0.000 A 
ATOM      9  C   UNL     1       1.719   9.086  18.478  0.00  0.00    +0.000 A 
ATOM     10  C   UNL     1       2.269   7.871  18.046  0.00  0.00    +0.000 A 
BRANCH   8  11
ATOM     11  S   UNL     1       0.476  10.741  20.303  0.00  0.00    +0.000 S 
ATOM     12  O   UNL     1      -0.929  10.413  20.420  0.00  0.00    +0.000 OA
ATOM     13  O   UNL     1       1.205  11.291  21.428  0.00  0.00    +0.000 OA
BRANCH  11  14
ATOM     14  N   UNL     1       0.641  11.801  19.009  0.00  0.00    +0.000 NA
ATOM     15  C   UNL     1       1.785  12.715  18.913  0.00  0.00    +0.000 C 
ATOM     16  C   UNL     1       1.154  14.084  19.083  0.00  0.00    +0.000 C 
ATOM     17  C   UNL     1      -0.200  13.952  18.400  0.00  0.00    +0.000 C 
ATOM     18  C   UNL     1      -0.539  12.462  18.428  0.00  0.00    +0.000 C 
ENDBRANCH  11  14
ENDBRANCH   8  11
ENDBRANCH   3   5
BRANCH   2  19
ATOM     19  C   UNL     1       4.904   3.931  18.079  0.00  0.00    +0.000 C 
BRANCH  19  20
ATOM     20  S   UNL     1       5.896   4.402  16.627  0.00  0.00    +0.000 S 
BRANCH  20  21
ATOM     21  C   UNL     1       6.638   5.949  17.161  0.00  0.00    +0.000 A 
ATOM     22  C   UNL     1       7.643   5.878  18.118  0.00  0.00    +0.000 A 
ATOM     23  C   UNL     1       8.283   7.041  18.541  0.00  0.00    +0.000 A 
ATOM     24  C   UNL     1       7.907   8.280  18.011  0.00  0.00    +0.000 A 
ATOM     25  C   UNL     1       6.866   8.256  17.083  0.00  0.00    +0.000 A 
ATOM     26  N   UNL     1       6.230   7.130  16.641  0.00  0.00    +0.000 NA
BRANCH  24  27
ATOM     27  C   UNL     1       8.553   9.525  18.437  0.00  0.00    +0.000 A 
ATOM     28  N   UNL     1       9.249   9.716  19.544  0.00  0.00    +0.000 NA
ATOM     29  C   UNL     1       9.760  10.994  19.461  0.00  0.00    +0.000 A 
ATOM     30  C   UNL     1      10.625  11.685  20.324  0.00  0.00    +0.000 A 
ATOM     31  C   UNL     1      11.021  12.988  19.988  0.00  0.00    +0.000 A 
ATOM     32  C   UNL     1      10.551  13.599  18.824  0.00  0.00    +0.000 A 
ATOM     33  C   UNL     1       9.678  12.932  17.955  0.00  0.00    +0.000 A 
ATOM     34  C   UNL     1       9.318  11.629  18.307  0.00  0.00    +0.000 A 
ATOM     35  N   UNL     1       8.528  10.690  17.697  0.00  0.00    +0.000 N 
ATOM     36  H   UNL     1       8.033  10.820  16.829  0.00  0.00    +0.000 HD
ENDBRANCH  24  27
ENDBRANCH  20  21
ENDBRANCH  19  20
ENDBRANCH   2  19
TORSDOF 7
ENDMDL
MODEL 4
REMARK VINA RESULT:      -8.5      0.721      1.280
REMARK  Name = 
REMARK  7 active torsions:
REMARK  status: ('A' for Active; 'I' for Inactive)
REMARK    1  A    between atoms: C_2  and  C_3
REMARK    2  A    between atoms: C_3  and  S_4
REMARK    3  A    between atoms: S_4  and  C_5
REMARK    4  A    between atoms: C_8  and  C_9
REMARK    5  A    between atoms: N_20  and  C_21
REMARK    6  A    between atoms: C_24  and  S_25
REMARK    7  A    between atoms: S_25  and  N_28
REMARK                            x       y       z     vdW  Elec       q    Type
REMARK                         _______ _______ _______ _____ _____    ______ ____
ROOT
ATOM      1  O   UNL     1       3.124   4.872  20.406  0.00  0.00    +0.000 OA
ATOM      2  C   UNL     1       3.524   4.954  19.244  0.00  0.00    +0.000 C 
ATOM      3  N   UNL     1       3.226   6.006  18.388  0.00  0.00    +0.000 N 
ATOM      4  H   UNL     1       3.628   5.931  17.458  0.00  0.00    +0.000 HD
ENDROOT
BRANCH   3   5
ATOM      5  C   UNL     1       2.552   7.213  18.691  0.00  0.00    +0.000 A 
ATOM      6  C   UNL     1       1.969   7.508  19.930  0.00  0.00    +0.000 A 
ATOM      7  C   UNL     1       1.379   8.763  20.175  0.00  0.00    +0.000 A 
ATOM      8  C   UNL     1       1.405   9.753  19.188  0.00  0.00    +0.000 A 
ATOM      9  C   UNL     1       1.946   9.457  17.935  0.00  0.00    +0.000 A 
ATOM     10  C   UNL     1       2.491   8.189  17.686  0.00  0.00    +0.000 A 
BRANCH   8  11
ATOM     11  S   UNL     1       0.568  11.316  19.437  0.00  0.00    +0.000 S 
ATOM     12  O   UNL     1       0.574  11.578  20.861  0.00  0.00    +0.000 OA
ATOM     13  O   UNL     1       1.150  12.263  18.507  0.00  0.00    +0.000 OA
BRANCH  11  14
ATOM     14  N   UNL     1      -1.027  11.052  18.979  0.00  0.00    +0.000 NA
ATOM     15  C   UNL     1      -1.494   9.721  18.575  0.00  0.00    +0.000 C 
ATOM     16  C   UNL     1      -1.806   9.893  17.101  0.00  0.00    +0.000 C 
ATOM     17  C   UNL     1      -2.339  11.315  17.001  0.00  0.00    +0.000 C 
ATOM     18  C   UNL     1      -1.759  12.064  18.200  0.00  0.00    +0.000 C 
ENDBRANCH  11  14
ENDBRANCH   8  11
ENDBRANCH   3   5
BRANCH   2  19
ATOM     19  C   UNL     1       4.361   3.803  18.661  0.00  0.00    +0.000 C 
BRANCH  19  20
ATOM     20  S   UNL     1       5.110   4.188  17.046  0.00  0.00    +0.000 S 
BRANCH  20  21
ATOM     21  C   UNL     1       6.054   5.673  17.411  0.00  0.00    +0.000 A 
ATOM     22  C   UNL     1       7.120   5.551  18.292  0.00  0.00    +0.000 A 
ATOM     23  C   UNL     1       7.913   6.661  18.580  0.00  0.00    +0.000 A 
ATOM     24  C   UNL     1       7.628   7.898  17.992  0.00  0.00    +0.000 A 
ATOM     25  C   UNL     1       6.517   7.931  17.150  0.00  0.00    +0.000 A 
ATOM     26  N   UNL     1       5.731   6.857  16.839  0.00  0.00    +0.000 NA
BRANCH  24  27
ATOM     27  C   UNL     1       8.435   9.087  18.278  0.00  0.00    +0.000 A 
ATOM     28  N   UNL     1       8.685  10.091  17.456  0.00  0.00    +0.000 NA
ATOM     29  C   UNL     1       9.378  11.028  18.192  0.00  0.00    +0.000 A 
ATOM     30  C   UNL     1       9.829  12.310  17.839  0.00  0.00    +0.000 A 
ATOM     31  C   UNL     1      10.497  13.083  18.800  0.00  0.00    +0.000 A 
ATOM     32  C   UNL     1      10.728  12.584  20.084  0.00  0.00    +0.000 A 
ATOM     33  C   UNL     1      10.298  11.304  20.453  0.00  0.00    +0.000 A 
ATOM     34  C   UNL     1       9.618  10.566  19.481  0.00  0.00    +0.000 A 
ATOM     35  N   UNL     1       9.042   9.322  19.496  0.00  0.00    +0.000 N 
ATOM     36  H   UNL     1       9.037   8.692  20.283  0.00  0.00    +0.000 HD
ENDBRANCH  24  27
ENDBRANCH  20  21
ENDBRANCH  19  20
ENDBRANCH   2  19
TORSDOF 7
ENDMDL
MODEL 5
REMARK VINA RESULT:      -8.5      1.776      2.327
REMARK  Name = 
REMARK  7 active torsions:
REMARK  status: ('A' for Active; 'I' for Inactive)
REMARK    1  A    between atoms: C_2  and  C_3
REMARK    2  A    between atoms: C_3  and  S_4
REMARK    3  A    between atoms: S_4  and  C_5
REMARK    4  A    between atoms: C_8  and  C_9
REMARK    5  A    between atoms: N_20  and  C_21
REMARK    6  A    between atoms: C_24  and  S_25
REMARK    7  A    between atoms: S_25  and  N_28
REMARK                            x       y       z     vdW  Elec       q    Type
REMARK                         _______ _______ _______ _____ _____    ______ ____
ROOT
ATOM      1  O   UNL     1       4.776   5.595  19.844  0.00  0.00    +0.000 OA
ATOM      2  C   UNL     1       4.238   5.188  18.813  0.00  0.00    +0.000 C 
ATOM      3  N   UNL     1       3.100   5.749  18.252  0.00  0.00    +0.000 N 
ATOM      4  H   UNL     1       2.774   5.301  17.401  0.00  0.00    +0.000 HD
ENDROOT
BRANCH   3   5
ATOM      5  C   UNL     1       2.428   6.933  18.642  0.00  0.00    +0.000 A 
ATOM      6  C   UNL     1       2.017   7.220  19.950  0.00  0.00    +0.000 A 
ATOM      7  C   UNL     1       1.418   8.454  20.269  0.00  0.00    +0.000 A 
ATOM      8  C   UNL     1       1.264   9.433  19.283  0.00  0.00    +0.000 A 
ATOM      9  C   UNL     1       1.633   9.144  17.968  0.00  0.00    +0.000 A 
ATOM     10  C   UNL     1       2.187   7.895  17.650  0.00  0.00    +0.000 A 
BRANCH   8  11
ATOM     11  S   UNL     1       0.410  10.965  19.641  0.00  0.00    +0.000 S 
ATOM     12  O   UNL     1      -0.459  11.239  18.516  0.00  0.00    +0.000 OA
ATOM     13  O   UNL     1      -0.127  10.849  20.982  0.00  0.00    +0.000 OA
BRANCH  11  14
ATOM     14  N   UNL     1       1.601  12.151  19.660  0.00  0.00    +0.000 NA
ATOM     15  C   UNL     1       1.429  13.392  20.423  0.00  0.00    +0.000 C 
ATOM     16  C   UNL     1       1.334  14.455  19.345  0.00  0.00    +0.000 C 
ATOM     17  C   UNL     1       2.279  13.962  18.258  0.00  0.00    +0.000 C 
ATOM     18  C   UNL     1       2.379  12.449  18.446  0.00  0.00    +0.000 C 
ENDBRANCH  11  14
ENDBRANCH   8  11
ENDBRANCH   3   5
BRANCH   2  19
ATOM     19  C   UNL     1       4.812   3.943  18.116  0.00  0.00    +0.000 C 
BRANCH  19  20
ATOM     20  S   UNL     1       5.887   4.329  16.698  0.00  0.00    +0.000 S 
BRANCH  20  21
ATOM     21  C   UNL     1       6.664   5.864  17.219  0.00  0.00    +0.000 A 
ATOM     22  C   UNL     1       7.600   5.790  18.242  0.00  0.00    +0.000 A 
ATOM     23  C   UNL     1       8.264   6.942  18.660  0.00  0.00    +0.000 A 
ATOM     24  C   UNL     1       7.979   8.173  18.057  0.00  0.00    +0.000 A 
ATOM     25  C   UNL     1       7.000   8.154  17.065  0.00  0.00    +0.000 A 
ATOM     26  N   UNL     1       6.343   7.038  16.627  0.00  0.00    +0.000 NA
BRANCH  24  27
ATOM     27  C   UNL     1       8.653   9.405  18.476  0.00  0.00    +0.000 A 
ATOM     28  N   UNL     1       8.938  10.449  17.717  0.00  0.00    +0.000 NA
ATOM     29  C   UNL     1       9.455  11.408  18.560  0.00  0.00    +0.000 A 
ATOM     30  C   UNL     1       9.856  12.728  18.299  0.00  0.00    +0.000 A 
ATOM     31  C   UNL     1      10.331  13.516  19.358  0.00  0.00    +0.000 A 
ATOM     32  C   UNL     1      10.423  12.994  20.651  0.00  0.00    +0.000 A 
ATOM     33  C   UNL     1      10.040  11.677  20.931  0.00  0.00    +0.000 A 
ATOM     34  C   UNL     1       9.553  10.924  19.859  0.00  0.00    +0.000 A 
ATOM     35  N   UNL     1       9.072   9.644  19.769  0.00  0.00    +0.000 N 
ATOM     36  H   UNL     1       9.006   8.991  20.535  0.00  0.00    +0.000 HD
ENDBRANCH  24  27
ENDBRANCH  20  21
ENDBRANCH  19  20
ENDBRANCH   2  19
TORSDOF 7
ENDMDL
MODEL 6
REMARK VINA RESULT:      -8.5      1.511      2.030
REMARK  Name = 
REMARK  7 active torsions:
REMARK  status: ('A' for Active; 'I' for Inactive)
REMARK    1  A    between atoms: C_2  and  C_3
REMARK    2  A    between atoms: C_3  and  S_4
REMARK    3  A    between atoms: S_4  and  C_5
REMARK    4  A    between atoms: C_8  and  C_9
REMARK    5  A    between atoms: N_20  and  C_21
REMARK    6  A    between atoms: C_24  and  S_25
REMARK    7  A    between atoms: S_25  and  N_28
REMARK                            x       y       z     vdW  Elec       q    Type
REMARK                         _______ _______ _______ _____ _____    ______ ____
ROOT
ATOM      1  O   UNL     1       4.659   5.508  19.806  0.00  0.00    +0.000 OA
ATOM      2  C   UNL     1       3.951   5.098  18.885  0.00  0.00    +0.000 C 
ATOM      3  N   UNL     1       2.805   5.739  18.435  0.00  0.00    +0.000 N 
ATOM      4  H   UNL     1       2.327   5.278  17.667  0.00  0.00    +0.000 HD
ENDROOT
BRANCH   3   5
ATOM      5  C   UNL     1       2.307   7.006  18.823  0.00  0.00    +0.000 A 
ATOM      6  C   UNL     1       2.190   8.111  17.969  0.00  0.00    +0.000 A 
ATOM      7  C   UNL     1       1.616   9.316  18.414  0.00  0.00    +0.000 A 
ATOM      8  C   UNL     1       1.112   9.413  19.714  0.00  0.00    +0.000 A 
ATOM      9  C   UNL     1       1.258   8.333  20.588  0.00  0.00    +0.000 A 
ATOM     10  C   UNL     1       1.873   7.151  20.149  0.00  0.00    +0.000 A 
BRANCH   8  11
ATOM     11  S   UNL     1       0.475  10.967  20.336  0.00  0.00    +0.000 S 
ATOM     12  O   UNL     1      -0.948  10.792  20.536  0.00  0.00    +0.000 OA
ATOM     13  O   UNL     1       1.334  11.370  21.431  0.00  0.00    +0.000 OA
BRANCH  11  14
ATOM     14  N   UNL     1       0.677  12.070  19.084  0.00  0.00    +0.000 NA
ATOM     15  C   UNL     1       1.820  12.989  19.055  0.00  0.00    +0.000 C 
ATOM     16  C   UNL     1       1.179  14.350  19.250  0.00  0.00    +0.000 C 
ATOM     17  C   UNL     1      -0.153  14.238  18.521  0.00  0.00    +0.000 C 
ATOM     18  C   UNL     1      -0.487  12.747  18.489  0.00  0.00    +0.000 C 
ENDBRANCH  11  14
ENDBRANCH   8  11
ENDBRANCH   3   5
BRANCH   2  19
ATOM     19  C   UNL     1       4.306   3.762  18.212  0.00  0.00    +0.000 C 
BRANCH  19  20
ATOM     20  S   UNL     1       5.437   3.935  16.795  0.00  0.00    +0.000 S 
BRANCH  20  21
ATOM     21  C   UNL     1       6.338   5.434  17.211  0.00  0.00    +0.000 A 
ATOM     22  C   UNL     1       5.872   6.628  16.676  0.00  0.00    +0.000 A 
ATOM     23  C   UNL     1       6.507   7.826  16.997  0.00  0.00    +0.000 A 
ATOM     24  C   UNL     1       7.618   7.826  17.847  0.00  0.00    +0.000 A 
ATOM     25  C   UNL     1       8.034   6.576  18.305  0.00  0.00    +0.000 A 
ATOM     26  N   UNL     1       7.423   5.387  18.019  0.00  0.00    +0.000 NA
BRANCH  24  27
ATOM     27  C   UNL     1       8.314   9.066  18.200  0.00  0.00    +0.000 A 
ATOM     28  N   UNL     1       8.307  10.199  17.519  0.00  0.00    +0.000 NA
ATOM     29  C   UNL     1       8.994  11.114  18.288  0.00  0.00    +0.000 A 
ATOM     30  C   UNL     1       9.226  12.483  18.082  0.00  0.00    +0.000 A 
ATOM     31  C   UNL     1       9.945  13.203  19.047  0.00  0.00    +0.000 A 
ATOM     32  C   UNL     1      10.439  12.569  20.190  0.00  0.00    +0.000 A 
ATOM     33  C   UNL     1      10.228  11.202  20.410  0.00  0.00    +0.000 A 
ATOM     34  C   UNL     1       9.493  10.517  19.440  0.00  0.00    +0.000 A 
ATOM     35  N   UNL     1       9.078   9.214  19.340  0.00  0.00    +0.000 N 
ATOM     36  H   UNL     1       9.275   8.487  20.010  0.00  0.00    +0.000 HD
ENDBRANCH  24  27
ENDBRANCH  20  21
ENDBRANCH  19  20
ENDBRANCH   2  19
TORSDOF 7
ENDMDL
MODEL 7
REMARK VINA RESULT:      -8.4      1.274      1.647
REMARK  Name = 
REMARK  7 active torsions:
REMARK  status: ('A' for Active; 'I' for Inactive)
REMARK    1  A    between atoms: C_2  and  C_3
REMARK    2  A    between atoms: C_3  and  S_4
REMARK    3  A    between atoms: S_4  and  C_5
REMARK    4  A    between atoms: C_8  and  C_9
REMARK    5  A    between atoms: N_20  and  C_21
REMARK    6  A    between atoms: C_24  and  S_25
REMARK    7  A    between atoms: S_25  and  N_28
REMARK                            x       y       z     vdW  Elec       q    Type
REMARK                         _______ _______ _______ _____ _____    ______ ____
ROOT
ATOM      1  O   UNL     1       4.729   5.473  19.164  0.00  0.00    +0.000 OA
ATOM      2  C   UNL     1       4.250   5.536  18.031  0.00  0.00    +0.000 C 
ATOM      3  N   UNL     1       3.144   6.303  17.692  0.00  0.00    +0.000 N 
ATOM      4  H   UNL     1       2.867   6.252  16.717  0.00  0.00    +0.000 HD
ENDROOT
BRANCH   3   5
ATOM      5  C   UNL     1       2.449   7.235  18.500  0.00  0.00    +0.000 A 
ATOM      6  C   UNL     1       2.135   7.039  19.851  0.00  0.00    +0.000 A 
ATOM      7  C   UNL     1       1.504   8.048  20.604  0.00  0.00    +0.000 A 
ATOM      8  C   UNL     1       1.219   9.284  20.018  0.00  0.00    +0.000 A 
ATOM      9  C   UNL     1       1.489   9.478  18.662  0.00  0.00    +0.000 A 
ATOM     10  C   UNL     1       2.077   8.451  17.908  0.00  0.00    +0.000 A 
BRANCH   8  11
ATOM     11  S   UNL     1       0.322  10.541  20.924  0.00  0.00    +0.000 S 
ATOM     12  O   UNL     1      -0.695   9.862  21.699  0.00  0.00    +0.000 OA
ATOM     13  O   UNL     1       1.308  11.382  21.572  0.00  0.00    +0.000 OA
BRANCH  11  14
ATOM     14  N   UNL     1      -0.463  11.464  19.759  0.00  0.00    +0.000 NA
ATOM     15  C   UNL     1      -0.574  12.921  19.889  0.00  0.00    +0.000 C 
ATOM     16  C   UNL     1      -2.061  13.140  20.096  0.00  0.00    +0.000 C 
ATOM     17  C   UNL     1      -2.715  12.065  19.239  0.00  0.00    +0.000 C 
ATOM     18  C   UNL     1      -1.674  10.956  19.094  0.00  0.00    +0.000 C 
ENDBRANCH  11  14
ENDBRANCH   8  11
ENDBRANCH   3   5
BRANCH   2  19
ATOM     19  C   UNL     1       4.865   4.676  16.914  0.00  0.00    +0.000 C 
BRANCH  19  20
ATOM     20  S   UNL     1       6.647   4.371  17.123  0.00  0.00    +0.000 S 
BRANCH  20  21
ATOM     21  C   UNL     1       7.262   6.001  17.565  0.00  0.00    +0.000 A 
ATOM     22  C   UNL     1       7.951   6.120  18.764  0.00  0.00    +0.000 A 
ATOM     23  C   UNL     1       8.485   7.351  19.139  0.00  0.00    +0.000 A 
ATOM     24  C   UNL     1       8.318   8.468  18.313  0.00  0.00    +0.000 A 
ATOM     25  C   UNL     1       7.582   8.260  17.147  0.00  0.00    +0.000 A 
ATOM     26  N   UNL     1       7.059   7.061  16.749  0.00  0.00    +0.000 NA
BRANCH  24  27
ATOM     27  C   UNL     1       8.860   9.780  18.679  0.00  0.00    +0.000 A 
ATOM     28  N   UNL     1       8.869  10.870  17.931  0.00  0.00    +0.000 NA
ATOM     29  C   UNL     1       9.364  11.879  18.728  0.00  0.00    +0.000 A 
ATOM     30  C   UNL     1       9.521  13.249  18.467  0.00  0.00    +0.000 A 
ATOM     31  C   UNL     1      10.034  14.078  19.475  0.00  0.00    +0.000 A 
ATOM     32  C   UNL     1      10.400  13.551  20.716  0.00  0.00    +0.000 A 
ATOM     33  C   UNL     1      10.262  12.186  20.994  0.00  0.00    +0.000 A 
ATOM     34  C   UNL     1       9.731  11.389  19.976  0.00  0.00    +0.000 A 
ATOM     35  N   UNL     1       9.435  10.053  19.904  0.00  0.00    +0.000 N 
ATOM     36  H   UNL     1       9.584   9.383  20.642  0.00  0.00    +0.000 HD
ENDBRANCH  24  27
ENDBRANCH  20  21
ENDBRANCH  19  20
ENDBRANCH   2  19
TORSDOF 7
ENDMDL
MODEL 8
REMARK VINA RESULT:      -8.2      1.280      1.763
REMARK  Name = 
REMARK  7 active torsions:
REMARK  status: ('A' for Active; 'I' for Inactive)
REMARK    1  A    between atoms: C_2  and  C_3
REMARK    2  A    between atoms: C_3  and  S_4
REMARK    3  A    between atoms: S_4  and  C_5
REMARK    4  A    between atoms: C_8  and  C_9
REMARK    5  A    between atoms: N_20  and  C_21
REMARK    6  A    between atoms: C_24  and  S_25
REMARK    7  A    between atoms: S_25  and  N_28
REMARK                            x       y       z     vdW  Elec       q    Type
REMARK                         _______ _______ _______ _____ _____    ______ ____
ROOT
ATOM      1  O   UNL     1       4.626   5.592  19.190  0.00  0.00    +0.000 OA
ATOM      2  C   UNL     1       4.208   5.639  18.032  0.00  0.00    +0.000 C 
ATOM      3  N   UNL     1       3.195   6.484  17.600  0.00  0.00    +0.000 N 
ATOM      4  H   UNL     1       2.960   6.406  16.615  0.00  0.00    +0.000 HD
ENDROOT
BRANCH   3   5
ATOM      5  C   UNL     1       2.554   7.517  18.325  0.00  0.00    +0.000 A 
ATOM      6  C   UNL     1       2.195   8.761  17.790  0.00  0.00    +0.000 A 
ATOM      7  C   UNL     1       1.494   9.708  18.559  0.00  0.00    +0.000 A 
ATOM      8  C   UNL     1       1.106   9.400  19.866  0.00  0.00    +0.000 A 
ATOM      9  C   UNL     1       1.493   8.180  20.425  0.00  0.00    +0.000 A 
ATOM     10  C   UNL     1       2.230   7.260  19.666  0.00  0.00    +0.000 A 
BRANCH   8  11
ATOM     11  S   UNL     1       0.309  10.627  20.898  0.00  0.00    +0.000 S 
ATOM     12  O   UNL     1      -0.659   9.928  21.717  0.00  0.00    +0.000 OA
ATOM     13  O   UNL     1       1.359  11.419  21.505  0.00  0.00    +0.000 OA
BRANCH  11  14
ATOM     14  N   UNL     1      -0.545  11.618  19.842  0.00  0.00    +0.000 NA
ATOM     15  C   UNL     1      -0.671  13.059  20.084  0.00  0.00    +0.000 C 
ATOM     16  C   UNL     1      -2.149  13.236  20.377  0.00  0.00    +0.000 C 
ATOM     17  C   UNL     1      -2.828  12.215  19.475  0.00  0.00    +0.000 C 
ATOM     18  C   UNL     1      -1.779  11.138  19.200  0.00  0.00    +0.000 C 
ENDBRANCH  11  14
ENDBRANCH   8  11
ENDBRANCH   3   5
BRANCH   2  19
ATOM     19  C   UNL     1       4.791   4.668  16.991  0.00  0.00    +0.000 C 
BRANCH  19  20
ATOM     20  S   UNL     1       6.571   4.351  17.203  0.00  0.00    +0.000 S 
BRANCH  20  21
ATOM     21  C   UNL     1       7.201   5.984  17.611  0.00  0.00    +0.000 A 
ATOM     22  C   UNL     1       7.920   6.114  18.792  0.00  0.00    +0.000 A 
ATOM     23  C   UNL     1       8.467   7.347  19.140  0.00  0.00    +0.000 A 
ATOM     24  C   UNL     1       8.282   8.456  18.307  0.00  0.00    +0.000 A 
ATOM     25  C   UNL     1       7.516   8.237  17.162  0.00  0.00    +0.000 A 
ATOM     26  N   UNL     1       6.980   7.036  16.790  0.00  0.00    +0.000 NA
BRANCH  24  27
ATOM     27  C   UNL     1       8.836   9.770  18.644  0.00  0.00    +0.000 A 
ATOM     28  N   UNL     1       9.482  10.097  19.750  0.00  0.00    +0.000 NA
ATOM     29  C   UNL     1       9.917  11.393  19.573  0.00  0.00    +0.000 A 
ATOM     30  C   UNL     1      10.709  12.206  20.399  0.00  0.00    +0.000 A 
ATOM     31  C   UNL     1      11.035  13.500  19.965  0.00  0.00    +0.000 A 
ATOM     32  C   UNL     1      10.567  13.982  18.740  0.00  0.00    +0.000 A 
ATOM     33  C   UNL     1       9.766  13.191  17.907  0.00  0.00    +0.000 A 
ATOM     34  C   UNL     1       9.475  11.901  18.358  0.00  0.00    +0.000 A 
ATOM     35  N   UNL     1       8.765  10.866  17.808  0.00  0.00    +0.000 N 
ATOM     36  H   UNL     1       8.291  10.892  16.918  0.00  0.00    +0.000 HD
ENDBRANCH  24  27
ENDBRANCH  20  21
ENDBRANCH  19  20
ENDBRANCH   2  19
TORSDOF 7
ENDMDL
MODEL 9
REMARK VINA RESULT:      -8.2      1.612      2.351
REMARK  Name = 
REMARK  7 active torsions:
REMARK  status: ('A' for Active; 'I' for Inactive)
REMARK    1  A    between atoms: C_2  and  C_3
REMARK    2  A    between atoms: C_3  and  S_4
REMARK    3  A    between atoms: S_4  and  C_5
REMARK    4  A    between atoms: C_8  and  C_9
REMARK    5  A    between atoms: N_20  and  C_21
REMARK    6  A    between atoms: C_24  and  S_25
REMARK    7  A    between atoms: S_25  and  N_28
REMARK                            x       y       z     vdW  Elec       q    Type
REMARK                         _______ _______ _______ _____ _____    ______ ____
ROOT
ATOM      1  O   UNL     1       2.650   5.424  17.499  0.00  0.00    +0.000 OA
ATOM      2  C   UNL     1       3.359   5.544  18.498  0.00  0.00    +0.000 C 
ATOM      3  N   UNL     1       3.279   6.604  19.391  0.00  0.00    +0.000 N 
ATOM      4  H   UNL     1       3.932   6.563  20.168  0.00  0.00    +0.000 HD
ENDROOT
BRANCH   3   5
ATOM      5  C   UNL     1       2.323   7.647  19.422  0.00  0.00    +0.000 A 
ATOM      6  C   UNL     1       1.644   8.071  20.572  0.00  0.00    +0.000 A 
ATOM      7  C   UNL     1       0.760   9.167  20.531  0.00  0.00    +0.000 A 
ATOM      8  C   UNL     1       0.579   9.876  19.341  0.00  0.00    +0.000 A 
ATOM      9  C   UNL     1       1.217   9.438  18.179  0.00  0.00    +0.000 A 
ATOM     10  C   UNL     1       2.062   8.319  18.218  0.00  0.00    +0.000 A 
BRANCH   8  11
ATOM     11  S   UNL     1      -0.620  11.203  19.240  0.00  0.00    +0.000 S 
ATOM     12  O   UNL     1      -1.266  11.093  17.949  0.00  0.00    +0.000 OA
ATOM     13  O   UNL     1      -1.395  11.168  20.463  0.00  0.00    +0.000 OA
BRANCH  11  14
ATOM     14  N   UNL     1       0.279  12.623  19.234  0.00  0.00    +0.000 NA
ATOM     15  C   UNL     1       1.745  12.596  19.194  0.00  0.00    +0.000 C 
ATOM     16  C   UNL     1       2.142  13.145  20.551  0.00  0.00    +0.000 C 
ATOM     17  C   UNL     1       1.075  14.188  20.853  0.00  0.00    +0.000 C 
ATOM     18  C   UNL     1      -0.149  13.782  20.033  0.00  0.00    +0.000 C 
ENDBRANCH  11  14
ENDBRANCH   8  11
ENDBRANCH   3   5
BRANCH   2  19
ATOM     19  C   UNL     1       4.451   4.495  18.766  0.00  0.00    +0.000 C 
BRANCH  19  20
ATOM     20  S   UNL     1       5.743   4.440  17.484  0.00  0.00    +0.000 S 
BRANCH  20  21
ATOM     21  C   UNL     1       6.636   5.971  17.780  0.00  0.00    +0.000 A 
ATOM     22  C   UNL     1       7.574   5.974  18.804  0.00  0.00    +0.000 A 
ATOM     23  C   UNL     1       8.326   7.121  19.054  0.00  0.00    +0.000 A 
ATOM     24  C   UNL     1       8.128   8.271  18.280  0.00  0.00    +0.000 A 
ATOM     25  C   UNL     1       7.141   8.183  17.300  0.00  0.00    +0.000 A 
ATOM     26  N   UNL     1       6.399   7.069  17.025  0.00  0.00    +0.000 NA
BRANCH  24  27
ATOM     27  C   UNL     1       8.895   9.497  18.519  0.00  0.00    +0.000 A 
ATOM     28  N   UNL     1       9.202  10.424  17.629  0.00  0.00    +0.000 NA
ATOM     29  C   UNL     1       9.820  11.439  18.328  0.00  0.00    +0.000 A 
ATOM     30  C   UNL     1      10.284  12.690  17.894  0.00  0.00    +0.000 A 
ATOM     31  C   UNL     1      10.860  13.562  18.830  0.00  0.00    +0.000 A 
ATOM     32  C   UNL     1      10.988  13.189  20.170  0.00  0.00    +0.000 A 
ATOM     33  C   UNL     1      10.542  11.941  20.622  0.00  0.00    +0.000 A 
ATOM     34  C   UNL     1       9.956  11.103  19.670  0.00  0.00    +0.000 A 
ATOM     35  N   UNL     1       9.395   9.855  19.755  0.00  0.00    +0.000 N 
ATOM     36  H   UNL     1       9.330   9.301  20.595  0.00  0.00    +0.000 HD
ENDBRANCH  24  27
ENDBRANCH  20  21
ENDBRANCH  19  20
ENDBRANCH   2  19
TORSDOF 7
ENDMDL
