MODEL 1
REMARK VINA RESULT:      -6.8      0.000      0.000
REMARK  Name = 
REMARK  7 active torsions:
REMARK  status: ('A' for Active; 'I' for Inactive)
REMARK    1  A    between atoms: C_1  and  C_2
REMARK    2  A    between atoms: C_2  and  C_3
REMARK    3  A    between atoms: N_5  and  C_6
REMARK    4  A    between atoms: N_5  and  C_14
REMARK    5  A    between atoms: C_18  and  N_19
REMARK    6  A    between atoms: N_19  and  C_20
REMARK    7  A    between atoms: N_19  and  C_21
REMARK                            x       y       z     vdW  Elec       q    Type
REMARK                         _______ _______ _______ _____ _____    ______ ____
ROOT
ATOM      1  C   UNL     1       3.139   7.065  18.011  0.00  0.00    +0.000 C 
ATOM      2  O   UNL     1       3.847   7.719  17.237  0.00  0.00    +0.000 OA
ATOM      3  N   UNL     1       3.533   5.814  18.547  0.00  0.00    +0.000 N 
ENDROOT
BRANCH   3   4
ATOM      4  C   UNL     1       4.815   5.336  18.087  0.00  0.00    +0.000 A 
ATOM      5  C   UNL     1       5.945   5.436  18.904  0.00  0.00    +0.000 A 
ATOM      6  C   UNL     1       7.194   5.077  18.409  0.00  0.00    +0.000 A 
ATOM      7 CL   UNL     1       8.595   5.284  19.402  0.00  0.00    +0.000 Cl
ATOM      8  C   UNL     1       7.345   4.579  17.125  0.00  0.00    +0.000 A 
ATOM      9  C   UNL     1       6.221   4.471  16.308  0.00  0.00    +0.000 A 
ATOM     10 CL   UNL     1       6.372   3.838  14.718  0.00  0.00    +0.000 Cl
ATOM     11  C   UNL     1       4.972   4.876  16.776  0.00  0.00    +0.000 A 
ENDBRANCH   3   4
BRANCH   3  12
ATOM     12  C   UNL     1       2.515   4.770  18.919  0.00  0.00    +0.000 C 
ATOM     13  C   UNL     1       1.523   4.509  17.762  0.00  0.00    +0.000 C 
ATOM     14  C   UNL     1       0.805   3.228  18.132  0.00  0.00    +0.000 C 
ATOM     15  C   UNL     1       1.797   2.426  18.956  0.00  0.00    +0.000 C 
ATOM     16  C   UNL     1       3.020   3.330  19.268  0.00  0.00    +0.000 C 
BRANCH  16  17
ATOM     17  N   UNL     1       3.482   3.039  20.649  0.00  0.00    +0.000 NA
ATOM     18  C   UNL     1       2.351   2.687  21.523  0.00  0.00    +0.000 C 
ATOM     19  C   UNL     1       4.493   1.990  20.723  0.00  0.00    +0.000 C 
ENDBRANCH  16  17
ENDBRANCH   3  12
BRANCH   1  21
ATOM     20  C   UNL     1       1.585   9.072  18.007  0.00  0.00    +0.000 C 
ATOM     21  C   UNL     1       1.831   7.657  18.519  0.00  0.00    +0.000 C 
ENDBRANCH   1  21
TORSDOF 4
ENDMDL
MODEL 2
REMARK VINA RESULT:      -6.7      1.852      3.963
REMARK  Name = 
REMARK  7 active torsions:
REMARK  status: ('A' for Active; 'I' for Inactive)
REMARK    1  A    between atoms: C_1  and  C_2
REMARK    2  A    between atoms: C_2  and  C_3
REMARK    3  A    between atoms: N_5  and  C_6
REMARK    4  A    between atoms: N_5  and  C_14
REMARK    5  A    between atoms: C_18  and  N_19
REMARK    6  A    between atoms: N_19  and  C_20
REMARK    7  A    between atoms: N_19  and  C_21
REMARK                            x       y       z     vdW  Elec       q    Type
REMARK                         _______ _______ _______ _____ _____    ______ ____
ROOT
ATOM      1  C   UNL     1       3.074   2.580  19.292  0.00  0.00    +0.000 C 
ATOM      2  O   UNL     1       3.994   1.759  19.364  0.00  0.00    +0.000 OA
ATOM      3  N   UNL     1       3.212   3.840  18.658  0.00  0.00    +0.000 N 
ENDROOT
BRANCH   3   4
ATOM      4  C   UNL     1       4.529   4.112  18.136  0.00  0.00    +0.000 A 
ATOM      5  C   UNL     1       5.519   4.664  18.954  0.00  0.00    +0.000 A 
ATOM      6  C   UNL     1       6.747   5.027  18.413  0.00  0.00    +0.000 A 
ATOM      7 CL   UNL     1       7.931   5.785  19.419  0.00  0.00    +0.000 Cl
ATOM      8  C   UNL     1       7.035   4.817  17.073  0.00  0.00    +0.000 A 
ATOM      9  C   UNL     1       6.054   4.261  16.254  0.00  0.00    +0.000 A 
ATOM     10 CL   UNL     1       6.387   3.968  14.593  0.00  0.00    +0.000 Cl
ATOM     11  C   UNL     1       4.801   3.941  16.775  0.00  0.00    +0.000 A 
ENDBRANCH   3   4
BRANCH   3  12
ATOM     12  C   UNL     1       2.400   5.027  19.100  0.00  0.00    +0.000 C 
ATOM     13  C   UNL     1       2.080   4.964  20.611  0.00  0.00    +0.000 C 
ATOM     14  C   UNL     1       1.587   6.349  20.975  0.00  0.00    +0.000 C 
ATOM     15  C   UNL     1       2.289   7.297  20.020  0.00  0.00    +0.000 C 
ATOM     16  C   UNL     1       3.024   6.455  18.943  0.00  0.00    +0.000 C 
BRANCH  16  17
ATOM     17  N   UNL     1       2.909   7.155  17.638  0.00  0.00    +0.000 NA
ATOM     18  C   UNL     1       2.092   8.373  17.759  0.00  0.00    +0.000 C 
ATOM     19  C   UNL     1       4.195   7.495  17.037  0.00  0.00    +0.000 C 
ENDBRANCH  16  17
ENDBRANCH   3  12
BRANCH   1  21
ATOM     20  C   UNL     1       0.646   2.161  18.681  0.00  0.00    +0.000 C 
ATOM     21  C   UNL     1       1.687   2.204  19.795  0.00  0.00    +0.000 C 
ENDBRANCH   1  21
TORSDOF 4
ENDMDL
MODEL 3
REMARK VINA RESULT:      -6.7      1.808      4.426
REMARK  Name = 
REMARK  7 active torsions:
REMARK  status: ('A' for Active; 'I' for Inactive)
REMARK    1  A    between atoms: C_1  and  C_2
REMARK    2  A    between atoms: C_2  and  C_3
REMARK    3  A    between atoms: N_5  and  C_6
REMARK    4  A    between atoms: N_5  and  C_14
REMARK    5  A    between atoms: C_18  and  N_19
REMARK    6  A    between atoms: N_19  and  C_20
REMARK    7  A    between atoms: N_19  and  C_21
REMARK                            x       y       z     vdW  Elec       q    Type
REMARK                         _______ _______ _______ _____ _____    ______ ____
ROOT
ATOM      1  C   UNL     1       3.073   2.734  19.300  0.00  0.00    +0.000 C 
ATOM      2  O   UNL     1       4.022   1.946  19.350  0.00  0.00    +0.000 OA
ATOM      3  N   UNL     1       3.149   3.995  18.658  0.00  0.00    +0.000 N 
ENDROOT
BRANCH   3   4
ATOM      4  C   UNL     1       4.440   4.310  18.096  0.00  0.00    +0.000 A 
ATOM      5  C   UNL     1       4.715   4.042  16.752  0.00  0.00    +0.000 A 
ATOM      6  C   UNL     1       5.996   4.245  16.249  0.00  0.00    +0.000 A 
ATOM      7 CL   UNL     1       6.342   3.831  14.607  0.00  0.00    +0.000 Cl
ATOM      8  C   UNL     1       7.011   4.747  17.047  0.00  0.00    +0.000 A 
ATOM      9  C   UNL     1       6.742   5.022  18.386  0.00  0.00    +0.000 A 
ATOM     10 CL   UNL     1       7.974   5.666  19.397  0.00  0.00    +0.000 Cl
ATOM     11  C   UNL     1       5.475   4.775  18.913  0.00  0.00    +0.000 A 
ENDBRANCH   3   4
BRANCH   3  12
ATOM     12  C   UNL     1       2.309   5.156  19.117  0.00  0.00    +0.000 C 
ATOM     13  C   UNL     1       2.004   5.071  20.631  0.00  0.00    +0.000 C 
ATOM     14  C   UNL     1       1.477   6.438  21.011  0.00  0.00    +0.000 C 
ATOM     15  C   UNL     1       2.145   7.414  20.058  0.00  0.00    +0.000 C 
ATOM     16  C   UNL     1       2.892   6.601  18.967  0.00  0.00    +0.000 C 
BRANCH  16  17
ATOM     17  N   UNL     1       2.747   7.309  17.670  0.00  0.00    +0.000 NA
ATOM     18  C   UNL     1       1.967   8.548  17.825  0.00  0.00    +0.000 C 
ATOM     19  C   UNL     1       4.017   7.618  17.021  0.00  0.00    +0.000 C 
ENDBRANCH  16  17
ENDBRANCH   3  12
BRANCH   1  21
ATOM     20  C   UNL     1       0.657   2.179  18.754  0.00  0.00    +0.000 C 
ATOM     21  C   UNL     1       1.714   2.314  19.845  0.00  0.00    +0.000 C 
ENDBRANCH   1  21
TORSDOF 4
ENDMDL
MODEL 4
REMARK VINA RESULT:      -6.7      0.152      1.969
REMARK  Name = 
REMARK  7 active torsions:
REMARK  status: ('A' for Active; 'I' for Inactive)
REMARK    1  A    between atoms: C_1  and  C_2
REMARK    2  A    between atoms: C_2  and  C_3
REMARK    3  A    between atoms: N_5  and  C_6
REMARK    4  A    between atoms: N_5  and  C_14
REMARK    5  A    between atoms: C_18  and  N_19
REMARK    6  A    between atoms: N_19  and  C_20
REMARK    7  A    between atoms: N_19  and  C_21
REMARK                            x       y       z     vdW  Elec       q    Type
REMARK                         _______ _______ _______ _____ _____    ______ ____
ROOT
ATOM      1  C   UNL     1       3.097   7.204  18.052  0.00  0.00    +0.000 C 
ATOM      2  O   UNL     1       3.763   7.912  17.291  0.00  0.00    +0.000 OA
ATOM      3  N   UNL     1       3.545   5.944  18.524  0.00  0.00    +0.000 N 
ENDROOT
BRANCH   3   4
ATOM      4  C   UNL     1       4.828   5.528  18.012  0.00  0.00    +0.000 A 
ATOM      5  C   UNL     1       4.939   4.985  16.728  0.00  0.00    +0.000 A 
ATOM      6  C   UNL     1       6.159   4.484  16.288  0.00  0.00    +0.000 A 
ATOM      7 CL   UNL     1       6.263   3.740  14.731  0.00  0.00    +0.000 Cl
ATOM      8  C   UNL     1       7.292   4.545  17.084  0.00  0.00    +0.000 A 
ATOM      9  C   UNL     1       7.189   5.091  18.362  0.00  0.00    +0.000 A 
ATOM     10 CL   UNL     1       8.580   5.200  19.365  0.00  0.00    +0.000 Cl
ATOM     11  C   UNL     1       5.960   5.549  18.833  0.00  0.00    +0.000 A 
ENDBRANCH   3   4
BRANCH   3  12
ATOM     12  C   UNL     1       2.569   4.853  18.876  0.00  0.00    +0.000 C 
ATOM     13  C   UNL     1       1.564   4.600  17.729  0.00  0.00    +0.000 C 
ATOM     14  C   UNL     1       0.898   3.282  18.063  0.00  0.00    +0.000 C 
ATOM     15  C   UNL     1       1.932   2.486  18.839  0.00  0.00    +0.000 C 
ATOM     16  C   UNL     1       3.130   3.419  19.161  0.00  0.00    +0.000 C 
BRANCH  16  17
ATOM     17  N   UNL     1       3.628   3.094  20.522  0.00  0.00    +0.000 NA
ATOM     18  C   UNL     1       2.514   2.806  21.441  0.00  0.00    +0.000 C 
ATOM     19  C   UNL     1       4.577   1.987  20.553  0.00  0.00    +0.000 C 
ENDBRANCH  16  17
ENDBRANCH   3  12
BRANCH   1  21
ATOM     20  C   UNL     1       1.414   9.103  18.067  0.00  0.00    +0.000 C 
ATOM     21  C   UNL     1       1.785   7.730  18.618  0.00  0.00    +0.000 C 
ENDBRANCH   1  21
TORSDOF 4
ENDMDL
MODEL 5
REMARK VINA RESULT:      -6.6      0.830      1.090
REMARK  Name = 
REMARK  7 active torsions:
REMARK  status: ('A' for Active; 'I' for Inactive)
REMARK    1  A    between atoms: C_1  and  C_2
REMARK    2  A    between atoms: C_2  and  C_3
REMARK    3  A    between atoms: N_5  and  C_6
REMARK    4  A    between atoms: N_5  and  C_14
REMARK    5  A    between atoms: C_18  and  N_19
REMARK    6  A    between atoms: N_19  and  C_20
REMARK    7  A    between atoms: N_19  and  C_21
REMARK                            x       y       z     vdW  Elec       q    Type
REMARK                         _______ _______ _______ _____ _____    ______ ____
ROOT
ATOM      1  C   UNL     1       3.215   6.977  17.792  0.00  0.00    +0.000 C 
ATOM      2  O   UNL     1       3.948   7.699  17.109  0.00  0.00    +0.000 OA
ATOM      3  N   UNL     1       3.621   5.713  18.287  0.00  0.00    +0.000 N 
ENDROOT
BRANCH   3   4
ATOM      4  C   UNL     1       4.951   5.310  17.898  0.00  0.00    +0.000 A 
ATOM      5  C   UNL     1       6.008   5.375  18.810  0.00  0.00    +0.000 A 
ATOM      6  C   UNL     1       7.305   5.092  18.393  0.00  0.00    +0.000 A 
ATOM      7 CL   UNL     1       8.614   5.256  19.510  0.00  0.00    +0.000 Cl
ATOM      8  C   UNL     1       7.574   4.705  17.090  0.00  0.00    +0.000 A 
ATOM      9  C   UNL     1       6.523   4.633  16.179  0.00  0.00    +0.000 A 
ATOM     10 CL   UNL     1       6.821   4.136  14.560  0.00  0.00    +0.000 Cl
ATOM     11  C   UNL     1       5.227   4.963  16.572  0.00  0.00    +0.000 A 
ENDBRANCH   3   4
BRANCH   3  12
ATOM     12  C   UNL     1       2.623   4.613  18.527  0.00  0.00    +0.000 C 
ATOM     13  C   UNL     1       2.536   3.652  17.319  0.00  0.00    +0.000 C 
ATOM     14  C   UNL     1       1.789   2.437  17.825  0.00  0.00    +0.000 C 
ATOM     15  C   UNL     1       2.113   2.344  19.305  0.00  0.00    +0.000 C 
ATOM     16  C   UNL     1       2.869   3.634  19.725  0.00  0.00    +0.000 C 
BRANCH  16  17
ATOM     17  N   UNL     1       2.416   4.025  21.084  0.00  0.00    +0.000 NA
ATOM     18  C   UNL     1       1.579   5.235  21.038  0.00  0.00    +0.000 C 
ATOM     19  C   UNL     1       1.699   2.970  21.792  0.00  0.00    +0.000 C 
ENDBRANCH  16  17
ENDBRANCH   3  12
BRANCH   1  21
ATOM     20  C   UNL     1       1.656   8.974  17.943  0.00  0.00    +0.000 C 
ATOM     21  C   UNL     1       1.850   7.490  18.234  0.00  0.00    +0.000 C 
ENDBRANCH   1  21
TORSDOF 4
ENDMDL
MODEL 6
REMARK VINA RESULT:      -6.5      0.857      2.247
REMARK  Name = 
REMARK  7 active torsions:
REMARK  status: ('A' for Active; 'I' for Inactive)
REMARK    1  A    between atoms: C_1  and  C_2
REMARK    2  A    between atoms: C_2  and  C_3
REMARK    3  A    between atoms: N_5  and  C_6
REMARK    4  A    between atoms: N_5  and  C_14
REMARK    5  A    between atoms: C_18  and  N_19
REMARK    6  A    between atoms: N_19  and  C_20
REMARK    7  A    between atoms: N_19  and  C_21
REMARK                            x       y       z     vdW  Elec       q    Type
REMARK                         _______ _______ _______ _____ _____    ______ ____
ROOT
ATOM      1  C   UNL     1       3.155   7.142  17.733  0.00  0.00    +0.000 C 
ATOM      2  O   UNL     1       3.849   7.893  17.040  0.00  0.00    +0.000 OA
ATOM      3  N   UNL     1       3.615   5.890  18.214  0.00  0.00    +0.000 N 
ENDROOT
BRANCH   3   4
ATOM      4  C   UNL     1       4.951   5.538  17.798  0.00  0.00    +0.000 A 
ATOM      5  C   UNL     1       5.193   5.077  16.501  0.00  0.00    +0.000 A 
ATOM      6  C   UNL     1       6.463   4.634  16.145  0.00  0.00    +0.000 A 
ATOM      7 CL   UNL     1       6.729   3.990  14.563  0.00  0.00    +0.000 Cl
ATOM      8  C   UNL     1       7.517   4.673  17.044  0.00  0.00    +0.000 A 
ATOM      9  C   UNL     1       7.283   5.136  18.337  0.00  0.00    +0.000 A 
ATOM     10 CL   UNL     1       8.574   5.216  19.469  0.00  0.00    +0.000 Cl
ATOM     11  C   UNL     1       6.003   5.535  18.719  0.00  0.00    +0.000 A 
ENDBRANCH   3   4
BRANCH   3  12
ATOM     12  C   UNL     1       2.661   4.754  18.465  0.00  0.00    +0.000 C 
ATOM     13  C   UNL     1       2.618   3.775  17.270  0.00  0.00    +0.000 C 
ATOM     14  C   UNL     1       1.919   2.537  17.790  0.00  0.00    +0.000 C 
ATOM     15  C   UNL     1       2.241   2.477  19.272  0.00  0.00    +0.000 C 
ATOM     16  C   UNL     1       2.943   3.801  19.676  0.00  0.00    +0.000 C 
BRANCH  16  17
ATOM     17  N   UNL     1       2.471   4.191  21.029  0.00  0.00    +0.000 NA
ATOM     18  C   UNL     1       1.506   5.301  20.955  0.00  0.00    +0.000 C 
ATOM     19  C   UNL     1       1.883   3.092  21.787  0.00  0.00    +0.000 C 
ENDBRANCH  16  17
ENDBRANCH   3  12
BRANCH   1  21
ATOM     20  C   UNL     1       1.540   9.088  17.953  0.00  0.00    +0.000 C 
ATOM     21  C   UNL     1       1.781   7.602  18.201  0.00  0.00    +0.000 C 
ENDBRANCH   1  21
TORSDOF 4
ENDMDL
MODEL 7
REMARK VINA RESULT:      -6.4      1.509      3.047
REMARK  Name = 
REMARK  7 active torsions:
REMARK  status: ('A' for Active; 'I' for Inactive)
REMARK    1  A    between atoms: C_1  and  C_2
REMARK    2  A    between atoms: C_2  and  C_3
REMARK    3  A    between atoms: N_5  and  C_6
REMARK    4  A    between atoms: N_5  and  C_14
REMARK    5  A    between atoms: C_18  and  N_19
REMARK    6  A    between atoms: N_19  and  C_20
REMARK    7  A    between atoms: N_19  and  C_21
REMARK                            x       y       z     vdW  Elec       q    Type
REMARK                         _______ _______ _______ _____ _____    ______ ____
ROOT
ATOM      1  C   UNL     1       2.556   6.588  19.565  0.00  0.00    +0.000 C 
ATOM      2  O   UNL     1       2.841   7.521  18.808  0.00  0.00    +0.000 OA
ATOM      3  N   UNL     1       3.361   5.429  19.698  0.00  0.00    +0.000 N 
ENDROOT
BRANCH   3   4
ATOM      4  C   UNL     1       4.526   5.401  18.848  0.00  0.00    +0.000 A 
ATOM      5  C   UNL     1       4.398   5.170  17.475  0.00  0.00    +0.000 A 
ATOM      6  C   UNL     1       5.533   5.033  16.684  0.00  0.00    +0.000 A 
ATOM      7 CL   UNL     1       5.361   4.666  15.003  0.00  0.00    +0.000 Cl
ATOM      8  C   UNL     1       6.805   5.160  17.220  0.00  0.00    +0.000 A 
ATOM      9  C   UNL     1       6.938   5.396  18.587  0.00  0.00    +0.000 A 
ATOM     10 CL   UNL     1       8.501   5.578  19.279  0.00  0.00    +0.000 Cl
ATOM     11  C   UNL     1       5.808   5.484  19.399  0.00  0.00    +0.000 A 
ENDBRANCH   3   4
BRANCH   3  12
ATOM     12  C   UNL     1       2.757   4.100  20.066  0.00  0.00    +0.000 C 
ATOM     13  C   UNL     1       2.548   3.975  21.592  0.00  0.00    +0.000 C 
ATOM     14  C   UNL     1       1.636   2.781  21.776  0.00  0.00    +0.000 C 
ATOM     15  C   UNL     1       0.782   2.722  20.522  0.00  0.00    +0.000 C 
ATOM     16  C   UNL     1       1.343   3.743  19.496  0.00  0.00    +0.000 C 
BRANCH  16  17
ATOM     17  N   UNL     1       1.237   3.154  18.138  0.00  0.00    +0.000 NA
ATOM     18  C   UNL     1       1.146   4.204  17.109  0.00  0.00    +0.000 C 
ATOM     19  C   UNL     1       2.328   2.245  17.803  0.00  0.00    +0.000 C 
ENDBRANCH  16  17
ENDBRANCH   3  12
BRANCH   1  21
ATOM     20  C   UNL     1       1.238   8.090  21.130  0.00  0.00    +0.000 C 
ATOM     21  C   UNL     1       1.354   6.710  20.493  0.00  0.00    +0.000 C 
ENDBRANCH   1  21
TORSDOF 4
ENDMDL
MODEL 8
REMARK VINA RESULT:      -6.3      1.548      2.382
REMARK  Name = 
REMARK  7 active torsions:
REMARK  status: ('A' for Active; 'I' for Inactive)
REMARK    1  A    between atoms: C_1  and  C_2
REMARK    2  A    between atoms: C_2  and  C_3
REMARK    3  A    between atoms: N_5  and  C_6
REMARK    4  A    between atoms: N_5  and  C_14
REMARK    5  A    between atoms: C_18  and  N_19
REMARK    6  A    between atoms: N_19  and  C_20
REMARK    7  A    between atoms: N_19  and  C_21
REMARK                            x       y       z     vdW  Elec       q    Type
REMARK                         _______ _______ _______ _____ _____    ______ ____
ROOT
ATOM      1  C   UNL     1       2.566   6.561  19.553  0.00  0.00    +0.000 C 
ATOM      2  O   UNL     1       2.832   7.491  18.785  0.00  0.00    +0.000 OA
ATOM      3  N   UNL     1       3.376   5.404  19.674  0.00  0.00    +0.000 N 
ENDROOT
BRANCH   3   4
ATOM      4  C   UNL     1       4.522   5.374  18.799  0.00  0.00    +0.000 A 
ATOM      5  C   UNL     1       5.763   5.844  19.238  0.00  0.00    +0.000 A 
ATOM      6  C   UNL     1       6.833   5.916  18.352  0.00  0.00    +0.000 A 
ATOM      7 CL   UNL     1       8.339   6.576  18.885  0.00  0.00    +0.000 Cl
ATOM      8  C   UNL     1       6.710   5.492  17.038  0.00  0.00    +0.000 A 
ATOM      9  C   UNL     1       5.477   5.016  16.597  0.00  0.00    +0.000 A 
ATOM     10 CL   UNL     1       5.298   4.463  14.979  0.00  0.00    +0.000 Cl
ATOM     11  C   UNL     1       4.384   4.988  17.462  0.00  0.00    +0.000 A 
ENDBRANCH   3   4
BRANCH   3  12
ATOM     12  C   UNL     1       2.783   4.075  20.060  0.00  0.00    +0.000 C 
ATOM     13  C   UNL     1       2.610   3.956  21.592  0.00  0.00    +0.000 C 
ATOM     14  C   UNL     1       1.705   2.760  21.801  0.00  0.00    +0.000 C 
ATOM     15  C   UNL     1       0.821   2.696  20.568  0.00  0.00    +0.000 C 
ATOM     16  C   UNL     1       1.356   3.715  19.526  0.00  0.00    +0.000 C 
BRANCH  16  17
ATOM     17  N   UNL     1       1.218   3.121  18.172  0.00  0.00    +0.000 NA
ATOM     18  C   UNL     1       1.129   4.166  17.140  0.00  0.00    +0.000 C 
ATOM     19  C   UNL     1       2.288   2.191  17.825  0.00  0.00    +0.000 C 
ENDBRANCH  16  17
ENDBRANCH   3  12
BRANCH   1  21
ATOM     20  C   UNL     1       1.310   8.049  21.181  0.00  0.00    +0.000 C 
ATOM     21  C   UNL     1       1.384   6.684  20.506  0.00  0.00    +0.000 C 
ENDBRANCH   1  21
TORSDOF 4
ENDMDL
MODEL 9
REMARK VINA RESULT:      -6.1      2.581      4.379
REMARK  Name = 
REMARK  7 active torsions:
REMARK  status: ('A' for Active; 'I' for Inactive)
REMARK    1  A    between atoms: C_1  and  C_2
REMARK    2  A    between atoms: C_2  and  C_3
REMARK    3  A    between atoms: N_5  and  C_6
REMARK    4  A    between atoms: N_5  and  C_14
REMARK    5  A    between atoms: C_18  and  N_19
REMARK    6  A    between atoms: N_19  and  C_20
REMARK    7  A    between atoms: N_19  and  C_21
REMARK                            x       y       z     vdW  Elec       q    Type
REMARK                         _______ _______ _______ _____ _____    ______ ____
ROOT
ATOM      1  C   UNL     1       6.351   4.829  15.186  0.00  0.00    +0.000 C 
ATOM      2  O   UNL     1       7.569   4.781  14.987  0.00  0.00    +0.000 OA
ATOM      3  N   UNL     1       5.776   5.507  16.291  0.00  0.00    +0.000 N 
ENDROOT
BRANCH   3   4
ATOM      4  C   UNL     1       6.728   6.106  17.194  0.00  0.00    +0.000 A 
ATOM      5  C   UNL     1       7.270   5.366  18.249  0.00  0.00    +0.000 A 
ATOM      6  C   UNL     1       8.098   5.984  19.180  0.00  0.00    +0.000 A 
ATOM      7 CL   UNL     1       8.694   5.078  20.525  0.00  0.00    +0.000 Cl
ATOM      8  C   UNL     1       8.436   7.324  19.066  0.00  0.00    +0.000 A 
ATOM      9  C   UNL     1       7.904   8.065  18.013  0.00  0.00    +0.000 A 
ATOM     10 CL   UNL     1       8.321   9.722  17.831  0.00  0.00    +0.000 Cl
ATOM     11  C   UNL     1       7.032   7.468  17.103  0.00  0.00    +0.000 A 
ENDBRANCH   3   4
BRANCH   3  12
ATOM     12  C   UNL     1       4.468   5.058  16.884  0.00  0.00    +0.000 C 
ATOM     13  C   UNL     1       4.350   3.517  16.896  0.00  0.00    +0.000 C 
ATOM     14  C   UNL     1       3.186   3.211  17.815  0.00  0.00    +0.000 C 
ATOM     15  C   UNL     1       3.155   4.342  18.827  0.00  0.00    +0.000 C 
ATOM     16  C   UNL     1       4.158   5.436  18.372  0.00  0.00    +0.000 C 
BRANCH  16  17
ATOM     17  N   UNL     1       3.573   6.767  18.674  0.00  0.00    +0.000 NA
ATOM     18  C   UNL     1       3.192   7.472  17.440  0.00  0.00    +0.000 C 
ATOM     19  C   UNL     1       2.426   6.716  19.574  0.00  0.00    +0.000 C 
ENDBRANCH  16  17
ENDBRANCH   3  12
BRANCH   1  21
ATOM     20  C   UNL     1       6.116   3.643  12.955  0.00  0.00    +0.000 C 
ATOM     21  C   UNL     1       5.395   4.243  14.157  0.00  0.00    +0.000 C 
ENDBRANCH   1  21
TORSDOF 4
ENDMDL
