MODEL 1
REMARK VINA RESULT:      -8.0      0.000      0.000
REMARK  Name = 
REMARK  5 active torsions:
REMARK  status: ('A' for Active; 'I' for Inactive)
REMARK    1  A    between atoms: C_1  and  N_2
REMARK    2  A    between atoms: C_13  and  N_14
REMARK    3  A    between atoms: N_14  and  C_15
REMARK    4  A    between atoms: C_15  and  C_16
REMARK    5  A    between atoms: C_21  and  O_22
REMARK                            x       y       z     vdW  Elec       q    Type
REMARK                         _______ _______ _______ _____ _____    ______ ____
ROOT
ATOM      1  C   UNL     1       2.236   2.588  17.473  0.00  0.00    +0.000 C 
ATOM      2  N   UNL     1       1.753   2.213  18.800  0.00  0.00    +0.000 NA
ATOM      3  C   UNL     1       2.819   1.917  19.771  0.00  0.00    +0.000 C 
ATOM      4  C   UNL     1       3.364   3.130  20.571  0.00  0.00    +0.000 C 
ATOM      5  C   UNL     1       2.210   3.817  21.290  0.00  0.00    +0.000 C 
ATOM      6  C   UNL     1       1.255   4.312  20.213  0.00  0.00    +0.000 C 
ATOM      7  C   UNL     1       0.749   3.131  19.348  0.00  0.00    +0.000 C 
ATOM      8  C   UNL     1       1.962   5.401  19.398  0.00  0.00    +0.000 C 
ATOM      9  N   UNL     1       3.364   5.144  19.067  0.00  0.00    +0.000 N 
ATOM     10  C   UNL     1       4.073   4.084  19.635  0.00  0.00    +0.000 A 
ATOM     11  C   UNL     1       5.333   3.827  19.242  0.00  0.00    +0.000 A 
ATOM     12  C   UNL     1       5.926   4.551  18.166  0.00  0.00    +0.000 A 
ATOM     13  C   UNL     1       5.275   5.552  17.530  0.00  0.00    +0.000 A 
ATOM     14  C   UNL     1       3.906   5.961  18.059  0.00  0.00    +0.000 A 
ATOM     15  O   UNL     1       3.327   6.907  17.561  0.00  0.00    +0.000 OA
ENDROOT
BRANCH  13  16
ATOM     16  N   UNL     1       5.786   6.129  16.381  0.00  0.00    +0.000 N 
ATOM     17  H   UNL     1       5.608   7.136  16.340  0.00  0.00    +0.000 HD
BRANCH  16  18
ATOM     18  C   UNL     1       7.011   5.680  15.744  0.00  0.00    +0.000 C 
BRANCH  18  19
ATOM     19  C   UNL     1       6.738   4.912  14.463  0.00  0.00    +0.000 A 
ATOM     20  C   UNL     1       5.635   4.061  14.277  0.00  0.00    +0.000 A 
ATOM     21  C   UNL     1       5.402   3.455  13.037  0.00  0.00    +0.000 A 
ATOM     22  C   UNL     1       6.283   3.661  11.979  0.00  0.00    +0.000 A 
ATOM     23  C   UNL     1       7.404   4.468  12.153  0.00  0.00    +0.000 A 
ATOM     24  C   UNL     1       7.615   5.091  13.384  0.00  0.00    +0.000 A 
BRANCH  24  25
ATOM     25  O   UNL     1       8.693   5.917  13.548  0.00  0.00    +0.000 OA
ATOM     26  H   UNL     1       8.413   6.707  14.033  0.00  0.00    +0.000 HD
ENDBRANCH  24  25
ENDBRANCH  18  19
ENDBRANCH  16  18
ENDBRANCH  13  16
TORSDOF 4
ENDMDL
MODEL 2
REMARK VINA RESULT:      -7.8      1.442      1.912
REMARK  Name = 
REMARK  5 active torsions:
REMARK  status: ('A' for Active; 'I' for Inactive)
REMARK    1  A    between atoms: C_1  and  N_2
REMARK    2  A    between atoms: C_13  and  N_14
REMARK    3  A    between atoms: N_14  and  C_15
REMARK    4  A    between atoms: C_15  and  C_16
REMARK    5  A    between atoms: C_21  and  O_22
REMARK                            x       y       z     vdW  Elec       q    Type
REMARK                         _______ _______ _______ _____ _____    ______ ____
ROOT
ATOM      1  C   UNL     1       3.798   2.230  20.832  0.00  0.00    +0.000 C 
ATOM      2  N   UNL     1       2.615   2.775  21.494  0.00  0.00    +0.000 NA
ATOM      3  C   UNL     1       2.694   4.215  21.787  0.00  0.00    +0.000 C 
ATOM      4  C   UNL     1       2.210   5.165  20.660  0.00  0.00    +0.000 C 
ATOM      5  C   UNL     1       0.777   4.809  20.284  0.00  0.00    +0.000 C 
ATOM      6  C   UNL     1       0.802   3.379  19.762  0.00  0.00    +0.000 C 
ATOM      7  C   UNL     1       1.351   2.415  20.842  0.00  0.00    +0.000 C 
ATOM      8  C   UNL     1       1.607   3.350  18.459  0.00  0.00    +0.000 C 
ATOM      9  N   UNL     1       2.830   4.153  18.443  0.00  0.00    +0.000 N 
ATOM     10  C   UNL     1       3.133   5.054  19.466  0.00  0.00    +0.000 A 
ATOM     11  C   UNL     1       4.306   5.710  19.461  0.00  0.00    +0.000 A 
ATOM     12  C   UNL     1       5.305   5.419  18.485  0.00  0.00    +0.000 A 
ATOM     13  C   UNL     1       5.101   4.514  17.500  0.00  0.00    +0.000 A 
ATOM     14  C   UNL     1       3.725   3.871  17.396  0.00  0.00    +0.000 A 
ATOM     15  O   UNL     1       3.483   3.112  16.476  0.00  0.00    +0.000 OA
ENDROOT
BRANCH  13  16
ATOM     16  N   UNL     1       6.131   4.112  16.667  0.00  0.00    +0.000 N 
ATOM     17  H   UNL     1       6.024   3.142  16.358  0.00  0.00    +0.000 HD
BRANCH  16  18
ATOM     18  C   UNL     1       6.786   5.004  15.727  0.00  0.00    +0.000 C 
BRANCH  18  19
ATOM     19  C   UNL     1       6.678   4.504  14.298  0.00  0.00    +0.000 A 
ATOM     20  C   UNL     1       5.687   3.615  13.849  0.00  0.00    +0.000 A 
ATOM     21  C   UNL     1       5.599   3.266  12.496  0.00  0.00    +0.000 A 
ATOM     22  C   UNL     1       6.519   3.771  11.581  0.00  0.00    +0.000 A 
ATOM     23  C   UNL     1       7.535   4.621  12.011  0.00  0.00    +0.000 A 
ATOM     24  C   UNL     1       7.599   4.986  13.357  0.00  0.00    +0.000 A 
BRANCH  24  25
ATOM     25  O   UNL     1       8.570   5.853  13.776  0.00  0.00    +0.000 OA
ATOM     26  H   UNL     1       9.409   5.612  13.355  0.00  0.00    +0.000 HD
ENDBRANCH  24  25
ENDBRANCH  18  19
ENDBRANCH  16  18
ENDBRANCH  13  16
TORSDOF 4
ENDMDL
MODEL 3
REMARK VINA RESULT:      -7.6      4.095      7.094
REMARK  Name = 
REMARK  5 active torsions:
REMARK  status: ('A' for Active; 'I' for Inactive)
REMARK    1  A    between atoms: C_1  and  N_2
REMARK    2  A    between atoms: C_13  and  N_14
REMARK    3  A    between atoms: N_14  and  C_15
REMARK    4  A    between atoms: C_15  and  C_16
REMARK    5  A    between atoms: C_21  and  O_22
REMARK                            x       y       z     vdW  Elec       q    Type
REMARK                         _______ _______ _______ _____ _____    ______ ____
ROOT
ATOM      1  C   UNL     1       1.151   4.031  17.478  0.00  0.00    +0.000 C 
ATOM      2  N   UNL     1       2.224   3.043  17.574  0.00  0.00    +0.000 NA
ATOM      3  C   UNL     1       3.522   3.508  17.060  0.00  0.00    +0.000 C 
ATOM      4  C   UNL     1       4.431   4.245  18.080  0.00  0.00    +0.000 C 
ATOM      5  C   UNL     1       4.664   3.345  19.287  0.00  0.00    +0.000 C 
ATOM      6  C   UNL     1       3.300   3.094  19.916  0.00  0.00    +0.000 C 
ATOM      7  C   UNL     1       2.345   2.424  18.898  0.00  0.00    +0.000 C 
ATOM      8  C   UNL     1       2.766   4.420  20.467  0.00  0.00    +0.000 C 
ATOM      9  N   UNL     1       2.972   5.595  19.620  0.00  0.00    +0.000 N 
ATOM     10  C   UNL     1       3.788   5.552  18.487  0.00  0.00    +0.000 A 
ATOM     11  C   UNL     1       3.885   6.627  17.684  0.00  0.00    +0.000 A 
ATOM     12  C   UNL     1       3.076   7.781  17.905  0.00  0.00    +0.000 A 
ATOM     13  C   UNL     1       2.220   7.867  18.948  0.00  0.00    +0.000 A 
ATOM     14  C   UNL     1       2.206   6.724  19.956  0.00  0.00    +0.000 A 
ATOM     15  O   UNL     1       1.505   6.805  20.947  0.00  0.00    +0.000 OA
ENDROOT
BRANCH  13  16
ATOM     16  N   UNL     1       1.318   8.911  19.056  0.00  0.00    +0.000 N 
ATOM     17  H   UNL     1       1.372   9.379  19.965  0.00  0.00    +0.000 HD
BRANCH  16  18
ATOM     18  C   UNL     1       0.941   9.754  17.935  0.00  0.00    +0.000 C 
BRANCH  18  19
ATOM     19  C   UNL     1      -0.440  10.357  18.116  0.00  0.00    +0.000 A 
ATOM     20  C   UNL     1      -1.576   9.952  17.393  0.00  0.00    +0.000 A 
ATOM     21  C   UNL     1      -2.834  10.495  17.677  0.00  0.00    +0.000 A 
ATOM     22  C   UNL     1      -2.971  11.472  18.659  0.00  0.00    +0.000 A 
ATOM     23  C   UNL     1      -1.854  11.917  19.359  0.00  0.00    +0.000 A 
ATOM     24  C   UNL     1      -0.607  11.351  19.090  0.00  0.00    +0.000 A 
BRANCH  24  25
ATOM     25  O   UNL     1       0.488  11.757  19.804  0.00  0.00    +0.000 OA
ATOM     26  H   UNL     1       1.264  11.267  19.494  0.00  0.00    +0.000 HD
ENDBRANCH  24  25
ENDBRANCH  18  19
ENDBRANCH  16  18
ENDBRANCH  13  16
TORSDOF 4
ENDMDL
MODEL 4
REMARK VINA RESULT:      -7.5      3.979      8.072
REMARK  Name = 
REMARK  5 active torsions:
REMARK  status: ('A' for Active; 'I' for Inactive)
REMARK    1  A    between atoms: C_1  and  N_2
REMARK    2  A    between atoms: C_13  and  N_14
REMARK    3  A    between atoms: N_14  and  C_15
REMARK    4  A    between atoms: C_15  and  C_16
REMARK    5  A    between atoms: C_21  and  O_22
REMARK                            x       y       z     vdW  Elec       q    Type
REMARK                         _______ _______ _______ _____ _____    ______ ____
ROOT
ATOM      1  C   UNL     1       6.079   5.453  19.548  0.00  0.00    +0.000 C 
ATOM      2  N   UNL     1       6.199   4.362  18.583  0.00  0.00    +0.000 NA
ATOM      3  C   UNL     1       5.173   3.317  18.721  0.00  0.00    +0.000 C 
ATOM      4  C   UNL     1       3.854   3.551  17.937  0.00  0.00    +0.000 C 
ATOM      5  C   UNL     1       4.175   3.744  16.460  0.00  0.00    +0.000 C 
ATOM      6  C   UNL     1       5.049   4.986  16.360  0.00  0.00    +0.000 C 
ATOM      7  C   UNL     1       6.343   4.812  17.194  0.00  0.00    +0.000 C 
ATOM      8  C   UNL     1       4.217   6.203  16.780  0.00  0.00    +0.000 C 
ATOM      9  N   UNL     1       3.349   6.015  17.942  0.00  0.00    +0.000 N 
ATOM     10  C   UNL     1       3.130   4.754  18.501  0.00  0.00    +0.000 A 
ATOM     11  C   UNL     1       2.396   4.630  19.621  0.00  0.00    +0.000 A 
ATOM     12  C   UNL     1       1.927   5.782  20.319  0.00  0.00    +0.000 A 
ATOM     13  C   UNL     1       2.154   7.037  19.867  0.00  0.00    +0.000 A 
ATOM     14  C   UNL     1       2.851   7.194  18.522  0.00  0.00    +0.000 A 
ATOM     15  O   UNL     1       3.002   8.304  18.048  0.00  0.00    +0.000 OA
ENDROOT
BRANCH  13  16
ATOM     16  N   UNL     1       1.849   8.146  20.635  0.00  0.00    +0.000 N 
ATOM     17  H   UNL     1       2.062   9.024  20.154  0.00  0.00    +0.000 HD
BRANCH  16  18
ATOM     18  C   UNL     1       0.727   8.191  21.556  0.00  0.00    +0.000 C 
BRANCH  18  19
ATOM     19  C   UNL     1       0.024   9.536  21.532  0.00  0.00    +0.000 A 
ATOM     20  C   UNL     1      -0.310  10.227  20.354  0.00  0.00    +0.000 A 
ATOM     21  C   UNL     1      -1.036  11.422  20.409  0.00  0.00    +0.000 A 
ATOM     22  C   UNL     1      -1.408  11.961  21.638  0.00  0.00    +0.000 A 
ATOM     23  C   UNL     1      -1.053  11.315  22.818  0.00  0.00    +0.000 A 
ATOM     24  C   UNL     1      -0.352  10.109  22.755  0.00  0.00    +0.000 A 
BRANCH  24  25
ATOM     25  O   UNL     1      -0.036   9.449  23.911  0.00  0.00    +0.000 OA
ATOM     26  H   UNL     1      -0.611   9.769  24.622  0.00  0.00    +0.000 HD
ENDBRANCH  24  25
ENDBRANCH  18  19
ENDBRANCH  16  18
ENDBRANCH  13  16
TORSDOF 4
ENDMDL
MODEL 5
REMARK VINA RESULT:      -7.4      3.665      6.571
REMARK  Name = 
REMARK  5 active torsions:
REMARK  status: ('A' for Active; 'I' for Inactive)
REMARK    1  A    between atoms: C_1  and  N_2
REMARK    2  A    between atoms: C_13  and  N_14
REMARK    3  A    between atoms: N_14  and  C_15
REMARK    4  A    between atoms: C_15  and  C_16
REMARK    5  A    between atoms: C_21  and  O_22
REMARK                            x       y       z     vdW  Elec       q    Type
REMARK                         _______ _______ _______ _____ _____    ______ ____
ROOT
ATOM      1  C   UNL     1       2.208   4.079  21.379  0.00  0.00    +0.000 C 
ATOM      2  N   UNL     1       2.264   2.649  21.084  0.00  0.00    +0.000 NA
ATOM      3  C   UNL     1       1.481   2.242  19.907  0.00  0.00    +0.000 C 
ATOM      4  C   UNL     1       2.219   2.311  18.543  0.00  0.00    +0.000 C 
ATOM      5  C   UNL     1       3.487   1.470  18.615  0.00  0.00    +0.000 C 
ATOM      6  C   UNL     1       4.363   2.089  19.695  0.00  0.00    +0.000 C 
ATOM      7  C   UNL     1       3.625   2.102  21.056  0.00  0.00    +0.000 C 
ATOM      8  C   UNL     1       4.799   3.483  19.229  0.00  0.00    +0.000 C 
ATOM      9  N   UNL     1       3.770   4.291  18.575  0.00  0.00    +0.000 N 
ATOM     10  C   UNL     1       2.535   3.752  18.205  0.00  0.00    +0.000 A 
ATOM     11  C   UNL     1       1.582   4.544  17.685  0.00  0.00    +0.000 A 
ATOM     12  C   UNL     1       1.766   5.957  17.607  0.00  0.00    +0.000 A 
ATOM     13  C   UNL     1       2.914   6.553  18.002  0.00  0.00    +0.000 A 
ATOM     14  C   UNL     1       4.063   5.659  18.452  0.00  0.00    +0.000 A 
ATOM     15  O   UNL     1       5.135   6.157  18.740  0.00  0.00    +0.000 OA
ENDROOT
BRANCH  13  16
ATOM     16  N   UNL     1       3.020   7.930  18.086  0.00  0.00    +0.000 N 
ATOM     17  H   UNL     1       3.916   8.274  17.730  0.00  0.00    +0.000 HD
BRANCH  16  18
ATOM     18  C   UNL     1       1.889   8.825  17.913  0.00  0.00    +0.000 C 
BRANCH  18  19
ATOM     19  C   UNL     1       1.219   9.157  19.235  0.00  0.00    +0.000 A 
ATOM     20  C   UNL     1       1.448   8.454  20.430  0.00  0.00    +0.000 A 
ATOM     21  C   UNL     1       0.860   8.873  21.629  0.00  0.00    +0.000 A 
ATOM     22  C   UNL     1       0.009   9.975  21.645  0.00  0.00    +0.000 A 
ATOM     23  C   UNL     1      -0.264  10.662  20.465  0.00  0.00    +0.000 A 
ATOM     24  C   UNL     1       0.349  10.255  19.279  0.00  0.00    +0.000 A 
BRANCH  24  25
ATOM     25  O   UNL     1       0.115  10.951  18.124  0.00  0.00    +0.000 OA
ATOM     26  H   UNL     1       0.327  10.384  17.367  0.00  0.00    +0.000 HD
ENDBRANCH  24  25
ENDBRANCH  18  19
ENDBRANCH  16  18
ENDBRANCH  13  16
TORSDOF 4
ENDMDL
MODEL 6
REMARK VINA RESULT:      -7.4      1.378      2.268
REMARK  Name = 
REMARK  5 active torsions:
REMARK  status: ('A' for Active; 'I' for Inactive)
REMARK    1  A    between atoms: C_1  and  N_2
REMARK    2  A    between atoms: C_13  and  N_14
REMARK    3  A    between atoms: N_14  and  C_15
REMARK    4  A    between atoms: C_15  and  C_16
REMARK    5  A    between atoms: C_21  and  O_22
REMARK                            x       y       z     vdW  Elec       q    Type
REMARK                         _______ _______ _______ _____ _____    ______ ____
ROOT
ATOM      1  C   UNL     1       2.137   5.728  19.931  0.00  0.00    +0.000 C 
ATOM      2  N   UNL     1       1.364   4.636  20.518  0.00  0.00    +0.000 NA
ATOM      3  C   UNL     1       0.784   3.708  19.535  0.00  0.00    +0.000 C 
ATOM      4  C   UNL     1       1.687   2.521  19.105  0.00  0.00    +0.000 C 
ATOM      5  C   UNL     1       2.111   1.739  20.342  0.00  0.00    +0.000 C 
ATOM      6  C   UNL     1       2.914   2.695  21.212  0.00  0.00    +0.000 C 
ATOM      7  C   UNL     1       2.061   3.929  21.598  0.00  0.00    +0.000 C 
ATOM      8  C   UNL     1       4.206   3.059  20.471  0.00  0.00    +0.000 C 
ATOM      9  N   UNL     1       4.071   3.318  19.038  0.00  0.00    +0.000 N 
ATOM     10  C   UNL     1       2.889   3.042  18.347  0.00  0.00    +0.000 A 
ATOM     11  C   UNL     1       2.772   3.373  17.049  0.00  0.00    +0.000 A 
ATOM     12  C   UNL     1       3.799   4.108  16.386  0.00  0.00    +0.000 A 
ATOM     13  C   UNL     1       4.946   4.460  17.011  0.00  0.00    +0.000 A 
ATOM     14  C   UNL     1       5.164   3.964  18.435  0.00  0.00    +0.000 A 
ATOM     15  O   UNL     1       6.216   4.196  18.999  0.00  0.00    +0.000 OA
ENDROOT
BRANCH  13  16
ATOM     16  N   UNL     1       5.856   5.318  16.418  0.00  0.00    +0.000 N 
ATOM     17  H   UNL     1       5.921   6.214  16.907  0.00  0.00    +0.000 HD
BRANCH  16  18
ATOM     18  C   UNL     1       7.076   4.861  15.776  0.00  0.00    +0.000 C 
BRANCH  18  19
ATOM     19  C   UNL     1       6.839   4.445  14.336  0.00  0.00    +0.000 A 
ATOM     20  C   UNL     1       5.834   3.549  13.931  0.00  0.00    +0.000 A 
ATOM     21  C   UNL     1       5.621   3.281  12.574  0.00  0.00    +0.000 A 
ATOM     22  C   UNL     1       6.429   3.873  11.607  0.00  0.00    +0.000 A 
ATOM     23  C   UNL     1       7.457   4.731  11.987  0.00  0.00    +0.000 A 
ATOM     24  C   UNL     1       7.645   5.015  13.341  0.00  0.00    +0.000 A 
BRANCH  24  25
ATOM     25  O   UNL     1       8.629   5.890  13.717  0.00  0.00    +0.000 OA
ATOM     26  H   UNL     1       8.810   6.493  12.981  0.00  0.00    +0.000 HD
ENDBRANCH  24  25
ENDBRANCH  18  19
ENDBRANCH  16  18
ENDBRANCH  13  16
TORSDOF 4
ENDMDL
MODEL 7
REMARK VINA RESULT:      -7.4      4.253      7.799
REMARK  Name = 
REMARK  5 active torsions:
REMARK  status: ('A' for Active; 'I' for Inactive)
REMARK    1  A    between atoms: C_1  and  N_2
REMARK    2  A    between atoms: C_13  and  N_14
REMARK    3  A    between atoms: N_14  and  C_15
REMARK    4  A    between atoms: C_15  and  C_16
REMARK    5  A    between atoms: C_21  and  O_22
REMARK                            x       y       z     vdW  Elec       q    Type
REMARK                         _______ _______ _______ _____ _____    ______ ____
ROOT
ATOM      1  C   UNL     1       1.362   4.247  17.502  0.00  0.00    +0.000 C 
ATOM      2  N   UNL     1       2.564   3.418  17.545  0.00  0.00    +0.000 NA
ATOM      3  C   UNL     1       3.758   4.052  16.963  0.00  0.00    +0.000 C 
ATOM      4  C   UNL     1       4.606   4.918  17.932  0.00  0.00    +0.000 C 
ATOM      5  C   UNL     1       5.023   4.073  19.129  0.00  0.00    +0.000 C 
ATOM      6  C   UNL     1       3.741   3.642  19.828  0.00  0.00    +0.000 C 
ATOM      7  C   UNL     1       2.837   2.836  18.863  0.00  0.00    +0.000 C 
ATOM      8  C   UNL     1       3.056   4.888  20.401  0.00  0.00    +0.000 C 
ATOM      9  N   UNL     1       3.054   6.071  19.540  0.00  0.00    +0.000 N 
ATOM     10  C   UNL     1       3.810   6.129  18.367  0.00  0.00    +0.000 A 
ATOM     11  C   UNL     1       3.716   7.198  17.556  0.00  0.00    +0.000 A 
ATOM     12  C   UNL     1       2.767   8.231  17.814  0.00  0.00    +0.000 A 
ATOM     13  C   UNL     1       1.961   8.209  18.901  0.00  0.00    +0.000 A 
ATOM     14  C   UNL     1       2.157   7.087  19.911  0.00  0.00    +0.000 A 
ATOM     15  O   UNL     1       1.504   7.080  20.937  0.00  0.00    +0.000 OA
ENDROOT
BRANCH  13  16
ATOM     16  N   UNL     1       0.930   9.120  19.051  0.00  0.00    +0.000 N 
ATOM     17  H   UNL     1       0.096   8.697  19.468  0.00  0.00    +0.000 HD
BRANCH  16  18
ATOM     18  C   UNL     1       1.147  10.522  19.362  0.00  0.00    +0.000 C 
BRANCH  18  19
ATOM     19  C   UNL     1       0.136  11.045  20.366  0.00  0.00    +0.000 A 
ATOM     20  C   UNL     1      -0.935  11.892  20.034  0.00  0.00    +0.000 A 
ATOM     21  C   UNL     1      -1.878  12.264  20.999  0.00  0.00    +0.000 A 
ATOM     22  C   UNL     1      -1.745  11.826  22.314  0.00  0.00    +0.000 A 
ATOM     23  C   UNL     1      -0.669  11.020  22.674  0.00  0.00    +0.000 A 
ATOM     24  C   UNL     1       0.251  10.631  21.700  0.00  0.00    +0.000 A 
BRANCH  24  25
ATOM     25  O   UNL     1       1.289   9.805  22.041  0.00  0.00    +0.000 OA
ATOM     26  H   UNL     1       1.854  10.261  22.682  0.00  0.00    +0.000 HD
ENDBRANCH  24  25
ENDBRANCH  18  19
ENDBRANCH  16  18
ENDBRANCH  13  16
TORSDOF 4
ENDMDL
MODEL 8
REMARK VINA RESULT:      -7.3      3.594      6.463
REMARK  Name = 
REMARK  5 active torsions:
REMARK  status: ('A' for Active; 'I' for Inactive)
REMARK    1  A    between atoms: C_1  and  N_2
REMARK    2  A    between atoms: C_13  and  N_14
REMARK    3  A    between atoms: N_14  and  C_15
REMARK    4  A    between atoms: C_15  and  C_16
REMARK    5  A    between atoms: C_21  and  O_22
REMARK                            x       y       z     vdW  Elec       q    Type
REMARK                         _______ _______ _______ _____ _____    ______ ____
ROOT
ATOM      1  C   UNL     1       1.055   3.921  17.538  0.00  0.00    +0.000 C 
ATOM      2  N   UNL     1       1.733   2.725  18.031  0.00  0.00    +0.000 NA
ATOM      3  C   UNL     1       3.151   2.632  17.650  0.00  0.00    +0.000 C 
ATOM      4  C   UNL     1       4.159   3.314  18.613  0.00  0.00    +0.000 C 
ATOM      5  C   UNL     1       3.980   2.742  20.014  0.00  0.00    +0.000 C 
ATOM      6  C   UNL     1       2.561   3.081  20.447  0.00  0.00    +0.000 C 
ATOM      7  C   UNL     1       1.531   2.475  19.462  0.00  0.00    +0.000 C 
ATOM      8  C   UNL     1       2.444   4.603  20.586  0.00  0.00    +0.000 C 
ATOM      9  N   UNL     1       3.094   5.394  19.542  0.00  0.00    +0.000 N 
ATOM     10  C   UNL     1       3.946   4.812  18.601  0.00  0.00    +0.000 A 
ATOM     11  C   UNL     1       4.458   5.554  17.603  0.00  0.00    +0.000 A 
ATOM     12  C   UNL     1       4.055   6.910  17.419  0.00  0.00    +0.000 A 
ATOM     13  C   UNL     1       3.187   7.520  18.259  0.00  0.00    +0.000 A 
ATOM     14  C   UNL     1       2.714   6.745  19.482  0.00  0.00    +0.000 A 
ATOM     15  O   UNL     1       1.995   7.289  20.298  0.00  0.00    +0.000 OA
ENDROOT
BRANCH  13  16
ATOM     16  N   UNL     1       2.670   8.772  17.976  0.00  0.00    +0.000 N 
ATOM     17  H   UNL     1       3.287   9.320  17.372  0.00  0.00    +0.000 HD
BRANCH  16  18
ATOM     18  C   UNL     1       1.248   9.028  17.822  0.00  0.00    +0.000 C 
BRANCH  18  19
ATOM     19  C   UNL     1       0.766  10.132  18.745  0.00  0.00    +0.000 A 
ATOM     20  C   UNL     1      -0.237   9.964  19.715  0.00  0.00    +0.000 A 
ATOM     21  C   UNL     1      -0.568  11.006  20.589  0.00  0.00    +0.000 A 
ATOM     22  C   UNL     1       0.071  12.239  20.484  0.00  0.00    +0.000 A 
ATOM     23  C   UNL     1       1.040  12.440  19.505  0.00  0.00    +0.000 A 
ATOM     24  C   UNL     1       1.384  11.388  18.655  0.00  0.00    +0.000 A 
BRANCH  24  25
ATOM     25  O   UNL     1       2.363  11.569  17.717  0.00  0.00    +0.000 OA
ATOM     26  H   UNL     1       2.763  12.442  17.846  0.00  0.00    +0.000 HD
ENDBRANCH  24  25
ENDBRANCH  18  19
ENDBRANCH  16  18
ENDBRANCH  13  16
TORSDOF 4
ENDMDL
MODEL 9
REMARK VINA RESULT:      -7.3      3.480      7.834
REMARK  Name = 
REMARK  5 active torsions:
REMARK  status: ('A' for Active; 'I' for Inactive)
REMARK    1  A    between atoms: C_1  and  N_2
REMARK    2  A    between atoms: C_13  and  N_14
REMARK    3  A    between atoms: N_14  and  C_15
REMARK    4  A    between atoms: C_15  and  C_16
REMARK    5  A    between atoms: C_21  and  O_22
REMARK                            x       y       z     vdW  Elec       q    Type
REMARK                         _______ _______ _______ _____ _____    ______ ____
ROOT
ATOM      1  C   UNL     1       6.503   5.873  19.159  0.00  0.00    +0.000 C 
ATOM      2  N   UNL     1       6.811   5.053  17.991  0.00  0.00    +0.000 NA
ATOM      3  C   UNL     1       5.988   3.839  17.869  0.00  0.00    +0.000 C 
ATOM      4  C   UNL     1       4.646   4.002  17.107  0.00  0.00    +0.000 C 
ATOM      5  C   UNL     1       4.924   4.559  15.716  0.00  0.00    +0.000 C 
ATOM      6  C   UNL     1       5.562   5.927  15.911  0.00  0.00    +0.000 C 
ATOM      7  C   UNL     1       6.869   5.807  16.734  0.00  0.00    +0.000 C 
ATOM      8  C   UNL     1       4.528   6.861  16.549  0.00  0.00    +0.000 C 
ATOM      9  N   UNL     1       3.711   6.281  17.615  0.00  0.00    +0.000 N 
ATOM     10  C   UNL     1       3.721   4.911  17.887  0.00  0.00    +0.000 A 
ATOM     11  C   UNL     1       3.025   4.425  18.929  0.00  0.00    +0.000 A 
ATOM     12  C   UNL     1       2.361   5.301  19.838  0.00  0.00    +0.000 A 
ATOM     13  C   UNL     1       2.360   6.643  19.669  0.00  0.00    +0.000 A 
ATOM     14  C   UNL     1       3.013   7.203  18.412  0.00  0.00    +0.000 A 
ATOM     15  O   UNL     1       2.962   8.398  18.189  0.00  0.00    +0.000 OA
ENDROOT
BRANCH  13  16
ATOM     16  N   UNL     1       1.865   7.492  20.643  0.00  0.00    +0.000 N 
ATOM     17  H   UNL     1       2.356   8.389  20.663  0.00  0.00    +0.000 HD
BRANCH  16  18
ATOM     18  C   UNL     1       0.464   7.533  21.023  0.00  0.00    +0.000 C 
BRANCH  18  19
ATOM     19  C   UNL     1       0.029   8.926  21.442  0.00  0.00    +0.000 A 
ATOM     20  C   UNL     1      -0.415   9.255  22.735  0.00  0.00    +0.000 A 
ATOM     21  C   UNL     1      -0.717  10.580  23.071  0.00  0.00    +0.000 A 
ATOM     22  C   UNL     1      -0.614  11.586  22.114  0.00  0.00    +0.000 A 
ATOM     23  C   UNL     1      -0.216  11.277  20.816  0.00  0.00    +0.000 A 
ATOM     24  C   UNL     1       0.110   9.958  20.497  0.00  0.00    +0.000 A 
BRANCH  24  25
ATOM     25  O   UNL     1       0.540   9.655  19.233  0.00  0.00    +0.000 OA
ATOM     26  H   UNL     1       0.590   8.692  19.141  0.00  0.00    +0.000 HD
ENDBRANCH  24  25
ENDBRANCH  18  19
ENDBRANCH  16  18
ENDBRANCH  13  16
TORSDOF 4
ENDMDL
