MODEL 1
REMARK VINA RESULT:      -7.7      0.000      0.000
REMARK  Name = 
REMARK  1 active torsions:
REMARK  status: ('A' for Active; 'I' for Inactive)
REMARK    1  A    between atoms: O_1  and  C_2
REMARK                            x       y       z     vdW  Elec       q    Type
REMARK                         _______ _______ _______ _____ _____    ______ ____
ROOT
ATOM      1  C   UNL     1       2.070   6.215  20.099  0.00  0.00    +0.000 A 
ATOM      2  N   UNL     1       1.319   5.275  20.614  0.00  0.00    +0.000 NA
ATOM      3  C   UNL     1       1.496   4.197  19.773  0.00  0.00    +0.000 A 
ATOM      4  C   UNL     1       0.950   2.908  19.819  0.00  0.00    +0.000 A 
ATOM      5  C   UNL     1       1.340   1.982  18.841  0.00  0.00    +0.000 A 
ATOM      6  C   UNL     1       2.289   2.316  17.865  0.00  0.00    +0.000 A 
ATOM      7  C   UNL     1       2.878   3.592  17.809  0.00  0.00    +0.000 A 
ATOM      8  C   UNL     1       2.390   4.504  18.755  0.00  0.00    +0.000 A 
ATOM      9  N   UNL     1       2.668   5.832  18.944  0.00  0.00    +0.000 N 
ATOM     10  C   UNL     1       3.490   6.616  18.052  0.00  0.00    +0.000 C 
ATOM     11  C   UNL     1       4.915   6.043  17.948  0.00  0.00    +0.000 C 
ATOM     12  C   UNL     1       5.801   7.019  17.156  0.00  0.00    +0.000 C 
ATOM     13  C   UNL     1       7.247   6.533  17.125  0.00  0.00    +0.000 C 
ATOM     14  C   UNL     1       7.314   5.129  16.536  0.00  0.00    +0.000 C 
ATOM     15  C   UNL     1       6.397   4.163  17.287  0.00  0.00    +0.000 C 
ATOM     16  N   UNL     1       5.052   4.691  17.399  0.00  0.00    +0.000 NA
ATOM     17  C   UNL     1       3.945   3.959  16.804  0.00  0.00    +0.000 C 
ENDROOT
BRANCH   1  18
ATOM     18  O   UNL     1       2.240   7.385  20.676  0.00  0.00    +0.000 OA
ATOM     19  H   UNL     1       2.020   7.174  21.602  0.00  0.00    +0.000 HD
ENDBRANCH   1  18
TORSDOF 1
ENDMDL
MODEL 2
REMARK VINA RESULT:      -7.4      2.170      5.247
REMARK  Name = 
REMARK  1 active torsions:
REMARK  status: ('A' for Active; 'I' for Inactive)
REMARK    1  A    between atoms: O_1  and  C_2
REMARK                            x       y       z     vdW  Elec       q    Type
REMARK                         _______ _______ _______ _____ _____    ______ ____
ROOT
ATOM      1  C   UNL     1       7.079   5.271  18.922  0.00  0.00    +0.000 A 
ATOM      2  N   UNL     1       7.674   5.732  17.852  0.00  0.00    +0.000 NA
ATOM      3  C   UNL     1       6.936   5.221  16.805  0.00  0.00    +0.000 A 
ATOM      4  C   UNL     1       7.094   5.375  15.421  0.00  0.00    +0.000 A 
ATOM      5  C   UNL     1       6.160   4.766  14.571  0.00  0.00    +0.000 A 
ATOM      6  C   UNL     1       5.066   4.056  15.086  0.00  0.00    +0.000 A 
ATOM      7  C   UNL     1       4.864   3.908  16.470  0.00  0.00    +0.000 A 
ATOM      8  C   UNL     1       5.871   4.463  17.272  0.00  0.00    +0.000 A 
ATOM      9  N   UNL     1       6.045   4.443  18.631  0.00  0.00    +0.000 N 
ATOM     10  C   UNL     1       5.217   3.682  19.536  0.00  0.00    +0.000 C 
ATOM     11  C   UNL     1       3.742   4.114  19.449  0.00  0.00    +0.000 C 
ATOM     12  C   UNL     1       2.942   3.425  20.568  0.00  0.00    +0.000 C 
ATOM     13  C   UNL     1       1.496   3.913  20.577  0.00  0.00    +0.000 C 
ATOM     14  C   UNL     1       0.855   3.673  19.215  0.00  0.00    +0.000 C 
ATOM     15  C   UNL     1       1.672   4.313  18.092  0.00  0.00    +0.000 C 
ATOM     16  N   UNL     1       3.066   3.921  18.164  0.00  0.00    +0.000 NA
ATOM     17  C   UNL     1       3.663   3.199  17.051  0.00  0.00    +0.000 C 
ENDROOT
BRANCH   1  18
ATOM     18  O   UNL     1       7.438   5.616  20.140  0.00  0.00    +0.000 OA
ATOM     19  H   UNL     1       7.617   4.744  20.539  0.00  0.00    +0.000 HD
ENDBRANCH   1  18
TORSDOF 1
ENDMDL
MODEL 3
REMARK VINA RESULT:      -6.9      2.368      3.313
REMARK  Name = 
REMARK  1 active torsions:
REMARK  status: ('A' for Active; 'I' for Inactive)
REMARK    1  A    between atoms: O_1  and  C_2
REMARK                            x       y       z     vdW  Elec       q    Type
REMARK                         _______ _______ _______ _____ _____    ______ ____
ROOT
ATOM      1  C   UNL     1       3.474   1.646  18.747  0.00  0.00    +0.000 A 
ATOM      2  N   UNL     1       2.216   1.577  19.100  0.00  0.00    +0.000 NA
ATOM      3  C   UNL     1       1.926   2.836  19.581  0.00  0.00    +0.000 A 
ATOM      4  C   UNL     1       0.734   3.361  20.097  0.00  0.00    +0.000 A 
ATOM      5  C   UNL     1       0.709   4.709  20.483  0.00  0.00    +0.000 A 
ATOM      6  C   UNL     1       1.833   5.530  20.318  0.00  0.00    +0.000 A 
ATOM      7  C   UNL     1       3.036   5.041  19.776  0.00  0.00    +0.000 A 
ATOM      8  C   UNL     1       3.033   3.670  19.487  0.00  0.00    +0.000 A 
ATOM      9  N   UNL     1       4.032   2.850  19.031  0.00  0.00    +0.000 N 
ATOM     10  C   UNL     1       5.405   3.267  18.872  0.00  0.00    +0.000 C 
ATOM     11  C   UNL     1       5.527   4.436  17.877  0.00  0.00    +0.000 C 
ATOM     12  C   UNL     1       7.013   4.706  17.589  0.00  0.00    +0.000 C 
ATOM     13  C   UNL     1       7.168   5.789  16.525  0.00  0.00    +0.000 C 
ATOM     14  C   UNL     1       6.454   7.062  16.967  0.00  0.00    +0.000 C 
ATOM     15  C   UNL     1       4.987   6.791  17.304  0.00  0.00    +0.000 C 
ATOM     16  N   UNL     1       4.855   5.688  18.235  0.00  0.00    +0.000 NA
ATOM     17  C   UNL     1       4.242   5.919  19.533  0.00  0.00    +0.000 C 
ENDROOT
BRANCH   1  18
ATOM     18  O   UNL     1       4.101   0.656  18.150  0.00  0.00    +0.000 OA
ATOM     19  H   UNL     1       4.098   0.961  17.223  0.00  0.00    +0.000 HD
ENDBRANCH   1  18
TORSDOF 1
ENDMDL
MODEL 4
REMARK VINA RESULT:      -6.7      1.750      4.803
REMARK  Name = 
REMARK  1 active torsions:
REMARK  status: ('A' for Active; 'I' for Inactive)
REMARK    1  A    between atoms: O_1  and  C_2
REMARK                            x       y       z     vdW  Elec       q    Type
REMARK                         _______ _______ _______ _____ _____    ______ ____
ROOT
ATOM      1  C   UNL     1       3.956   7.340  17.344  0.00  0.00    +0.000 A 
ATOM      2  N   UNL     1       4.585   7.361  16.197  0.00  0.00    +0.000 NA
ATOM      3  C   UNL     1       5.052   6.073  16.039  0.00  0.00    +0.000 A 
ATOM      4  C   UNL     1       5.793   5.495  15.001  0.00  0.00    +0.000 A 
ATOM      5  C   UNL     1       6.103   4.130  15.081  0.00  0.00    +0.000 A 
ATOM      6  C   UNL     1       5.646   3.345  16.149  0.00  0.00    +0.000 A 
ATOM      7  C   UNL     1       4.876   3.890  17.192  0.00  0.00    +0.000 A 
ATOM      8  C   UNL     1       4.667   5.272  17.106  0.00  0.00    +0.000 A 
ATOM      9  N   UNL     1       4.044   6.138  17.966  0.00  0.00    +0.000 N 
ATOM     10  C   UNL     1       3.558   5.762  19.273  0.00  0.00    +0.000 C 
ATOM     11  C   UNL     1       2.501   4.647  19.183  0.00  0.00    +0.000 C 
ATOM     12  C   UNL     1       1.872   4.427  20.570  0.00  0.00    +0.000 C 
ATOM     13  C   UNL     1       0.745   3.401  20.495  0.00  0.00    +0.000 C 
ATOM     14  C   UNL     1       1.268   2.092  19.915  0.00  0.00    +0.000 C 
ATOM     15  C   UNL     1       1.940   2.310  18.559  0.00  0.00    +0.000 C 
ATOM     16  N   UNL     1       2.934   3.363  18.625  0.00  0.00    +0.000 NA
ATOM     17  C   UNL     1       4.322   3.054  18.323  0.00  0.00    +0.000 C 
ENDROOT
BRANCH   1  18
ATOM     18  O   UNL     1       3.286   8.373  17.807  0.00  0.00    +0.000 OA
ATOM     19  H   UNL     1       3.606   8.410  18.728  0.00  0.00    +0.000 HD
ENDBRANCH   1  18
TORSDOF 1
ENDMDL
MODEL 5
REMARK VINA RESULT:      -6.6      2.465      3.274
REMARK  Name = 
REMARK  1 active torsions:
REMARK  status: ('A' for Active; 'I' for Inactive)
REMARK    1  A    between atoms: O_1  and  C_2
REMARK                            x       y       z     vdW  Elec       q    Type
REMARK                         _______ _______ _______ _____ _____    ______ ____
ROOT
ATOM      1  C   UNL     1       4.394   2.537  20.075  0.00  0.00    +0.000 A 
ATOM      2  N   UNL     1       3.230   2.634  20.663  0.00  0.00    +0.000 NA
ATOM      3  C   UNL     1       2.819   3.923  20.394  0.00  0.00    +0.000 A 
ATOM      4  C   UNL     1       1.648   4.599  20.762  0.00  0.00    +0.000 A 
ATOM      5  C   UNL     1       1.467   5.915  20.311  0.00  0.00    +0.000 A 
ATOM      6  C   UNL     1       2.409   6.529  19.473  0.00  0.00    +0.000 A 
ATOM      7  C   UNL     1       3.580   5.866  19.063  0.00  0.00    +0.000 A 
ATOM      8  C   UNL     1       3.752   4.588  19.610  0.00  0.00    +0.000 A 
ATOM      9  N   UNL     1       4.789   3.699  19.500  0.00  0.00    +0.000 N 
ATOM     10  C   UNL     1       6.039   4.001  18.842  0.00  0.00    +0.000 C 
ATOM     11  C   UNL     1       5.825   4.367  17.363  0.00  0.00    +0.000 C 
ATOM     12  C   UNL     1       7.190   4.478  16.662  0.00  0.00    +0.000 C 
ATOM     13  C   UNL     1       7.010   4.736  15.168  0.00  0.00    +0.000 C 
ATOM     14  C   UNL     1       6.177   5.994  14.952  0.00  0.00    +0.000 C 
ATOM     15  C   UNL     1       4.839   5.911  15.687  0.00  0.00    +0.000 C 
ATOM     16  N   UNL     1       5.023   5.561  17.081  0.00  0.00    +0.000 NA
ATOM     17  C   UNL     1       4.581   6.484  18.114  0.00  0.00    +0.000 C 
ENDROOT
BRANCH   1  18
ATOM     18  O   UNL     1       5.075   1.411  20.026  0.00  0.00    +0.000 OA
ATOM     19  H   UNL     1       5.910   1.676  20.453  0.00  0.00    +0.000 HD
ENDBRANCH   1  18
TORSDOF 1
ENDMDL
MODEL 6
REMARK VINA RESULT:      -6.4      2.358      2.750
REMARK  Name = 
REMARK  1 active torsions:
REMARK  status: ('A' for Active; 'I' for Inactive)
REMARK    1  A    between atoms: O_1  and  C_2
REMARK                            x       y       z     vdW  Elec       q    Type
REMARK                         _______ _______ _______ _____ _____    ______ ____
ROOT
ATOM      1  C   UNL     1       4.287   2.326  20.475  0.00  0.00    +0.000 A 
ATOM      2  N   UNL     1       3.073   1.853  20.601  0.00  0.00    +0.000 NA
ATOM      3  C   UNL     1       2.322   2.604  19.721  0.00  0.00    +0.000 A 
ATOM      4  C   UNL     1       0.956   2.551  19.417  0.00  0.00    +0.000 A 
ATOM      5  C   UNL     1       0.456   3.419  18.436  0.00  0.00    +0.000 A 
ATOM      6  C   UNL     1       1.305   4.290  17.739  0.00  0.00    +0.000 A 
ATOM      7  C   UNL     1       2.686   4.346  18.000  0.00  0.00    +0.000 A 
ATOM      8  C   UNL     1       3.118   3.520  19.046  0.00  0.00    +0.000 A 
ATOM      9  N   UNL     1       4.354   3.375  19.620  0.00  0.00    +0.000 N 
ATOM     10  C   UNL     1       5.492   4.204  19.297  0.00  0.00    +0.000 C 
ATOM     11  C   UNL     1       5.861   4.100  17.806  0.00  0.00    +0.000 C 
ATOM     12  C   UNL     1       7.190   4.833  17.557  0.00  0.00    +0.000 C 
ATOM     13  C   UNL     1       7.639   4.659  16.109  0.00  0.00    +0.000 C 
ATOM     14  C   UNL     1       6.552   5.155  15.162  0.00  0.00    +0.000 C 
ATOM     15  C   UNL     1       5.215   4.467  15.437  0.00  0.00    +0.000 C 
ATOM     16  N   UNL     1       4.856   4.551  16.838  0.00  0.00    +0.000 NA
ATOM     17  C   UNL     1       3.631   5.233  17.223  0.00  0.00    +0.000 C 
ENDROOT
BRANCH   1  18
ATOM     18  O   UNL     1       5.322   1.800  21.095  0.00  0.00    +0.000 OA
ATOM     19  H   UNL     1       5.910   2.574  21.173  0.00  0.00    +0.000 HD
ENDBRANCH   1  18
TORSDOF 1
ENDMDL
MODEL 7
REMARK VINA RESULT:      -6.4      1.538      4.853
REMARK  Name = 
REMARK  1 active torsions:
REMARK  status: ('A' for Active; 'I' for Inactive)
REMARK    1  A    between atoms: O_1  and  C_2
REMARK                            x       y       z     vdW  Elec       q    Type
REMARK                         _______ _______ _______ _____ _____    ______ ____
ROOT
ATOM      1  C   UNL     1       3.319   7.573  17.760  0.00  0.00    +0.000 A 
ATOM      2  N   UNL     1       4.394   7.922  17.102  0.00  0.00    +0.000 NA
ATOM      3  C   UNL     1       5.295   6.909  17.358  0.00  0.00    +0.000 A 
ATOM      4  C   UNL     1       6.614   6.733  16.920  0.00  0.00    +0.000 A 
ATOM      5  C   UNL     1       7.296   5.571  17.306  0.00  0.00    +0.000 A 
ATOM      6  C   UNL     1       6.665   4.582  18.074  0.00  0.00    +0.000 A 
ATOM      7  C   UNL     1       5.333   4.716  18.505  0.00  0.00    +0.000 A 
ATOM      8  C   UNL     1       4.726   5.932  18.163  0.00  0.00    +0.000 A 
ATOM      9  N   UNL     1       3.490   6.433  18.475  0.00  0.00    +0.000 N 
ATOM     10  C   UNL     1       2.568   5.792  19.384  0.00  0.00    +0.000 C 
ATOM     11  C   UNL     1       2.184   4.383  18.897  0.00  0.00    +0.000 C 
ATOM     12  C   UNL     1       1.055   3.829  19.781  0.00  0.00    +0.000 C 
ATOM     13  C   UNL     1       0.577   2.476  19.261  0.00  0.00    +0.000 C 
ATOM     14  C   UNL     1       1.747   1.501  19.188  0.00  0.00    +0.000 C 
ATOM     15  C   UNL     1       2.895   2.067  18.352  0.00  0.00    +0.000 C 
ATOM     16  N   UNL     1       3.264   3.397  18.793  0.00  0.00    +0.000 NA
ATOM     17  C   UNL     1       4.612   3.639  19.283  0.00  0.00    +0.000 C 
ENDROOT
BRANCH   1  18
ATOM     18  O   UNL     1       2.192   8.249  17.691  0.00  0.00    +0.000 OA
ATOM     19  H   UNL     1       2.251   8.799  18.494  0.00  0.00    +0.000 HD
ENDBRANCH   1  18
TORSDOF 1
ENDMDL
MODEL 8
REMARK VINA RESULT:      -6.3      2.415      5.642
REMARK  Name = 
REMARK  1 active torsions:
REMARK  status: ('A' for Active; 'I' for Inactive)
REMARK    1  A    between atoms: O_1  and  C_2
REMARK                            x       y       z     vdW  Elec       q    Type
REMARK                         _______ _______ _______ _____ _____    ______ ____
ROOT
ATOM      1  C   UNL     1       5.562   4.170  15.631  0.00  0.00    +0.000 A 
ATOM      2  N   UNL     1       6.847   4.343  15.809  0.00  0.00    +0.000 NA
ATOM      3  C   UNL     1       6.955   4.779  17.113  0.00  0.00    +0.000 A 
ATOM      4  C   UNL     1       8.085   5.123  17.866  0.00  0.00    +0.000 A 
ATOM      5  C   UNL     1       7.906   5.502  19.204  0.00  0.00    +0.000 A 
ATOM      6  C   UNL     1       6.635   5.496  19.794  0.00  0.00    +0.000 A 
ATOM      7  C   UNL     1       5.484   5.128  19.073  0.00  0.00    +0.000 A 
ATOM      8  C   UNL     1       5.708   4.841  17.720  0.00  0.00    +0.000 A 
ATOM      9  N   UNL     1       4.830   4.529  16.715  0.00  0.00    +0.000 N 
ATOM     10  C   UNL     1       3.394   4.563  16.862  0.00  0.00    +0.000 C 
ATOM     11  C   UNL     1       2.917   3.596  17.960  0.00  0.00    +0.000 C 
ATOM     12  C   UNL     1       1.381   3.518  17.938  0.00  0.00    +0.000 C 
ATOM     13  C   UNL     1       0.878   2.486  18.944  0.00  0.00    +0.000 C 
ATOM     14  C   UNL     1       1.391   2.824  20.339  0.00  0.00    +0.000 C 
ATOM     15  C   UNL     1       2.915   2.953  20.358  0.00  0.00    +0.000 C 
ATOM     16  N   UNL     1       3.381   3.856  19.325  0.00  0.00    +0.000 NA
ATOM     17  C   UNL     1       4.112   5.056  19.702  0.00  0.00    +0.000 C 
ENDROOT
BRANCH   1  18
ATOM     18  O   UNL     1       5.059   3.666  14.524  0.00  0.00    +0.000 OA
ATOM     19  H   UNL     1       4.873   4.476  14.014  0.00  0.00    +0.000 HD
ENDBRANCH   1  18
TORSDOF 1
ENDMDL
MODEL 9
REMARK VINA RESULT:      -6.3      2.436      3.056
REMARK  Name = 
REMARK  1 active torsions:
REMARK  status: ('A' for Active; 'I' for Inactive)
REMARK    1  A    between atoms: O_1  and  C_2
REMARK                            x       y       z     vdW  Elec       q    Type
REMARK                         _______ _______ _______ _____ _____    ______ ____
ROOT
ATOM      1  C   UNL     1       4.413   2.068  19.713  0.00  0.00    +0.000 A 
ATOM      2  N   UNL     1       3.290   1.526  19.316  0.00  0.00    +0.000 NA
ATOM      3  C   UNL     1       2.563   2.581  18.807  0.00  0.00    +0.000 A 
ATOM      4  C   UNL     1       1.285   2.613  18.235  0.00  0.00    +0.000 A 
ATOM      5  C   UNL     1       0.798   3.837  17.755  0.00  0.00    +0.000 A 
ATOM      6  C   UNL     1       1.583   4.997  17.802  0.00  0.00    +0.000 A 
ATOM      7  C   UNL     1       2.881   4.992  18.343  0.00  0.00    +0.000 A 
ATOM      8  C   UNL     1       3.286   3.765  18.884  0.00  0.00    +0.000 A 
ATOM      9  N   UNL     1       4.430   3.415  19.552  0.00  0.00    +0.000 N 
ATOM     10  C   UNL     1       5.449   4.358  19.950  0.00  0.00    +0.000 C 
ATOM     11  C   UNL     1       6.046   5.089  18.734  0.00  0.00    +0.000 C 
ATOM     12  C   UNL     1       7.256   5.924  19.186  0.00  0.00    +0.000 C 
ATOM     13  C   UNL     1       7.937   6.580  17.988  0.00  0.00    +0.000 C 
ATOM     14  C   UNL     1       6.935   7.435  17.221  0.00  0.00    +0.000 C 
ATOM     15  C   UNL     1       5.705   6.624  16.812  0.00  0.00    +0.000 C 
ATOM     16  N   UNL     1       5.135   5.923  17.945  0.00  0.00    +0.000 NA
ATOM     17  C   UNL     1       3.770   6.215  18.352  0.00  0.00    +0.000 C 
ENDROOT
BRANCH   1  18
ATOM     18  O   UNL     1       5.419   1.360  20.181  0.00  0.00    +0.000 OA
ATOM     19  H   UNL     1       6.067   2.060  20.382  0.00  0.00    +0.000 HD
ENDBRANCH   1  18
TORSDOF 1
ENDMDL
