MODEL 1
REMARK VINA RESULT:      -7.6      0.000      0.000
REMARK  Name = 
REMARK  10 active torsions:
REMARK  status: ('A' for Active; 'I' for Inactive)
REMARK    1  A    between atoms: C_1  and  C_2
REMARK    2  A    between atoms: C_2  and  C_3
REMARK    3  A    between atoms: C_8  and  N_9
REMARK    4  A    between atoms: C_10  and  C_12
REMARK    5  A    between atoms: C_12  and  N_13
REMARK    6  A    between atoms: N_13  and  C_14
REMARK    7  A    between atoms: C_15  and  C_17
REMARK    8  A    between atoms: C_17  and  S_18
REMARK    9  A    between atoms: S_18  and  C_19
REMARK   10  A    between atoms: N_21  and  C_22
REMARK                            x       y       z     vdW  Elec       q    Type
REMARK                         _______ _______ _______ _____ _____    ______ ____
ROOT
ATOM      1  N   UNL     1       1.291  11.223  19.025  0.00  0.00    +0.000 N 
ATOM      2  C   UNL     1       2.185  12.118  18.291  0.00  0.00    +0.000 C 
ATOM      3  C   UNL     1       1.497   9.846  18.877  0.00  0.00    +0.000 C 
ATOM      4  O   UNL     1       2.323   9.404  18.077  0.00  0.00    +0.000 OA
ENDROOT
BRANCH   1   5
ATOM      5  C   UNL     1       0.367  11.847  19.980  0.00  0.00    +0.000 C 
BRANCH   5   7
ATOM      6  N   UNL     1      -1.825  11.392  18.883  0.00  0.00    +0.000 N 
ATOM      7  C   UNL     1      -1.016  12.329  19.503  0.00  0.00    +0.000 C 
ATOM      8  O   UNL     1      -1.291  13.522  19.656  0.00  0.00    +0.000 OA
ATOM      9  H   UNL     1      -1.409  10.493  18.676  0.00  0.00    +0.000 HD
BRANCH   6  15
ATOM     10  C   UNL     1      -3.587  11.224  17.164  0.00  0.00    +0.000 A 
ATOM     11  C   UNL     1      -4.946  11.379  16.802  0.00  0.00    +0.000 A 
ATOM     12  C   UNL     1      -5.872  11.942  17.676  0.00  0.00    +0.000 A 
ATOM     13  C   UNL     1      -5.457  12.346  18.934  0.00  0.00    +0.000 A 
ATOM     14  C   UNL     1      -4.127  12.163  19.324  0.00  0.00    +0.000 A 
ATOM     15  C   UNL     1      -3.171  11.601  18.460  0.00  0.00    +0.000 A 
BRANCH  10  17
ATOM     16  C   UNL     1      -3.353  10.387  14.780  0.00  0.00    +0.000 C 
ATOM     17  C   UNL     1      -2.650  10.741  16.078  0.00  0.00    +0.000 C 
ENDBRANCH  10  17
ENDBRANCH   6  15
ENDBRANCH   5   7
ENDBRANCH   1   5
BRANCH   3  18
ATOM     18  C   UNL     1       0.667   8.941  19.773  0.00  0.00    +0.000 C 
BRANCH  18  19
ATOM     19  S   UNL     1       1.572   7.904  20.913  0.00  0.00    +0.000 S 
BRANCH  19  20
ATOM     20  C   UNL     1       2.189   6.527  20.057  0.00  0.00    +0.000 A 
ATOM     21  N   UNL     1       3.201   6.434  19.248  0.00  0.00    +0.000 NA
ATOM     22  N   UNL     1       3.439   5.066  18.978  0.00  0.00    +0.000 N 
ATOM     23  C   UNL     1       2.533   4.166  19.552  0.00  0.00    +0.000 A 
ATOM     24  S   UNL     1       2.329   2.515  19.367  0.00  0.00    +0.000 S 
ATOM     25  S   UNL     1       1.402   5.058  20.537  0.00  0.00    +0.000 S 
BRANCH  22  26
ATOM     26  C   UNL     1       4.510   4.724  18.086  0.00  0.00    +0.000 A 
ATOM     27  C   UNL     1       4.274   4.394  16.736  0.00  0.00    +0.000 A 
ATOM     28  C   UNL     1       5.318   4.288  15.811  0.00  0.00    +0.000 A 
ATOM     29  C   UNL     1       6.620   4.471  16.239  0.00  0.00    +0.000 A 
ATOM     30  F   UNL     1       7.620   4.435  15.348  0.00  0.00    +0.000 F 
ATOM     31  C   UNL     1       6.894   4.694  17.583  0.00  0.00    +0.000 A 
ATOM     32  C   UNL     1       5.842   4.800  18.513  0.00  0.00    +0.000 A 
ENDBRANCH  22  26
ENDBRANCH  19  20
ENDBRANCH  18  19
ENDBRANCH   3  18
TORSDOF 8
ENDMDL
MODEL 2
REMARK VINA RESULT:      -7.2      1.445      2.466
REMARK  Name = 
REMARK  10 active torsions:
REMARK  status: ('A' for Active; 'I' for Inactive)
REMARK    1  A    between atoms: C_1  and  C_2
REMARK    2  A    between atoms: C_2  and  C_3
REMARK    3  A    between atoms: C_8  and  N_9
REMARK    4  A    between atoms: C_10  and  C_12
REMARK    5  A    between atoms: C_12  and  N_13
REMARK    6  A    between atoms: N_13  and  C_14
REMARK    7  A    between atoms: C_15  and  C_17
REMARK    8  A    between atoms: C_17  and  S_18
REMARK    9  A    between atoms: S_18  and  C_19
REMARK   10  A    between atoms: N_21  and  C_22
REMARK                            x       y       z     vdW  Elec       q    Type
REMARK                         _______ _______ _______ _____ _____    ______ ____
ROOT
ATOM      1  N   UNL     1       0.568  11.056  21.185  0.00  0.00    +0.000 N 
ATOM      2  C   UNL     1      -0.101  12.031  22.045  0.00  0.00    +0.000 C 
ATOM      3  C   UNL     1       0.644   9.737  21.647  0.00  0.00    +0.000 C 
ATOM      4  O   UNL     1       0.264   9.432  22.778  0.00  0.00    +0.000 OA
ENDROOT
BRANCH   1   5
ATOM      5  C   UNL     1       0.952  11.510  19.843  0.00  0.00    +0.000 C 
BRANCH   5   7
ATOM      6  N   UNL     1      -1.022  10.714  18.544  0.00  0.00    +0.000 N 
ATOM      7  C   UNL     1      -0.133  11.751  18.777  0.00  0.00    +0.000 C 
ATOM      8  O   UNL     1      -0.111  12.823  18.168  0.00  0.00    +0.000 OA
ATOM      9  H   UNL     1      -0.824   9.831  18.997  0.00  0.00    +0.000 HD
BRANCH   6  15
ATOM     10  C   UNL     1      -3.314  11.483  18.049  0.00  0.00    +0.000 A 
ATOM     11  C   UNL     1      -4.391  11.572  17.137  0.00  0.00    +0.000 A 
ATOM     12  C   UNL     1      -4.357  10.925  15.904  0.00  0.00    +0.000 A 
ATOM     13  C   UNL     1      -3.236  10.190  15.556  0.00  0.00    +0.000 A 
ATOM     14  C   UNL     1      -2.145  10.125  16.427  0.00  0.00    +0.000 A 
ATOM     15  C   UNL     1      -2.155  10.764  17.679  0.00  0.00    +0.000 A 
BRANCH  10  17
ATOM     16  C   UNL     1      -4.938  12.630  19.625  0.00  0.00    +0.000 C 
ATOM     17  C   UNL     1      -3.530  12.100  19.413  0.00  0.00    +0.000 C 
ENDBRANCH  10  17
ENDBRANCH   6  15
ENDBRANCH   5   7
ENDBRANCH   1   5
BRANCH   3  18
ATOM     18  C   UNL     1       1.195   8.711  20.670  0.00  0.00    +0.000 C 
BRANCH  18  19
ATOM     19  S   UNL     1       1.253   7.020  21.243  0.00  0.00    +0.000 S 
BRANCH  19  20
ATOM     20  C   UNL     1       2.092   6.055  20.070  0.00  0.00    +0.000 A 
ATOM     21  N   UNL     1       3.135   6.338  19.351  0.00  0.00    +0.000 NA
ATOM     22  N   UNL     1       3.577   5.157  18.710  0.00  0.00    +0.000 N 
ATOM     23  C   UNL     1       2.790   4.019  18.923  0.00  0.00    +0.000 A 
ATOM     24  S   UNL     1       2.833   2.488  18.246  0.00  0.00    +0.000 S 
ATOM     25  S   UNL     1       1.508   4.421  20.036  0.00  0.00    +0.000 S 
BRANCH  22  26
ATOM     26  C   UNL     1       4.717   5.239  17.843  0.00  0.00    +0.000 A 
ATOM     27  C   UNL     1       5.980   4.747  18.228  0.00  0.00    +0.000 A 
ATOM     28  C   UNL     1       7.029   4.612  17.313  0.00  0.00    +0.000 A 
ATOM     29  C   UNL     1       6.837   5.012  16.003  0.00  0.00    +0.000 A 
ATOM     30  F   UNL     1       7.814   4.827  15.105  0.00  0.00    +0.000 F 
ATOM     31  C   UNL     1       5.638   5.598  15.616  0.00  0.00    +0.000 A 
ATOM     32  C   UNL     1       4.584   5.732  16.539  0.00  0.00    +0.000 A 
ENDBRANCH  22  26
ENDBRANCH  19  20
ENDBRANCH  18  19
ENDBRANCH   3  18
TORSDOF 8
ENDMDL
MODEL 3
REMARK VINA RESULT:      -7.2      4.964      9.808
REMARK  Name = 
REMARK  10 active torsions:
REMARK  status: ('A' for Active; 'I' for Inactive)
REMARK    1  A    between atoms: C_1  and  C_2
REMARK    2  A    between atoms: C_2  and  C_3
REMARK    3  A    between atoms: C_8  and  N_9
REMARK    4  A    between atoms: C_10  and  C_12
REMARK    5  A    between atoms: C_12  and  N_13
REMARK    6  A    between atoms: N_13  and  C_14
REMARK    7  A    between atoms: C_15  and  C_17
REMARK    8  A    between atoms: C_17  and  S_18
REMARK    9  A    between atoms: S_18  and  C_19
REMARK   10  A    between atoms: N_21  and  C_22
REMARK                            x       y       z     vdW  Elec       q    Type
REMARK                         _______ _______ _______ _____ _____    ______ ____
ROOT
ATOM      1  N   UNL     1       1.937   2.673  19.196  0.00  0.00    +0.000 N 
ATOM      2  C   UNL     1       2.460   1.311  19.286  0.00  0.00    +0.000 C 
ATOM      3  C   UNL     1       1.294   3.191  20.327  0.00  0.00    +0.000 C 
ATOM      4  O   UNL     1       1.078   2.491  21.317  0.00  0.00    +0.000 OA
ENDROOT
BRANCH   1   5
ATOM      5  C   UNL     1       2.279   3.436  17.990  0.00  0.00    +0.000 C 
BRANCH   5   7
ATOM      6  N   UNL     1       4.133   5.062  18.357  0.00  0.00    +0.000 N 
ATOM      7  C   UNL     1       3.734   3.881  17.752  0.00  0.00    +0.000 C 
ATOM      8  O   UNL     1       4.431   3.191  17.004  0.00  0.00    +0.000 OA
ATOM      9  H   UNL     1       3.413   5.611  18.808  0.00  0.00    +0.000 HD
BRANCH   6  15
ATOM     10  C   UNL     1       5.883   6.449  17.307  0.00  0.00    +0.000 A 
ATOM     11  C   UNL     1       7.175   7.021  17.368  0.00  0.00    +0.000 A 
ATOM     12  C   UNL     1       8.054   6.724  18.407  0.00  0.00    +0.000 A 
ATOM     13  C   UNL     1       7.648   5.860  19.412  0.00  0.00    +0.000 A 
ATOM     14  C   UNL     1       6.360   5.318  19.389  0.00  0.00    +0.000 A 
ATOM     15  C   UNL     1       5.455   5.598  18.350  0.00  0.00    +0.000 A 
BRANCH  10  17
ATOM     16  C   UNL     1       5.365   5.760  14.920  0.00  0.00    +0.000 C 
ATOM     17  C   UNL     1       5.080   6.728  16.055  0.00  0.00    +0.000 C 
ENDBRANCH  10  17
ENDBRANCH   6  15
ENDBRANCH   5   7
ENDBRANCH   1   5
BRANCH   3  18
ATOM     18  C   UNL     1       0.906   4.659  20.269  0.00  0.00    +0.000 C 
BRANCH  18  19
ATOM     19  S   UNL     1       2.146   5.830  20.802  0.00  0.00    +0.000 S 
BRANCH  19  20
ATOM     20  C   UNL     1       1.537   7.439  20.577  0.00  0.00    +0.000 A 
ATOM     21  N   UNL     1       0.941   8.229  21.417  0.00  0.00    +0.000 NA
ATOM     22  N   UNL     1       0.835   9.514  20.833  0.00  0.00    +0.000 N 
ATOM     23  C   UNL     1       1.305   9.625  19.519  0.00  0.00    +0.000 A 
ATOM     24  S   UNL     1       1.225  10.872  18.405  0.00  0.00    +0.000 S 
ATOM     25  S   UNL     1       1.986   8.094  19.033  0.00  0.00    +0.000 S 
BRANCH  22  26
ATOM     26  C   UNL     1       0.188  10.552  21.583  0.00  0.00    +0.000 A 
ATOM     27  C   UNL     1       0.281  11.907  21.209  0.00  0.00    +0.000 A 
ATOM     28  C   UNL     1      -0.527  12.889  21.791  0.00  0.00    +0.000 A 
ATOM     29  C   UNL     1      -1.412  12.529  22.790  0.00  0.00    +0.000 A 
ATOM     30  F   UNL     1      -2.235  13.451  23.308  0.00  0.00    +0.000 F 
ATOM     31  C   UNL     1      -1.453  11.220  23.255  0.00  0.00    +0.000 A 
ATOM     32  C   UNL     1      -0.639  10.233  22.668  0.00  0.00    +0.000 A 
ENDBRANCH  22  26
ENDBRANCH  19  20
ENDBRANCH  18  19
ENDBRANCH   3  18
TORSDOF 8
ENDMDL
MODEL 4
REMARK VINA RESULT:      -6.9      2.189      2.955
REMARK  Name = 
REMARK  10 active torsions:
REMARK  status: ('A' for Active; 'I' for Inactive)
REMARK    1  A    between atoms: C_1  and  C_2
REMARK    2  A    between atoms: C_2  and  C_3
REMARK    3  A    between atoms: C_8  and  N_9
REMARK    4  A    between atoms: C_10  and  C_12
REMARK    5  A    between atoms: C_12  and  N_13
REMARK    6  A    between atoms: N_13  and  C_14
REMARK    7  A    between atoms: C_15  and  C_17
REMARK    8  A    between atoms: C_17  and  S_18
REMARK    9  A    between atoms: S_18  and  C_19
REMARK   10  A    between atoms: N_21  and  C_22
REMARK                            x       y       z     vdW  Elec       q    Type
REMARK                         _______ _______ _______ _____ _____    ______ ____
ROOT
ATOM      1  N   UNL     1       0.550  10.455  19.689  0.00  0.00    +0.000 N 
ATOM      2  C   UNL     1      -0.108  11.297  18.691  0.00  0.00    +0.000 C 
ATOM      3  C   UNL     1       1.190   9.297  19.231  0.00  0.00    +0.000 C 
ATOM      4  O   UNL     1       1.107   8.943  18.054  0.00  0.00    +0.000 OA
ENDROOT
BRANCH   1   5
ATOM      5  C   UNL     1       0.625  10.982  21.056  0.00  0.00    +0.000 C 
BRANCH   5   7
ATOM      6  N   UNL     1      -1.401  12.262  21.747  0.00  0.00    +0.000 N 
ATOM      7  C   UNL     1      -0.657  11.103  21.901  0.00  0.00    +0.000 C 
ATOM      8  O   UNL     1      -0.912  10.192  22.692  0.00  0.00    +0.000 OA
ATOM      9  H   UNL     1      -0.990  12.998  21.188  0.00  0.00    +0.000 HD
BRANCH   6  15
ATOM     10  C   UNL     1      -3.831  12.645  21.567  0.00  0.00    +0.000 A 
ATOM     11  C   UNL     1      -5.078  12.839  22.207  0.00  0.00    +0.000 A 
ATOM     12  C   UNL     1      -5.174  12.973  23.590  0.00  0.00    +0.000 A 
ATOM     13  C   UNL     1      -4.024  12.897  24.359  0.00  0.00    +0.000 A 
ATOM     14  C   UNL     1      -2.788  12.664  23.747  0.00  0.00    +0.000 A 
ATOM     15  C   UNL     1      -2.663  12.531  22.353  0.00  0.00    +0.000 A 
BRANCH  10  17
ATOM     16  C   UNL     1      -5.232  12.670  19.451  0.00  0.00    +0.000 C 
ATOM     17  C   UNL     1      -3.838  12.667  20.054  0.00  0.00    +0.000 C 
ENDBRANCH  10  17
ENDBRANCH   6  15
ENDBRANCH   5   7
ENDBRANCH   1   5
BRANCH   3  18
ATOM     18  C   UNL     1       2.003   8.525  20.257  0.00  0.00    +0.000 C 
BRANCH  18  19
ATOM     19  S   UNL     1       1.399   6.902  20.692  0.00  0.00    +0.000 S 
BRANCH  19  20
ATOM     20  C   UNL     1       2.245   5.713  19.753  0.00  0.00    +0.000 A 
ATOM     21  N   UNL     1       3.208   5.861  18.895  0.00  0.00    +0.000 NA
ATOM     22  N   UNL     1       3.714   4.583  18.559  0.00  0.00    +0.000 N 
ATOM     23  C   UNL     1       3.051   3.495  19.139  0.00  0.00    +0.000 A 
ATOM     24  S   UNL     1       3.191   1.844  18.897  0.00  0.00    +0.000 S 
ATOM     25  S   UNL     1       1.814   4.096  20.211  0.00  0.00    +0.000 S 
BRANCH  22  26
ATOM     26  C   UNL     1       4.782   4.504  17.604  0.00  0.00    +0.000 A 
ATOM     27  C   UNL     1       4.537   4.291  16.233  0.00  0.00    +0.000 A 
ATOM     28  C   UNL     1       5.543   4.443  15.272  0.00  0.00    +0.000 A 
ATOM     29  C   UNL     1       6.823   4.770  15.682  0.00  0.00    +0.000 A 
ATOM     30  F   UNL     1       7.777   4.981  14.765  0.00  0.00    +0.000 F 
ATOM     31  C   UNL     1       7.121   4.884  17.035  0.00  0.00    +0.000 A 
ATOM     32  C   UNL     1       6.107   4.731  17.999  0.00  0.00    +0.000 A 
ENDBRANCH  22  26
ENDBRANCH  19  20
ENDBRANCH  18  19
ENDBRANCH   3  18
TORSDOF 8
ENDMDL
MODEL 5
REMARK VINA RESULT:      -6.8      2.518      3.734
REMARK  Name = 
REMARK  10 active torsions:
REMARK  status: ('A' for Active; 'I' for Inactive)
REMARK    1  A    between atoms: C_1  and  C_2
REMARK    2  A    between atoms: C_2  and  C_3
REMARK    3  A    between atoms: C_8  and  N_9
REMARK    4  A    between atoms: C_10  and  C_12
REMARK    5  A    between atoms: C_12  and  N_13
REMARK    6  A    between atoms: N_13  and  C_14
REMARK    7  A    between atoms: C_15  and  C_17
REMARK    8  A    between atoms: C_17  and  S_18
REMARK    9  A    between atoms: S_18  and  C_19
REMARK   10  A    between atoms: N_21  and  C_22
REMARK                            x       y       z     vdW  Elec       q    Type
REMARK                         _______ _______ _______ _____ _____    ______ ____
ROOT
ATOM      1  N   UNL     1      -2.362  11.519  18.610  0.00  0.00    +0.000 N 
ATOM      2  C   UNL     1      -3.380  11.633  17.566  0.00  0.00    +0.000 C 
ATOM      3  C   UNL     1      -1.474  10.440  18.526  0.00  0.00    +0.000 C 
ATOM      4  O   UNL     1      -1.613   9.561  17.675  0.00  0.00    +0.000 OA
ENDROOT
BRANCH   1   5
ATOM      5  C   UNL     1      -2.255  12.636  19.556  0.00  0.00    +0.000 C 
BRANCH   5   7
ATOM      6  N   UNL     1      -4.450  13.147  20.623  0.00  0.00    +0.000 N 
ATOM      7  C   UNL     1      -3.160  12.674  20.801  0.00  0.00    +0.000 C 
ATOM      8  O   UNL     1      -2.668  12.331  21.879  0.00  0.00    +0.000 OA
ATOM      9  H   UNL     1      -4.669  13.549  19.720  0.00  0.00    +0.000 HD
BRANCH   6  15
ATOM     10  C   UNL     1      -6.575  12.287  21.536  0.00  0.00    +0.000 A 
ATOM     11  C   UNL     1      -7.536  12.288  22.574  0.00  0.00    +0.000 A 
ATOM     12  C   UNL     1      -7.450  13.174  23.645  0.00  0.00    +0.000 A 
ATOM     13  C   UNL     1      -6.392  14.066  23.704  0.00  0.00    +0.000 A 
ATOM     14  C   UNL     1      -5.410  14.052  22.708  0.00  0.00    +0.000 A 
ATOM     15  C   UNL     1      -5.475  13.171  21.614  0.00  0.00    +0.000 A 
BRANCH  10  17
ATOM     16  C   UNL     1      -7.489  12.106  19.176  0.00  0.00    +0.000 C 
ATOM     17  C   UNL     1      -6.857  11.386  20.355  0.00  0.00    +0.000 C 
ENDBRANCH  10  17
ENDBRANCH   6  15
ENDBRANCH   5   7
ENDBRANCH   1   5
BRANCH   3  18
ATOM     18  C   UNL     1      -0.327  10.432  19.523  0.00  0.00    +0.000 C 
BRANCH  18  19
ATOM     19  S   UNL     1       1.322  10.403  18.837  0.00  0.00    +0.000 S 
BRANCH  19  20
ATOM     20  C   UNL     1       1.871   8.759  18.756  0.00  0.00    +0.000 A 
ATOM     21  N   UNL     1       2.563   8.156  17.837  0.00  0.00    +0.000 NA
ATOM     22  N   UNL     1       2.950   6.885  18.324  0.00  0.00    +0.000 N 
ATOM     23  C   UNL     1       2.465   6.546  19.592  0.00  0.00    +0.000 A 
ATOM     24  S   UNL     1       2.523   5.119  20.466  0.00  0.00    +0.000 S 
ATOM     25  S   UNL     1       1.572   7.901  20.234  0.00  0.00    +0.000 S 
BRANCH  22  26
ATOM     26  C   UNL     1       3.715   6.030  17.461  0.00  0.00    +0.000 A 
ATOM     27  C   UNL     1       4.785   6.522  16.687  0.00  0.00    +0.000 A 
ATOM     28  C   UNL     1       5.674   5.665  16.030  0.00  0.00    +0.000 A 
ATOM     29  C   UNL     1       5.474   4.299  16.106  0.00  0.00    +0.000 A 
ATOM     30  F   UNL     1       6.356   3.469  15.534  0.00  0.00    +0.000 F 
ATOM     31  C   UNL     1       4.368   3.786  16.774  0.00  0.00    +0.000 A 
ATOM     32  C   UNL     1       3.475   4.650  17.435  0.00  0.00    +0.000 A 
ENDBRANCH  22  26
ENDBRANCH  19  20
ENDBRANCH  18  19
ENDBRANCH   3  18
TORSDOF 8
ENDMDL
MODEL 6
REMARK VINA RESULT:      -6.8      5.013     10.873
REMARK  Name = 
REMARK  10 active torsions:
REMARK  status: ('A' for Active; 'I' for Inactive)
REMARK    1  A    between atoms: C_1  and  C_2
REMARK    2  A    between atoms: C_2  and  C_3
REMARK    3  A    between atoms: C_8  and  N_9
REMARK    4  A    between atoms: C_10  and  C_12
REMARK    5  A    between atoms: C_12  and  N_13
REMARK    6  A    between atoms: N_13  and  C_14
REMARK    7  A    between atoms: C_15  and  C_17
REMARK    8  A    between atoms: C_17  and  S_18
REMARK    9  A    between atoms: S_18  and  C_19
REMARK   10  A    between atoms: N_21  and  C_22
REMARK                            x       y       z     vdW  Elec       q    Type
REMARK                         _______ _______ _______ _____ _____    ______ ____
ROOT
ATOM      1  N   UNL     1       0.836  10.888  18.977  0.00  0.00    +0.000 N 
ATOM      2  C   UNL     1       1.920  11.868  18.925  0.00  0.00    +0.000 C 
ATOM      3  C   UNL     1      -0.413  11.284  18.483  0.00  0.00    +0.000 C 
ATOM      4  O   UNL     1      -0.620  12.444  18.125  0.00  0.00    +0.000 OA
ENDROOT
BRANCH   1   5
ATOM      5  C   UNL     1       1.195   9.524  19.385  0.00  0.00    +0.000 C 
BRANCH   5   7
ATOM      6  N   UNL     1       2.533   7.467  18.942  0.00  0.00    +0.000 N 
ATOM      7  C   UNL     1       1.956   8.608  18.408  0.00  0.00    +0.000 C 
ATOM      8  O   UNL     1       2.047   8.971  17.233  0.00  0.00    +0.000 OA
ATOM      9  H   UNL     1       2.522   7.377  19.950  0.00  0.00    +0.000 HD
BRANCH   6  15
ATOM     10  C   UNL     1       2.678   5.125  18.180  0.00  0.00    +0.000 A 
ATOM     11  C   UNL     1       3.314   4.148  17.378  0.00  0.00    +0.000 A 
ATOM     12  C   UNL     1       4.465   4.441  16.651  0.00  0.00    +0.000 A 
ATOM     13  C   UNL     1       4.991   5.722  16.701  0.00  0.00    +0.000 A 
ATOM     14  C   UNL     1       4.352   6.710  17.456  0.00  0.00    +0.000 A 
ATOM     15  C   UNL     1       3.191   6.441  18.202  0.00  0.00    +0.000 A 
BRANCH  10  17
ATOM     16  C   UNL     1       1.938   3.651  20.109  0.00  0.00    +0.000 C 
ATOM     17  C   UNL     1       1.527   4.648  19.039  0.00  0.00    +0.000 C 
ENDBRANCH  10  17
ENDBRANCH   6  15
ENDBRANCH   5   7
ENDBRANCH   1   5
BRANCH   3  18
ATOM     18  C   UNL     1      -1.476  10.202  18.395  0.00  0.00    +0.000 C 
BRANCH  18  19
ATOM     19  S   UNL     1      -2.849  10.525  17.297  0.00  0.00    +0.000 S 
BRANCH  19  20
ATOM     20  C   UNL     1      -4.040  11.460  18.143  0.00  0.00    +0.000 A 
ATOM     21  N   UNL     1      -3.987  12.013  19.316  0.00  0.00    +0.000 NA
ATOM     22  N   UNL     1      -5.115  12.851  19.473  0.00  0.00    +0.000 N 
ATOM     23  C   UNL     1      -6.032  12.842  18.415  0.00  0.00    +0.000 A 
ATOM     24  S   UNL     1      -7.551  13.524  18.246  0.00  0.00    +0.000 S 
ATOM     25  S   UNL     1      -5.411  11.822  17.142  0.00  0.00    +0.000 S 
BRANCH  22  26
ATOM     26  C   UNL     1      -5.272  13.556  20.713  0.00  0.00    +0.000 A 
ATOM     27  C   UNL     1      -5.439  14.955  20.756  0.00  0.00    +0.000 A 
ATOM     28  C   UNL     1      -5.821  15.616  21.927  0.00  0.00    +0.000 A 
ATOM     29  C   UNL     1      -6.000  14.884  23.087  0.00  0.00    +0.000 A 
ATOM     30  F   UNL     1      -6.429  15.499  24.198  0.00  0.00    +0.000 F 
ATOM     31  C   UNL     1      -5.742  13.518  23.104  0.00  0.00    +0.000 A 
ATOM     32  C   UNL     1      -5.357  12.855  21.923  0.00  0.00    +0.000 A 
ENDBRANCH  22  26
ENDBRANCH  19  20
ENDBRANCH  18  19
ENDBRANCH   3  18
TORSDOF 8
ENDMDL
MODEL 7
REMARK VINA RESULT:      -6.8      4.778     10.109
REMARK  Name = 
REMARK  10 active torsions:
REMARK  status: ('A' for Active; 'I' for Inactive)
REMARK    1  A    between atoms: C_1  and  C_2
REMARK    2  A    between atoms: C_2  and  C_3
REMARK    3  A    between atoms: C_8  and  N_9
REMARK    4  A    between atoms: C_10  and  C_12
REMARK    5  A    between atoms: C_12  and  N_13
REMARK    6  A    between atoms: N_13  and  C_14
REMARK    7  A    between atoms: C_15  and  C_17
REMARK    8  A    between atoms: C_17  and  S_18
REMARK    9  A    between atoms: S_18  and  C_19
REMARK   10  A    between atoms: N_21  and  C_22
REMARK                            x       y       z     vdW  Elec       q    Type
REMARK                         _______ _______ _______ _____ _____    ______ ____
ROOT
ATOM      1  N   UNL     1       1.759   2.844  19.275  0.00  0.00    +0.000 N 
ATOM      2  C   UNL     1       2.368   1.516  19.223  0.00  0.00    +0.000 C 
ATOM      3  C   UNL     1       1.463   3.367  20.539  0.00  0.00    +0.000 C 
ATOM      4  O   UNL     1       1.605   2.693  21.560  0.00  0.00    +0.000 OA
ENDROOT
BRANCH   1   5
ATOM      5  C   UNL     1       1.667   3.580  18.008  0.00  0.00    +0.000 C 
BRANCH   5   7
ATOM      6  N   UNL     1       3.920   3.559  16.940  0.00  0.00    +0.000 N 
ATOM      7  C   UNL     1       2.899   4.331  17.468  0.00  0.00    +0.000 C 
ATOM      8  O   UNL     1       2.920   5.559  17.586  0.00  0.00    +0.000 OA
ATOM      9  H   UNL     1       3.843   2.557  17.056  0.00  0.00    +0.000 HD
BRANCH   6  15
ATOM     10  C   UNL     1       6.195   4.508  17.062  0.00  0.00    +0.000 A 
ATOM     11  C   UNL     1       7.371   4.924  16.396  0.00  0.00    +0.000 A 
ATOM     12  C   UNL     1       7.452   4.945  15.006  0.00  0.00    +0.000 A 
ATOM     13  C   UNL     1       6.362   4.534  14.257  0.00  0.00    +0.000 A 
ATOM     14  C   UNL     1       5.205   4.080  14.899  0.00  0.00    +0.000 A 
ATOM     15  C   UNL     1       5.095   4.053  16.300  0.00  0.00    +0.000 A 
BRANCH  10  17
ATOM     16  C   UNL     1       7.227   5.637  19.086  0.00  0.00    +0.000 C 
ATOM     17  C   UNL     1       6.175   4.674  18.566  0.00  0.00    +0.000 C 
ENDBRANCH  10  17
ENDBRANCH   6  15
ENDBRANCH   5   7
ENDBRANCH   1   5
BRANCH   3  18
ATOM     18  C   UNL     1       0.985   4.810  20.577  0.00  0.00    +0.000 C 
BRANCH  18  19
ATOM     19  S   UNL     1       2.238   6.055  20.843  0.00  0.00    +0.000 S 
BRANCH  19  20
ATOM     20  C   UNL     1       1.526   7.624  20.648  0.00  0.00    +0.000 A 
ATOM     21  N   UNL     1       0.952   8.394  21.522  0.00  0.00    +0.000 NA
ATOM     22  N   UNL     1       0.731   9.661  20.933  0.00  0.00    +0.000 N 
ATOM     23  C   UNL     1       1.092   9.777  19.586  0.00  0.00    +0.000 A 
ATOM     24  S   UNL     1       0.858  11.001  18.468  0.00  0.00    +0.000 S 
ATOM     25  S   UNL     1       1.818   8.278  19.067  0.00  0.00    +0.000 S 
BRANCH  22  26
ATOM     26  C   UNL     1       0.086  10.674  21.720  0.00  0.00    +0.000 A 
ATOM     27  C   UNL     1       0.300  12.046  21.482  0.00  0.00    +0.000 A 
ATOM     28  C   UNL     1      -0.493  13.030  22.082  0.00  0.00    +0.000 A 
ATOM     29  C   UNL     1      -1.486  12.649  22.966  0.00  0.00    +0.000 A 
ATOM     30  F   UNL     1      -2.292  13.579  23.496  0.00  0.00    +0.000 F 
ATOM     31  C   UNL     1      -1.653  11.311  23.302  0.00  0.00    +0.000 A 
ATOM     32  C   UNL     1      -0.854  10.323  22.697  0.00  0.00    +0.000 A 
ENDBRANCH  22  26
ENDBRANCH  19  20
ENDBRANCH  18  19
ENDBRANCH   3  18
TORSDOF 8
ENDMDL
MODEL 8
REMARK VINA RESULT:      -6.7      6.003      7.964
REMARK  Name = 
REMARK  10 active torsions:
REMARK  status: ('A' for Active; 'I' for Inactive)
REMARK    1  A    between atoms: C_1  and  C_2
REMARK    2  A    between atoms: C_2  and  C_3
REMARK    3  A    between atoms: C_8  and  N_9
REMARK    4  A    between atoms: C_10  and  C_12
REMARK    5  A    between atoms: C_12  and  N_13
REMARK    6  A    between atoms: N_13  and  C_14
REMARK    7  A    between atoms: C_15  and  C_17
REMARK    8  A    between atoms: C_17  and  S_18
REMARK    9  A    between atoms: S_18  and  C_19
REMARK   10  A    between atoms: N_21  and  C_22
REMARK                            x       y       z     vdW  Elec       q    Type
REMARK                         _______ _______ _______ _____ _____    ______ ____
ROOT
ATOM      1  N   UNL     1       2.246  15.544  20.382  0.00  0.00    +0.000 N 
ATOM      2  C   UNL     1       1.107  15.906  21.224  0.00  0.00    +0.000 C 
ATOM      3  C   UNL     1       3.080  16.582  19.949  0.00  0.00    +0.000 C 
ATOM      4  O   UNL     1       2.804  17.761  20.172  0.00  0.00    +0.000 OA
ENDROOT
BRANCH   1   5
ATOM      5  C   UNL     1       2.511  14.111  20.205  0.00  0.00    +0.000 C 
BRANCH   5   7
ATOM      6  N   UNL     1       0.751  12.457  19.587  0.00  0.00    +0.000 N 
ATOM      7  C   UNL     1       1.739  13.317  19.135  0.00  0.00    +0.000 C 
ATOM      8  O   UNL     1       2.080  13.457  17.958  0.00  0.00    +0.000 OA
ATOM      9  H   UNL     1       0.689  12.317  20.587  0.00  0.00    +0.000 HD
BRANCH   6  15
ATOM     10  C   UNL     1       0.112  10.352  18.470  0.00  0.00    +0.000 A 
ATOM     11  C   UNL     1      -0.832   9.620  17.713  0.00  0.00    +0.000 A 
ATOM     12  C   UNL     1      -1.984  10.220  17.209  0.00  0.00    +0.000 A 
ATOM     13  C   UNL     1      -2.218  11.561  17.469  0.00  0.00    +0.000 A 
ATOM     14  C   UNL     1      -1.315  12.289  18.249  0.00  0.00    +0.000 A 
ATOM     15  C   UNL     1      -0.143  11.709  18.766  0.00  0.00    +0.000 A 
BRANCH  10  17
ATOM     16  C   UNL     1       1.843   8.628  17.783  0.00  0.00    +0.000 C 
ATOM     17  C   UNL     1       1.393   9.631  18.831  0.00  0.00    +0.000 C 
ENDBRANCH  10  17
ENDBRANCH   6  15
ENDBRANCH   5   7
ENDBRANCH   1   5
BRANCH   3  18
ATOM     18  C   UNL     1       4.346  16.168  19.215  0.00  0.00    +0.000 C 
BRANCH  18  19
ATOM     19  S   UNL     1       5.790  17.183  19.488  0.00  0.00    +0.000 S 
BRANCH  19  20
ATOM     20  C   UNL     1       7.199  16.170  19.495  0.00  0.00    +0.000 A 
ATOM     21  N   UNL     1       7.294  14.876  19.490  0.00  0.00    +0.000 NA
ATOM     22  N   UNL     1       8.647  14.522  19.275  0.00  0.00    +0.000 N 
ATOM     23  C   UNL     1       9.549  15.590  19.194  0.00  0.00    +0.000 A 
ATOM     24  S   UNL     1      11.220  15.637  19.122  0.00  0.00    +0.000 S 
ATOM     25  S   UNL     1       8.659  17.087  19.298  0.00  0.00    +0.000 S 
BRANCH  22  26
ATOM     26  C   UNL     1       8.991  13.129  19.249  0.00  0.00    +0.000 A 
ATOM     27  C   UNL     1       9.282  12.414  20.427  0.00  0.00    +0.000 A 
ATOM     28  C   UNL     1       9.389  11.019  20.436  0.00  0.00    +0.000 A 
ATOM     29  C   UNL     1       9.247  10.325  19.248  0.00  0.00    +0.000 A 
ATOM     30  F   UNL     1       9.283   8.986  19.257  0.00  0.00    +0.000 F 
ATOM     31  C   UNL     1       9.063  11.008  18.052  0.00  0.00    +0.000 A 
ATOM     32  C   UNL     1       8.956  12.412  18.046  0.00  0.00    +0.000 A 
ENDBRANCH  22  26
ENDBRANCH  19  20
ENDBRANCH  18  19
ENDBRANCH   3  18
TORSDOF 8
ENDMDL
MODEL 9
REMARK VINA RESULT:      -6.7      4.449     10.241
REMARK  Name = 
REMARK  10 active torsions:
REMARK  status: ('A' for Active; 'I' for Inactive)
REMARK    1  A    between atoms: C_1  and  C_2
REMARK    2  A    between atoms: C_2  and  C_3
REMARK    3  A    between atoms: C_8  and  N_9
REMARK    4  A    between atoms: C_10  and  C_12
REMARK    5  A    between atoms: C_12  and  N_13
REMARK    6  A    between atoms: N_13  and  C_14
REMARK    7  A    between atoms: C_15  and  C_17
REMARK    8  A    between atoms: C_17  and  S_18
REMARK    9  A    between atoms: S_18  and  C_19
REMARK   10  A    between atoms: N_21  and  C_22
REMARK                            x       y       z     vdW  Elec       q    Type
REMARK                         _______ _______ _______ _____ _____    ______ ____
ROOT
ATOM      1  N   UNL     1       2.289   3.424  20.022  0.00  0.00    +0.000 N 
ATOM      2  C   UNL     1       2.888   2.579  21.053  0.00  0.00    +0.000 C 
ATOM      3  C   UNL     1       1.978   4.744  20.372  0.00  0.00    +0.000 C 
ATOM      4  O   UNL     1       2.099   5.144  21.530  0.00  0.00    +0.000 OA
ENDROOT
BRANCH   1   5
ATOM      5  C   UNL     1       2.221   2.867  18.665  0.00  0.00    +0.000 C 
BRANCH   5   7
ATOM      6  N   UNL     1       3.827   4.098  17.208  0.00  0.00    +0.000 N 
ATOM      7  C   UNL     1       3.473   2.881  17.769  0.00  0.00    +0.000 C 
ATOM      8  O   UNL     1       4.047   1.808  17.567  0.00  0.00    +0.000 OA
ATOM      9  H   UNL     1       3.174   4.862  17.324  0.00  0.00    +0.000 HD
BRANCH   6  15
ATOM     10  C   UNL     1       6.170   4.853  17.044  0.00  0.00    +0.000 A 
ATOM     11  C   UNL     1       7.335   5.026  16.262  0.00  0.00    +0.000 A 
ATOM     12  C   UNL     1       7.340   4.761  14.894  0.00  0.00    +0.000 A 
ATOM     13  C   UNL     1       6.180   4.304  14.289  0.00  0.00    +0.000 A 
ATOM     14  C   UNL     1       5.031   4.088  15.055  0.00  0.00    +0.000 A 
ATOM     15  C   UNL     1       4.998   4.352  16.435  0.00  0.00    +0.000 A 
BRANCH  10  17
ATOM     16  C   UNL     1       7.601   5.888  18.866  0.00  0.00    +0.000 C 
ATOM     17  C   UNL     1       6.247   5.317  18.482  0.00  0.00    +0.000 C 
ENDBRANCH  10  17
ENDBRANCH   6  15
ENDBRANCH   5   7
ENDBRANCH   1   5
BRANCH   3  18
ATOM     18  C   UNL     1       1.511   5.649  19.243  0.00  0.00    +0.000 C 
BRANCH  18  19
ATOM     19  S   UNL     1       2.555   7.046  18.861  0.00  0.00    +0.000 S 
BRANCH  19  20
ATOM     20  C   UNL     1       1.670   8.510  19.152  0.00  0.00    +0.000 A 
ATOM     21  N   UNL     1       0.795   8.785  20.071  0.00  0.00    +0.000 NA
ATOM     22  N   UNL     1       0.521  10.172  20.033  0.00  0.00    +0.000 N 
ATOM     23  C   UNL     1       1.162  10.891  19.018  0.00  0.00    +0.000 A 
ATOM     24  S   UNL     1       1.005  12.475  18.500  0.00  0.00    +0.000 S 
ATOM     25  S   UNL     1       2.216   9.811  18.142  0.00  0.00    +0.000 S 
BRANCH  22  26
ATOM     26  C   UNL     1      -0.440  10.702  20.958  0.00  0.00    +0.000 A 
ATOM     27  C   UNL     1      -0.509  10.256  22.293  0.00  0.00    +0.000 A 
ATOM     28  C   UNL     1      -1.277  10.923  23.254  0.00  0.00    +0.000 A 
ATOM     29  C   UNL     1      -2.022  12.025  22.875  0.00  0.00    +0.000 A 
ATOM     30  F   UNL     1      -2.710  12.708  23.800  0.00  0.00    +0.000 F 
ATOM     31  C   UNL     1      -2.059  12.426  21.545  0.00  0.00    +0.000 A 
ATOM     32  C   UNL     1      -1.285  11.754  20.580  0.00  0.00    +0.000 A 
ENDBRANCH  22  26
ENDBRANCH  19  20
ENDBRANCH  18  19
ENDBRANCH   3  18
TORSDOF 8
ENDMDL
