MODEL 1
REMARK VINA RESULT:      -7.8      0.000      0.000
REMARK  Name = 
REMARK  6 active torsions:
REMARK  status: ('A' for Active; 'I' for Inactive)
REMARK    1  A    between atoms: O_1  and  C_2
REMARK    2  A    between atoms: C_8  and  C_9
REMARK    3  A    between atoms: C_9  and  N_10
REMARK    4  A    between atoms: N_10  and  C_11
REMARK    5  A    between atoms: C_11  and  C_12
REMARK    6  A    between atoms: C_15  and  C_16
REMARK                            x       y       z     vdW  Elec       q    Type
REMARK                         _______ _______ _______ _____ _____    ______ ____
ROOT
ATOM      1  N   UNL     1       6.522   4.074  17.144  0.00  0.00    +0.000 NA
ATOM      2  H   UNL     1       7.446   4.376  16.760  0.00  0.00    +0.000 HD
ENDROOT
BRANCH   1   3
ATOM      3  C   UNL     1       5.466   4.342  16.157  0.00  0.00    +0.000 C 
BRANCH   3  10
ATOM      4  C   UNL     1       7.149   5.056  14.370  0.00  0.00    +0.000 A 
ATOM      5  C   UNL     1       7.634   4.982  13.054  0.00  0.00    +0.000 A 
ATOM      6  C   UNL     1       7.001   4.173  12.111  0.00  0.00    +0.000 A 
ATOM      7  C   UNL     1       5.877   3.427  12.472  0.00  0.00    +0.000 A 
ATOM      8 CL   UNL     1       5.076   2.420  11.279  0.00  0.00    +0.000 Cl
ATOM      9  C   UNL     1       5.390   3.484  13.783  0.00  0.00    +0.000 A 
ATOM     10  C   UNL     1       6.020   4.294  14.747  0.00  0.00    +0.000 A 
BRANCH   4  11
ATOM     11  O   UNL     1       7.761   5.862  15.262  0.00  0.00    +0.000 OA
ATOM     12  H   UNL     1       8.424   5.535  15.886  0.00  0.00    +0.000 HD
ENDBRANCH   4  11
ENDBRANCH   3  10
ENDBRANCH   1   3
BRANCH   1  13
ATOM     13  C   UNL     1       6.290   4.824  18.384  0.00  0.00    +0.000 C 
BRANCH  13  14
ATOM     14  C   UNL     1       4.937   4.469  18.946  0.00  0.00    +0.000 A 
ATOM     15  C   UNL     1       4.629   3.144  19.292  0.00  0.00    +0.000 A 
ATOM     16  C   UNL     1       3.366   2.823  19.800  0.00  0.00    +0.000 A 
ATOM     17  C   UNL     1       2.391   3.823  19.968  0.00  0.00    +0.000 A 
ATOM     18  C   UNL     1       2.706   5.146  19.624  0.00  0.00    +0.000 A 
ATOM     19  C   UNL     1       3.968   5.468  19.118  0.00  0.00    +0.000 A 
BRANCH  17  20
ATOM     20  C   UNL     1       1.018   3.505  20.507  0.00  0.00    +0.000 C 
ATOM     21  F   UNL     1       0.300   2.698  19.643  0.00  0.00    +0.000 F 
ATOM     22  F   UNL     1       1.138   2.854  21.721  0.00  0.00    +0.000 F 
ATOM     23  F   UNL     1       0.315   4.682  20.695  0.00  0.00    +0.000 F 
ENDBRANCH  17  20
ENDBRANCH  13  14
ENDBRANCH   1  13
TORSDOF 6
ENDMDL
MODEL 2
REMARK VINA RESULT:      -7.8      0.074      1.059
REMARK  Name = 
REMARK  6 active torsions:
REMARK  status: ('A' for Active; 'I' for Inactive)
REMARK    1  A    between atoms: O_1  and  C_2
REMARK    2  A    between atoms: C_8  and  C_9
REMARK    3  A    between atoms: C_9  and  N_10
REMARK    4  A    between atoms: N_10  and  C_11
REMARK    5  A    between atoms: C_11  and  C_12
REMARK    6  A    between atoms: C_15  and  C_16
REMARK                            x       y       z     vdW  Elec       q    Type
REMARK                         _______ _______ _______ _____ _____    ______ ____
ROOT
ATOM      1  N   UNL     1       6.538   4.069  17.142  0.00  0.00    +0.000 NA
ATOM      2  H   UNL     1       7.464   4.358  16.752  0.00  0.00    +0.000 HD
ENDROOT
BRANCH   1   3
ATOM      3  C   UNL     1       5.482   4.344  16.157  0.00  0.00    +0.000 C 
BRANCH   3  10
ATOM      4  C   UNL     1       7.162   5.047  14.362  0.00  0.00    +0.000 A 
ATOM      5  C   UNL     1       7.643   4.968  13.046  0.00  0.00    +0.000 A 
ATOM      6  C   UNL     1       7.004   4.158  12.107  0.00  0.00    +0.000 A 
ATOM      7  C   UNL     1       5.879   3.417  12.474  0.00  0.00    +0.000 A 
ATOM      8 CL   UNL     1       5.071   2.409  11.287  0.00  0.00    +0.000 Cl
ATOM      9  C   UNL     1       5.395   3.479  13.786  0.00  0.00    +0.000 A 
ATOM     10  C   UNL     1       6.031   4.290  14.745  0.00  0.00    +0.000 A 
BRANCH   4  11
ATOM     11  O   UNL     1       7.779   5.855  15.250  0.00  0.00    +0.000 OA
ATOM     12  H   UNL     1       8.329   6.602  14.975  0.00  0.00    +0.000 HD
ENDBRANCH   4  11
ENDBRANCH   3  10
ENDBRANCH   1   3
BRANCH   1  13
ATOM     13  C   UNL     1       6.321   4.829  18.378  0.00  0.00    +0.000 C 
BRANCH  13  14
ATOM     14  C   UNL     1       4.954   4.515  18.931  0.00  0.00    +0.000 A 
ATOM     15  C   UNL     1       4.023   5.539  19.167  0.00  0.00    +0.000 A 
ATOM     16  C   UNL     1       2.762   5.239  19.692  0.00  0.00    +0.000 A 
ATOM     17  C   UNL     1       2.413   3.910  19.993  0.00  0.00    +0.000 A 
ATOM     18  C   UNL     1       3.346   2.890  19.752  0.00  0.00    +0.000 A 
ATOM     19  C   UNL     1       4.605   3.189  19.225  0.00  0.00    +0.000 A 
BRANCH  17  20
ATOM     20  C   UNL     1       1.064   3.557  20.567  0.00  0.00    +0.000 C 
ATOM     21  F   UNL     1       0.375   2.673  19.757  0.00  0.00    +0.000 F 
ATOM     22  F   UNL     1       1.229   2.977  21.811  0.00  0.00    +0.000 F 
ATOM     23  F   UNL     1       0.308   4.708  20.704  0.00  0.00    +0.000 F 
ENDBRANCH  17  20
ENDBRANCH  13  14
ENDBRANCH   1  13
TORSDOF 6
ENDMDL
MODEL 3
REMARK VINA RESULT:      -7.7      4.704      6.721
REMARK  Name = 
REMARK  6 active torsions:
REMARK  status: ('A' for Active; 'I' for Inactive)
REMARK    1  A    between atoms: O_1  and  C_2
REMARK    2  A    between atoms: C_8  and  C_9
REMARK    3  A    between atoms: C_9  and  N_10
REMARK    4  A    between atoms: N_10  and  C_11
REMARK    5  A    between atoms: C_11  and  C_12
REMARK    6  A    between atoms: C_15  and  C_16
REMARK                            x       y       z     vdW  Elec       q    Type
REMARK                         _______ _______ _______ _____ _____    ______ ____
ROOT
ATOM      1  N   UNL     1       2.148   2.068  17.590  0.00  0.00    +0.000 NA
ATOM      2  H   UNL     1       2.383   2.740  16.824  0.00  0.00    +0.000 HD
ENDROOT
BRANCH   1   3
ATOM      3  C   UNL     1       1.041   2.605  18.395  0.00  0.00    +0.000 C 
BRANCH   3  10
ATOM      4  C   UNL     1       1.362   4.133  20.419  0.00  0.00    +0.000 A 
ATOM      5  C   UNL     1       1.727   5.376  20.962  0.00  0.00    +0.000 A 
ATOM      6  C   UNL     1       2.135   6.418  20.130  0.00  0.00    +0.000 A 
ATOM      7  C   UNL     1       2.185   6.231  18.748  0.00  0.00    +0.000 A 
ATOM      8 CL   UNL     1       2.687   7.549  17.705  0.00  0.00    +0.000 Cl
ATOM      9  C   UNL     1       1.834   4.995  18.195  0.00  0.00    +0.000 A 
ATOM     10  C   UNL     1       1.423   3.931  19.021  0.00  0.00    +0.000 A 
BRANCH   4  11
ATOM     11  O   UNL     1       0.947   3.144  21.238  0.00  0.00    +0.000 OA
ATOM     12  H   UNL     1       1.566   2.558  21.696  0.00  0.00    +0.000 HD
ENDBRANCH   4  11
ENDBRANCH   3  10
ENDBRANCH   1   3
BRANCH   1  13
ATOM     13  C   UNL     1       3.355   1.884  18.405  0.00  0.00    +0.000 C 
BRANCH  13  14
ATOM     14  C   UNL     1       4.297   3.039  18.183  0.00  0.00    +0.000 A 
ATOM     15  C   UNL     1       4.912   3.682  19.269  0.00  0.00    +0.000 A 
ATOM     16  C   UNL     1       5.775   4.762  19.054  0.00  0.00    +0.000 A 
ATOM     17  C   UNL     1       6.035   5.216  17.748  0.00  0.00    +0.000 A 
ATOM     18  C   UNL     1       5.421   4.567  16.666  0.00  0.00    +0.000 A 
ATOM     19  C   UNL     1       4.561   3.488  16.880  0.00  0.00    +0.000 A 
BRANCH  17  20
ATOM     20  C   UNL     1       6.955   6.382  17.485  0.00  0.00    +0.000 C 
ATOM     21  F   UNL     1       7.624   6.249  16.281  0.00  0.00    +0.000 F 
ATOM     22  F   UNL     1       6.219   7.553  17.453  0.00  0.00    +0.000 F 
ATOM     23  F   UNL     1       7.890   6.467  18.500  0.00  0.00    +0.000 F 
ENDBRANCH  17  20
ENDBRANCH  13  14
ENDBRANCH   1  13
TORSDOF 6
ENDMDL
MODEL 4
REMARK VINA RESULT:      -7.5      4.393      6.886
REMARK  Name = 
REMARK  6 active torsions:
REMARK  status: ('A' for Active; 'I' for Inactive)
REMARK    1  A    between atoms: O_1  and  C_2
REMARK    2  A    between atoms: C_8  and  C_9
REMARK    3  A    between atoms: C_9  and  N_10
REMARK    4  A    between atoms: N_10  and  C_11
REMARK    5  A    between atoms: C_11  and  C_12
REMARK    6  A    between atoms: C_15  and  C_16
REMARK                            x       y       z     vdW  Elec       q    Type
REMARK                         _______ _______ _______ _____ _____    ______ ____
ROOT
ATOM      1  N   UNL     1       6.742   4.384  18.485  0.00  0.00    +0.000 NA
ATOM      2  H   UNL     1       6.212   3.623  18.002  0.00  0.00    +0.000 HD
ENDROOT
BRANCH   1   3
ATOM      3  C   UNL     1       5.844   5.112  19.393  0.00  0.00    +0.000 C 
BRANCH   3  10
ATOM      4  C   UNL     1       3.682   5.825  18.228  0.00  0.00    +0.000 A 
ATOM      5  C   UNL     1       2.340   5.581  17.894  0.00  0.00    +0.000 A 
ATOM      6  C   UNL     1       1.699   4.427  18.343  0.00  0.00    +0.000 A 
ATOM      7  C   UNL     1       2.390   3.504  19.129  0.00  0.00    +0.000 A 
ATOM      8 CL   UNL     1       1.575   2.060  19.703  0.00  0.00    +0.000 Cl
ATOM      9  C   UNL     1       3.731   3.731  19.461  0.00  0.00    +0.000 A 
ATOM     10  C   UNL     1       4.394   4.889  19.013  0.00  0.00    +0.000 A 
BRANCH   4  11
ATOM     11  O   UNL     1       4.280   6.959  17.803  0.00  0.00    +0.000 OA
ATOM     12  H   UNL     1       5.212   7.149  17.980  0.00  0.00    +0.000 HD
ENDBRANCH   4  11
ENDBRANCH   3  10
ENDBRANCH   1   3
BRANCH   1  13
ATOM     13  C   UNL     1       7.282   5.273  17.450  0.00  0.00    +0.000 C 
BRANCH  13  14
ATOM     14  C   UNL     1       6.852   4.788  16.089  0.00  0.00    +0.000 A 
ATOM     15  C   UNL     1       5.762   3.913  15.950  0.00  0.00    +0.000 A 
ATOM     16  C   UNL     1       5.380   3.458  14.685  0.00  0.00    +0.000 A 
ATOM     17  C   UNL     1       6.082   3.869  13.537  0.00  0.00    +0.000 A 
ATOM     18  C   UNL     1       7.168   4.747  13.681  0.00  0.00    +0.000 A 
ATOM     19  C   UNL     1       7.549   5.203  14.945  0.00  0.00    +0.000 A 
BRANCH  17  20
ATOM     20  C   UNL     1       5.696   3.389  12.160  0.00  0.00    +0.000 C 
ATOM     21  F   UNL     1       4.381   3.695  11.858  0.00  0.00    +0.000 F 
ATOM     22  F   UNL     1       6.515   3.985  11.218  0.00  0.00    +0.000 F 
ATOM     23  F   UNL     1       5.855   2.017  12.091  0.00  0.00    +0.000 F 
ENDBRANCH  17  20
ENDBRANCH  13  14
ENDBRANCH   1  13
TORSDOF 6
ENDMDL
MODEL 5
REMARK VINA RESULT:      -7.5      4.431      6.888
REMARK  Name = 
REMARK  6 active torsions:
REMARK  status: ('A' for Active; 'I' for Inactive)
REMARK    1  A    between atoms: O_1  and  C_2
REMARK    2  A    between atoms: C_8  and  C_9
REMARK    3  A    between atoms: C_9  and  N_10
REMARK    4  A    between atoms: N_10  and  C_11
REMARK    5  A    between atoms: C_11  and  C_12
REMARK    6  A    between atoms: C_15  and  C_16
REMARK                            x       y       z     vdW  Elec       q    Type
REMARK                         _______ _______ _______ _____ _____    ______ ____
ROOT
ATOM      1  N   UNL     1       6.762   4.225  18.555  0.00  0.00    +0.000 NA
ATOM      2  H   UNL     1       6.479   3.368  18.029  0.00  0.00    +0.000 HD
ENDROOT
BRANCH   1   3
ATOM      3  C   UNL     1       5.639   4.690  19.382  0.00  0.00    +0.000 C 
BRANCH   3  10
ATOM      4  C   UNL     1       4.232   2.555  19.437  0.00  0.00    +0.000 A 
ATOM      5  C   UNL     1       3.047   1.869  19.128  0.00  0.00    +0.000 A 
ATOM      6  C   UNL     1       2.015   2.512  18.444  0.00  0.00    +0.000 A 
ATOM      7  C   UNL     1       2.155   3.847  18.063  0.00  0.00    +0.000 A 
ATOM      8 CL   UNL     1       0.860   4.648  17.192  0.00  0.00    +0.000 Cl
ATOM      9  C   UNL     1       3.328   4.546  18.373  0.00  0.00    +0.000 A 
ATOM     10  C   UNL     1       4.377   3.912  19.066  0.00  0.00    +0.000 A 
BRANCH   4  11
ATOM     11  O   UNL     1       5.229   1.910  20.078  0.00  0.00    +0.000 OA
ATOM     12  H   UNL     1       5.758   1.221  19.651  0.00  0.00    +0.000 HD
ENDBRANCH   4  11
ENDBRANCH   3  10
ENDBRANCH   1   3
BRANCH   1  13
ATOM     13  C   UNL     1       7.151   5.242  17.571  0.00  0.00    +0.000 C 
BRANCH  13  14
ATOM     14  C   UNL     1       6.790   4.770  16.185  0.00  0.00    +0.000 A 
ATOM     15  C   UNL     1       5.758   3.837  15.991  0.00  0.00    +0.000 A 
ATOM     16  C   UNL     1       5.440   3.396  14.702  0.00  0.00    +0.000 A 
ATOM     17  C   UNL     1       6.151   3.878  13.588  0.00  0.00    +0.000 A 
ATOM     18  C   UNL     1       7.178   4.813  13.788  0.00  0.00    +0.000 A 
ATOM     19  C   UNL     1       7.495   5.256  15.075  0.00  0.00    +0.000 A 
BRANCH  17  20
ATOM     20  C   UNL     1       5.835   3.415  12.188  0.00  0.00    +0.000 C 
ATOM     21  F   UNL     1       6.658   4.013  11.250  0.00  0.00    +0.000 F 
ATOM     22  F   UNL     1       5.998   2.044  12.108  0.00  0.00    +0.000 F 
ATOM     23  F   UNL     1       4.523   3.731  11.885  0.00  0.00    +0.000 F 
ENDBRANCH  17  20
ENDBRANCH  13  14
ENDBRANCH   1  13
TORSDOF 6
ENDMDL
MODEL 6
REMARK VINA RESULT:      -7.4      4.695      6.697
REMARK  Name = 
REMARK  6 active torsions:
REMARK  status: ('A' for Active; 'I' for Inactive)
REMARK    1  A    between atoms: O_1  and  C_2
REMARK    2  A    between atoms: C_8  and  C_9
REMARK    3  A    between atoms: C_9  and  N_10
REMARK    4  A    between atoms: N_10  and  C_11
REMARK    5  A    between atoms: C_11  and  C_12
REMARK    6  A    between atoms: C_15  and  C_16
REMARK                            x       y       z     vdW  Elec       q    Type
REMARK                         _______ _______ _______ _____ _____    ______ ____
ROOT
ATOM      1  N   UNL     1       2.361   2.190  18.820  0.00  0.00    +0.000 NA
ATOM      2  H   UNL     1       1.833   1.296  18.944  0.00  0.00    +0.000 HD
ENDROOT
BRANCH   1   3
ATOM      3  C   UNL     1       1.475   3.210  18.241  0.00  0.00    +0.000 C 
BRANCH   3  10
ATOM      4  C   UNL     1       1.552   4.755  20.277  0.00  0.00    +0.000 A 
ATOM      5  C   UNL     1       1.785   6.021  20.838  0.00  0.00    +0.000 A 
ATOM      6  C   UNL     1       2.161   7.094  20.030  0.00  0.00    +0.000 A 
ATOM      7  C   UNL     1       2.310   6.913  18.654  0.00  0.00    +0.000 A 
ATOM      8 CL   UNL     1       2.771   8.269  17.640  0.00  0.00    +0.000 Cl
ATOM      9  C   UNL     1       2.091   5.655  18.084  0.00  0.00    +0.000 A 
ATOM     10  C   UNL     1       1.713   4.561  18.886  0.00  0.00    +0.000 A 
BRANCH   4  11
ATOM     11  O   UNL     1       1.165   3.735  21.072  0.00  0.00    +0.000 OA
ATOM     12  H   UNL     1       0.938   2.862  20.720  0.00  0.00    +0.000 HD
ENDBRANCH   4  11
ENDBRANCH   3  10
ENDBRANCH   1   3
BRANCH   1  13
ATOM     13  C   UNL     1       3.499   1.914  17.936  0.00  0.00    +0.000 C 
BRANCH  13  14
ATOM     14  C   UNL     1       4.380   3.134  17.848  0.00  0.00    +0.000 A 
ATOM     15  C   UNL     1       4.649   3.737  16.609  0.00  0.00    +0.000 A 
ATOM     16  C   UNL     1       5.478   4.861  16.536  0.00  0.00    +0.000 A 
ATOM     17  C   UNL     1       6.052   5.399  17.702  0.00  0.00    +0.000 A 
ATOM     18  C   UNL     1       5.776   4.796  18.939  0.00  0.00    +0.000 A 
ATOM     19  C   UNL     1       4.946   3.674  19.012  0.00  0.00    +0.000 A 
BRANCH  17  20
ATOM     20  C   UNL     1       6.955   6.606  17.654  0.00  0.00    +0.000 C 
ATOM     21  F   UNL     1       7.768   6.685  18.770  0.00  0.00    +0.000 F 
ATOM     22  F   UNL     1       7.757   6.538  16.529  0.00  0.00    +0.000 F 
ATOM     23  F   UNL     1       6.186   7.753  17.589  0.00  0.00    +0.000 F 
ENDBRANCH  17  20
ENDBRANCH  13  14
ENDBRANCH   1  13
TORSDOF 6
ENDMDL
MODEL 7
REMARK VINA RESULT:      -7.4      4.615      6.419
REMARK  Name = 
REMARK  6 active torsions:
REMARK  status: ('A' for Active; 'I' for Inactive)
REMARK    1  A    between atoms: O_1  and  C_2
REMARK    2  A    between atoms: C_8  and  C_9
REMARK    3  A    between atoms: C_9  and  N_10
REMARK    4  A    between atoms: N_10  and  C_11
REMARK    5  A    between atoms: C_11  and  C_12
REMARK    6  A    between atoms: C_15  and  C_16
REMARK                            x       y       z     vdW  Elec       q    Type
REMARK                         _______ _______ _______ _____ _____    ______ ____
ROOT
ATOM      1  N   UNL     1       2.224   5.713  20.747  0.00  0.00    +0.000 NA
ATOM      2  H   UNL     1       3.134   5.323  21.082  0.00  0.00    +0.000 HD
ENDROOT
BRANCH   1   3
ATOM      3  C   UNL     1       1.344   4.616  20.319  0.00  0.00    +0.000 C 
BRANCH   3  10
ATOM      4  C   UNL     1       1.862   3.130  18.303  0.00  0.00    +0.000 A 
ATOM      5  C   UNL     1       2.623   2.115  17.701  0.00  0.00    +0.000 A 
ATOM      6  C   UNL     1       3.642   1.480  18.411  0.00  0.00    +0.000 A 
ATOM      7  C   UNL     1       3.914   1.853  19.728  0.00  0.00    +0.000 A 
ATOM      8 CL   UNL     1       5.189   1.044  20.620  0.00  0.00    +0.000 Cl
ATOM      9  C   UNL     1       3.170   2.870  20.336  0.00  0.00    +0.000 A 
ATOM     10  C   UNL     1       2.139   3.523  19.633  0.00  0.00    +0.000 A 
BRANCH   4  11
ATOM     11  O   UNL     1       0.864   3.716  17.609  0.00  0.00    +0.000 OA
ATOM     12  H   UNL     1      -0.020   3.844  17.982  0.00  0.00    +0.000 HD
ENDBRANCH   4  11
ENDBRANCH   3  10
ENDBRANCH   1   3
BRANCH   1  13
ATOM     13  C   UNL     1       2.513   6.624  19.634  0.00  0.00    +0.000 C 
BRANCH  13  14
ATOM     14  C   UNL     1       3.667   6.088  18.826  0.00  0.00    +0.000 A 
ATOM     15  C   UNL     1       4.815   5.586  19.460  0.00  0.00    +0.000 A 
ATOM     16  C   UNL     1       5.886   5.102  18.702  0.00  0.00    +0.000 A 
ATOM     17  C   UNL     1       5.826   5.115  17.296  0.00  0.00    +0.000 A 
ATOM     18  C   UNL     1       4.674   5.614  16.668  0.00  0.00    +0.000 A 
ATOM     19  C   UNL     1       3.604   6.095  17.426  0.00  0.00    +0.000 A 
BRANCH  17  20
ATOM     20  C   UNL     1       6.968   4.607  16.452  0.00  0.00    +0.000 C 
ATOM     21  F   UNL     1       8.033   4.184  17.227  0.00  0.00    +0.000 F 
ATOM     22  F   UNL     1       6.534   3.543  15.681  0.00  0.00    +0.000 F 
ATOM     23  F   UNL     1       7.406   5.618  15.617  0.00  0.00    +0.000 F 
ENDBRANCH  17  20
ENDBRANCH  13  14
ENDBRANCH   1  13
TORSDOF 6
ENDMDL
MODEL 8
REMARK VINA RESULT:      -7.3      0.964      1.360
REMARK  Name = 
REMARK  6 active torsions:
REMARK  status: ('A' for Active; 'I' for Inactive)
REMARK    1  A    between atoms: O_1  and  C_2
REMARK    2  A    between atoms: C_8  and  C_9
REMARK    3  A    between atoms: C_9  and  N_10
REMARK    4  A    between atoms: N_10  and  C_11
REMARK    5  A    between atoms: C_11  and  C_12
REMARK    6  A    between atoms: C_15  and  C_16
REMARK                            x       y       z     vdW  Elec       q    Type
REMARK                         _______ _______ _______ _____ _____    ______ ____
ROOT
ATOM      1  N   UNL     1       5.244   6.075  16.139  0.00  0.00    +0.000 NA
ATOM      2  H   UNL     1       4.286   6.438  15.934  0.00  0.00    +0.000 HD
ENDROOT
BRANCH   1   3
ATOM      3  C   UNL     1       5.304   4.639  15.829  0.00  0.00    +0.000 C 
BRANCH   3  10
ATOM      4  C   UNL     1       7.128   4.963  14.066  0.00  0.00    +0.000 A 
ATOM      5  C   UNL     1       7.634   4.725  12.778  0.00  0.00    +0.000 A 
ATOM      6  C   UNL     1       6.912   3.955  11.866  0.00  0.00    +0.000 A 
ATOM      7  C   UNL     1       5.678   3.415  12.231  0.00  0.00    +0.000 A 
ATOM      8 CL   UNL     1       4.767   2.458  11.076  0.00  0.00    +0.000 Cl
ATOM      9  C   UNL     1       5.167   3.637  13.514  0.00  0.00    +0.000 A 
ATOM     10  C   UNL     1       5.885   4.408  14.448  0.00  0.00    +0.000 A 
BRANCH   4  11
ATOM     11  O   UNL     1       7.830   5.730  14.927  0.00  0.00    +0.000 OA
ATOM     12  H   UNL     1       7.414   6.422  15.460  0.00  0.00    +0.000 HD
ENDBRANCH   4  11
ENDBRANCH   3  10
ENDBRANCH   1   3
BRANCH   1  13
ATOM     13  C   UNL     1       5.518   6.322  17.559  0.00  0.00    +0.000 C 
BRANCH  13  14
ATOM     14  C   UNL     1       4.528   5.562  18.406  0.00  0.00    +0.000 A 
ATOM     15  C   UNL     1       4.885   4.346  19.010  0.00  0.00    +0.000 A 
ATOM     16  C   UNL     1       3.955   3.643  19.782  0.00  0.00    +0.000 A 
ATOM     17  C   UNL     1       2.653   4.144  19.961  0.00  0.00    +0.000 A 
ATOM     18  C   UNL     1       2.303   5.363  19.359  0.00  0.00    +0.000 A 
ATOM     19  C   UNL     1       3.232   6.066  18.588  0.00  0.00    +0.000 A 
BRANCH  17  20
ATOM     20  C   UNL     1       1.627   3.404  20.783  0.00  0.00    +0.000 C 
ATOM     21  F   UNL     1       1.904   3.475  22.137  0.00  0.00    +0.000 F 
ATOM     22  F   UNL     1       0.376   3.951  20.560  0.00  0.00    +0.000 F 
ATOM     23  F   UNL     1       1.610   2.074  20.407  0.00  0.00    +0.000 F 
ENDBRANCH  17  20
ENDBRANCH  13  14
ENDBRANCH   1  13
TORSDOF 6
ENDMDL
MODEL 9
REMARK VINA RESULT:      -7.3      3.931      5.600
REMARK  Name = 
REMARK  6 active torsions:
REMARK  status: ('A' for Active; 'I' for Inactive)
REMARK    1  A    between atoms: O_1  and  C_2
REMARK    2  A    between atoms: C_8  and  C_9
REMARK    3  A    between atoms: C_9  and  N_10
REMARK    4  A    between atoms: N_10  and  C_11
REMARK    5  A    between atoms: C_11  and  C_12
REMARK    6  A    between atoms: C_15  and  C_16
REMARK                            x       y       z     vdW  Elec       q    Type
REMARK                         _______ _______ _______ _____ _____    ______ ____
ROOT
ATOM      1  N   UNL     1       4.599   6.560  17.562  0.00  0.00    +0.000 NA
ATOM      2  H   UNL     1       5.529   6.980  17.334  0.00  0.00    +0.000 HD
ENDROOT
BRANCH   1   3
ATOM      3  C   UNL     1       4.477   5.248  16.910  0.00  0.00    +0.000 C 
BRANCH   3  10
ATOM      4  C   UNL     1       4.868   3.620  18.843  0.00  0.00    +0.000 A 
ATOM      5  C   UNL     1       4.384   2.654  19.739  0.00  0.00    +0.000 A 
ATOM      6  C   UNL     1       3.050   2.249  19.689  0.00  0.00    +0.000 A 
ATOM      7  C   UNL     1       2.185   2.806  18.746  0.00  0.00    +0.000 A 
ATOM      8 CL   UNL     1       0.512   2.284  18.679  0.00  0.00    +0.000 Cl
ATOM      9  C   UNL     1       2.653   3.777  17.854  0.00  0.00    +0.000 A 
ATOM     10  C   UNL     1       3.995   4.199  17.893  0.00  0.00    +0.000 A 
BRANCH   4  11
ATOM     11  O   UNL     1       6.167   3.983  18.891  0.00  0.00    +0.000 OA
ATOM     12  H   UNL     1       6.444   4.900  19.028  0.00  0.00    +0.000 HD
ENDBRANCH   4  11
ENDBRANCH   3  10
ENDBRANCH   1   3
BRANCH   1  13
ATOM     13  C   UNL     1       3.566   7.486  17.086  0.00  0.00    +0.000 C 
BRANCH  13  14
ATOM     14  C   UNL     1       2.687   7.901  18.239  0.00  0.00    +0.000 A 
ATOM     15  C   UNL     1       2.611   7.118  19.401  0.00  0.00    +0.000 A 
ATOM     16  C   UNL     1       1.783   7.505  20.460  0.00  0.00    +0.000 A 
ATOM     17  C   UNL     1       1.016   8.682  20.371  0.00  0.00    +0.000 A 
ATOM     18  C   UNL     1       1.099   9.463  19.208  0.00  0.00    +0.000 A 
ATOM     19  C   UNL     1       1.928   9.077  18.151  0.00  0.00    +0.000 A 
BRANCH  17  20
ATOM     20  C   UNL     1       0.109   9.120  21.494  0.00  0.00    +0.000 C 
ATOM     21  F   UNL     1      -0.539  10.306  21.197  0.00  0.00    +0.000 F 
ATOM     22  F   UNL     1      -0.842   8.145  21.726  0.00  0.00    +0.000 F 
ATOM     23  F   UNL     1       0.856   9.303  22.643  0.00  0.00    +0.000 F 
ENDBRANCH  17  20
ENDBRANCH  13  14
ENDBRANCH   1  13
TORSDOF 6
ENDMDL
