MODEL 1
REMARK VINA RESULT:      -7.5      0.000      0.000
REMARK  Name = 
REMARK  6 active torsions:
REMARK  status: ('A' for Active; 'I' for Inactive)
REMARK    1  A    between atoms: C_1  and  C_2
REMARK    2  A    between atoms: C_11  and  O_12
REMARK    3  A    between atoms: C_15  and  C_16
REMARK    4  A    between atoms: C_20  and  C_21
REMARK    5  A    between atoms: C_21  and  C_23
REMARK    6  A    between atoms: C_23  and  N_24
REMARK                            x       y       z     vdW  Elec       q    Type
REMARK                         _______ _______ _______ _____ _____    ______ ____
ROOT
ATOM      1  C   UNL     1      -0.402   9.522  17.872  0.00  0.00    +0.000 C 
ATOM      2  C   UNL     1       0.759  10.061  18.741  0.00  0.00    +0.000 C 
ATOM      3  C   UNL     1       2.084   9.986  17.966  0.00  0.00    +0.000 C 
ATOM      4  C   UNL     1       2.502   8.521  17.698  0.00  0.00    +0.000 C 
ATOM      5  C   UNL     1       2.481   7.595  18.947  0.00  0.00    +0.000 C 
ATOM      6  C   UNL     1       1.214   7.783  19.827  0.00  0.00    +0.000 C 
ATOM      7  C   UNL     1       1.376   7.040  21.163  0.00  0.00    +0.000 C 
ATOM      8  C   UNL     1       1.978   5.679  21.020  0.00  0.00    +0.000 C 
ATOM      9  C   UNL     1       2.578   5.220  19.906  0.00  0.00    +0.000 C 
ATOM     10  C   UNL     1       3.135   3.813  19.873  0.00  0.00    +0.000 C 
ATOM     11  C   UNL     1       4.576   3.775  19.360  0.00  0.00    +0.000 C 
ATOM     12  C   UNL     1       4.703   4.485  18.016  0.00  0.00    +0.000 C 
ATOM     13  C   UNL     1       4.197   5.923  18.101  0.00  0.00    +0.000 C 
ATOM     14  C   UNL     1       2.742   6.066  18.635  0.00  0.00    +0.000 C 
ATOM     15  C   UNL     1       1.748   5.524  17.579  0.00  0.00    +0.000 C 
ATOM     16  C   UNL     1       0.995   9.277  20.055  0.00  0.00    +0.000 C 
ATOM     17  C   UNL     1      -0.109   9.733  21.001  0.00  0.00    +0.000 C 
ATOM     18  C   UNL     1      -0.225  11.168  20.579  0.00  0.00    +0.000 C 
ATOM     19  C   UNL     1       0.289  11.371  19.351  0.00  0.00    +0.000 C 
ENDROOT
BRANCH  11  20
ATOM     20  O   UNL     1       5.011   2.423  19.225  0.00  0.00    +0.000 OA
ATOM     21  H   UNL     1       5.196   2.077  20.115  0.00  0.00    +0.000 HD
ENDBRANCH  11  20
BRANCH  19  22
ATOM     22  C   UNL     1       0.309  12.677  18.639  0.00  0.00    +0.000 C 
ATOM     23  O   UNL     1      -0.680  13.047  18.008  0.00  0.00    +0.000 OA
BRANCH  22  24
ATOM     24  C   UNL     1       1.540  13.554  18.747  0.00  0.00    +0.000 C 
BRANCH  24  25
ATOM     25  N   UNL     1       1.769  14.067  20.082  0.00  0.00    +0.000 N 
ATOM     26  C   UNL     1       1.020  15.014  20.725  0.00  0.00    +0.000 A 
ATOM     27  C   UNL     1       1.662  15.219  21.926  0.00  0.00    +0.000 A 
ATOM     28  N   UNL     1       2.782  14.435  22.014  0.00  0.00    +0.000 NA
ATOM     29  C   UNL     1       2.829  13.762  20.886  0.00  0.00    +0.000 A 
ENDBRANCH  24  25
ENDBRANCH  22  24
ENDBRANCH  19  22
TORSDOF 4
ENDMDL
MODEL 2
REMARK VINA RESULT:      -7.4      1.969      2.722
REMARK  Name = 
REMARK  6 active torsions:
REMARK  status: ('A' for Active; 'I' for Inactive)
REMARK    1  A    between atoms: C_1  and  C_2
REMARK    2  A    between atoms: C_11  and  O_12
REMARK    3  A    between atoms: C_15  and  C_16
REMARK    4  A    between atoms: C_20  and  C_21
REMARK    5  A    between atoms: C_21  and  C_23
REMARK    6  A    between atoms: C_23  and  N_24
REMARK                            x       y       z     vdW  Elec       q    Type
REMARK                         _______ _______ _______ _____ _____    ______ ____
ROOT
ATOM      1  C   UNL     1      -0.027   9.012  18.166  0.00  0.00    +0.000 C 
ATOM      2  C   UNL     1       1.314   9.310  18.879  0.00  0.00    +0.000 C 
ATOM      3  C   UNL     1       2.492   9.055  17.927  0.00  0.00    +0.000 C 
ATOM      4  C   UNL     1       2.617   7.556  17.566  0.00  0.00    +0.000 C 
ATOM      5  C   UNL     1       2.604   6.586  18.784  0.00  0.00    +0.000 C 
ATOM      6  C   UNL     1       1.515   6.938  19.835  0.00  0.00    +0.000 C 
ATOM      7  C   UNL     1       1.724   6.117  21.116  0.00  0.00    +0.000 C 
ATOM      8  C   UNL     1       2.063   4.683  20.857  0.00  0.00    +0.000 C 
ATOM      9  C   UNL     1       2.423   4.185  19.661  0.00  0.00    +0.000 C 
ATOM     10  C   UNL     1       2.723   2.709  19.516  0.00  0.00    +0.000 C 
ATOM     11  C   UNL     1       4.057   2.458  18.808  0.00  0.00    +0.000 C 
ATOM     12  C   UNL     1       4.124   3.201  17.477  0.00  0.00    +0.000 C 
ATOM     13  C   UNL     1       3.885   4.697  17.667  0.00  0.00    +0.000 C 
ATOM     14  C   UNL     1       2.558   5.053  18.400  0.00  0.00    +0.000 C 
ATOM     15  C   UNL     1       1.356   4.732  17.480  0.00  0.00    +0.000 C 
ATOM     16  C   UNL     1       1.585   8.436  20.128  0.00  0.00    +0.000 C 
ATOM     17  C   UNL     1       0.709   9.022  21.228  0.00  0.00    +0.000 C 
ATOM     18  C   UNL     1       0.783  10.475  20.862  0.00  0.00    +0.000 C 
ATOM     19  C   UNL     1       1.157  10.648  19.580  0.00  0.00    +0.000 C 
ENDROOT
BRANCH  11  20
ATOM     20  O   UNL     1       4.235   1.062  18.581  0.00  0.00    +0.000 OA
ATOM     21  H   UNL     1       3.411   0.610  18.830  0.00  0.00    +0.000 HD
ENDBRANCH  11  20
BRANCH  19  22
ATOM     22  C   UNL     1       1.304  11.965  18.905  0.00  0.00    +0.000 C 
ATOM     23  O   UNL     1       2.297  12.194  18.216  0.00  0.00    +0.000 OA
BRANCH  22  24
ATOM     24  C   UNL     1       0.196  12.990  19.040  0.00  0.00    +0.000 C 
BRANCH  24  25
ATOM     25  N   UNL     1      -1.125  12.449  18.796  0.00  0.00    +0.000 N 
ATOM     26  C   UNL     1      -1.599  11.978  17.601  0.00  0.00    +0.000 A 
ATOM     27  C   UNL     1      -2.910  11.640  17.848  0.00  0.00    +0.000 A 
ATOM     28  N   UNL     1      -3.241  11.910  19.150  0.00  0.00    +0.000 NA
ATOM     29  C   UNL     1      -2.153  12.407  19.693  0.00  0.00    +0.000 A 
ENDBRANCH  24  25
ENDBRANCH  22  24
ENDBRANCH  19  22
TORSDOF 4
ENDMDL
MODEL 3
REMARK VINA RESULT:      -7.3      1.841      2.288
REMARK  Name = 
REMARK  6 active torsions:
REMARK  status: ('A' for Active; 'I' for Inactive)
REMARK    1  A    between atoms: C_1  and  C_2
REMARK    2  A    between atoms: C_11  and  O_12
REMARK    3  A    between atoms: C_15  and  C_16
REMARK    4  A    between atoms: C_20  and  C_21
REMARK    5  A    between atoms: C_21  and  C_23
REMARK    6  A    between atoms: C_23  and  N_24
REMARK                            x       y       z     vdW  Elec       q    Type
REMARK                         _______ _______ _______ _____ _____    ______ ____
ROOT
ATOM      1  C   UNL     1      -0.130   9.252  18.224  0.00  0.00    +0.000 C 
ATOM      2  C   UNL     1       1.195   9.551  18.965  0.00  0.00    +0.000 C 
ATOM      3  C   UNL     1       2.392   9.341  18.024  0.00  0.00    +0.000 C 
ATOM      4  C   UNL     1       2.546   7.855  17.625  0.00  0.00    +0.000 C 
ATOM      5  C   UNL     1       2.531   6.852  18.815  0.00  0.00    +0.000 C 
ATOM      6  C   UNL     1       1.421   7.157  19.859  0.00  0.00    +0.000 C 
ATOM      7  C   UNL     1       1.624   6.304  21.120  0.00  0.00    +0.000 C 
ATOM      8  C   UNL     1       1.989   4.884  20.827  0.00  0.00    +0.000 C 
ATOM      9  C   UNL     1       2.376   4.425  19.624  0.00  0.00    +0.000 C 
ATOM     10  C   UNL     1       2.702   2.958  19.443  0.00  0.00    +0.000 C 
ATOM     11  C   UNL     1       4.050   2.748  18.749  0.00  0.00    +0.000 C 
ATOM     12  C   UNL     1       4.124   3.528  17.440  0.00  0.00    +0.000 C 
ATOM     13  C   UNL     1       3.859   5.015  17.667  0.00  0.00    +0.000 C 
ATOM     14  C   UNL     1       2.516   5.329  18.389  0.00  0.00    +0.000 C 
ATOM     15  C   UNL     1       1.333   5.015  17.442  0.00  0.00    +0.000 C 
ATOM     16  C   UNL     1       1.462   8.647  20.194  0.00  0.00    +0.000 C 
ATOM     17  C   UNL     1       0.560   9.189  21.296  0.00  0.00    +0.000 C 
ATOM     18  C   UNL     1       0.616  10.653  20.971  0.00  0.00    +0.000 C 
ATOM     19  C   UNL     1       1.006  10.867  19.700  0.00  0.00    +0.000 C 
ENDROOT
BRANCH  11  20
ATOM     20  O   UNL     1       4.254   1.362  18.486  0.00  0.00    +0.000 OA
ATOM     21  H   UNL     1       5.193   1.232  18.272  0.00  0.00    +0.000 HD
ENDBRANCH  11  20
BRANCH  19  22
ATOM     22  C   UNL     1       1.142  12.205  19.063  0.00  0.00    +0.000 C 
ATOM     23  O   UNL     1       2.227  12.784  19.080  0.00  0.00    +0.000 OA
BRANCH  22  24
ATOM     24  C   UNL     1      -0.055  12.809  18.358  0.00  0.00    +0.000 C 
BRANCH  24  25
ATOM     25  N   UNL     1      -1.216  12.955  19.210  0.00  0.00    +0.000 N 
ATOM     26  C   UNL     1      -1.337  13.807  20.274  0.00  0.00    +0.000 A 
ATOM     27  C   UNL     1      -2.578  13.537  20.806  0.00  0.00    +0.000 A 
ATOM     28  N   UNL     1      -3.197  12.538  20.103  0.00  0.00    +0.000 NA
ATOM     29  C   UNL     1      -2.350  12.197  19.157  0.00  0.00    +0.000 A 
ENDBRANCH  24  25
ENDBRANCH  22  24
ENDBRANCH  19  22
TORSDOF 4
ENDMDL
MODEL 4
REMARK VINA RESULT:      -7.2      1.258      1.406
REMARK  Name = 
REMARK  6 active torsions:
REMARK  status: ('A' for Active; 'I' for Inactive)
REMARK    1  A    between atoms: C_1  and  C_2
REMARK    2  A    between atoms: C_11  and  O_12
REMARK    3  A    between atoms: C_15  and  C_16
REMARK    4  A    between atoms: C_20  and  C_21
REMARK    5  A    between atoms: C_21  and  C_23
REMARK    6  A    between atoms: C_23  and  N_24
REMARK                            x       y       z     vdW  Elec       q    Type
REMARK                         _______ _______ _______ _____ _____    ______ ____
ROOT
ATOM      1  C   UNL     1      -0.014   9.270  17.944  0.00  0.00    +0.000 C 
ATOM      2  C   UNL     1       1.279   9.616  18.722  0.00  0.00    +0.000 C 
ATOM      3  C   UNL     1       2.514   9.342  17.851  0.00  0.00    +0.000 C 
ATOM      4  C   UNL     1       2.679   7.832  17.558  0.00  0.00    +0.000 C 
ATOM      5  C   UNL     1       2.607   6.910  18.810  0.00  0.00    +0.000 C 
ATOM      6  C   UNL     1       1.453   7.286  19.782  0.00  0.00    +0.000 C 
ATOM      7  C   UNL     1       1.597   6.519  21.104  0.00  0.00    +0.000 C 
ATOM      8  C   UNL     1       1.969   5.082  20.923  0.00  0.00    +0.000 C 
ATOM      9  C   UNL     1       2.406   4.543  19.770  0.00  0.00    +0.000 C 
ATOM     10  C   UNL     1       2.733   3.067  19.702  0.00  0.00    +0.000 C 
ATOM     11  C   UNL     1       4.109   2.809  19.084  0.00  0.00    +0.000 C 
ATOM     12  C   UNL     1       4.244   3.500  17.730  0.00  0.00    +0.000 C 
ATOM     13  C   UNL     1       3.976   4.999  17.846  0.00  0.00    +0.000 C 
ATOM     14  C   UNL     1       2.604   5.363  18.486  0.00  0.00    +0.000 C 
ATOM     15  C   UNL     1       1.462   4.988  17.510  0.00  0.00    +0.000 C 
ATOM     16  C   UNL     1       1.486   8.795  20.018  0.00  0.00    +0.000 C 
ATOM     17  C   UNL     1       0.540   9.411  21.041  0.00  0.00    +0.000 C 
ATOM     18  C   UNL     1       0.617  10.849  20.623  0.00  0.00    +0.000 C 
ATOM     19  C   UNL     1       1.063  10.978  19.359  0.00  0.00    +0.000 C 
ENDROOT
BRANCH  11  20
ATOM     20  O   UNL     1       4.318   1.408  18.923  0.00  0.00    +0.000 OA
ATOM     21  H   UNL     1       4.627   1.051  19.773  0.00  0.00    +0.000 HD
ENDBRANCH  11  20
BRANCH  19  22
ATOM     22  C   UNL     1       1.233  12.270  18.641  0.00  0.00    +0.000 C 
ATOM     23  O   UNL     1       0.256  12.986  18.427  0.00  0.00    +0.000 OA
BRANCH  22  24
ATOM     24  C   UNL     1       2.625  12.705  18.230  0.00  0.00    +0.000 C 
BRANCH  24  25
ATOM     25  N   UNL     1       2.976  14.032  18.691  0.00  0.00    +0.000 N 
ATOM     26  C   UNL     1       3.260  15.115  17.903  0.00  0.00    +0.000 A 
ATOM     27  C   UNL     1       3.600  16.116  18.785  0.00  0.00    +0.000 A 
ATOM     28  N   UNL     1       3.544  15.662  20.076  0.00  0.00    +0.000 NA
ATOM     29  C   UNL     1       3.179  14.402  19.989  0.00  0.00    +0.000 A 
ENDBRANCH  24  25
ENDBRANCH  22  24
ENDBRANCH  19  22
TORSDOF 4
ENDMDL
MODEL 5
REMARK VINA RESULT:      -7.2      3.526      8.207
REMARK  Name = 
REMARK  6 active torsions:
REMARK  status: ('A' for Active; 'I' for Inactive)
REMARK    1  A    between atoms: C_1  and  C_2
REMARK    2  A    between atoms: C_11  and  O_12
REMARK    3  A    between atoms: C_15  and  C_16
REMARK    4  A    between atoms: C_20  and  C_21
REMARK    5  A    between atoms: C_21  and  C_23
REMARK    6  A    between atoms: C_23  and  N_24
REMARK                            x       y       z     vdW  Elec       q    Type
REMARK                         _______ _______ _______ _____ _____    ______ ____
ROOT
ATOM      1  C   UNL     1       1.501   5.523  18.071  0.00  0.00    +0.000 C 
ATOM      2  C   UNL     1       2.788   6.099  18.709  0.00  0.00    +0.000 C 
ATOM      3  C   UNL     1       2.638   6.176  20.236  0.00  0.00    +0.000 C 
ATOM      4  C   UNL     1       1.557   7.201  20.650  0.00  0.00    +0.000 C 
ATOM      5  C   UNL     1       1.695   8.602  19.987  0.00  0.00    +0.000 C 
ATOM      6  C   UNL     1       2.010   8.531  18.466  0.00  0.00    +0.000 C 
ATOM      7  C   UNL     1       2.389   9.921  17.934  0.00  0.00    +0.000 C 
ATOM      8  C   UNL     1       1.517  11.018  18.456  0.00  0.00    +0.000 C 
ATOM      9  C   UNL     1       0.660  10.893  19.485  0.00  0.00    +0.000 C 
ATOM     10  C   UNL     1      -0.188  12.071  19.912  0.00  0.00    +0.000 C 
ATOM     11  C   UNL     1      -0.109  12.323  21.419  0.00  0.00    +0.000 C 
ATOM     12  C   UNL     1      -0.429  11.057  22.208  0.00  0.00    +0.000 C 
ATOM     13  C   UNL     1       0.489   9.907  21.804  0.00  0.00    +0.000 C 
ATOM     14  C   UNL     1       0.494   9.588  20.280  0.00  0.00    +0.000 C 
ATOM     15  C   UNL     1      -0.865   8.965  19.878  0.00  0.00    +0.000 C 
ATOM     16  C   UNL     1       3.146   7.534  18.249  0.00  0.00    +0.000 C 
ATOM     17  C   UNL     1       3.741   7.373  16.855  0.00  0.00    +0.000 C 
ATOM     18  C   UNL     1       4.450   6.063  17.033  0.00  0.00    +0.000 C 
ATOM     19  C   UNL     1       3.962   5.370  18.079  0.00  0.00    +0.000 C 
ENDROOT
BRANCH  11  20
ATOM     20  O   UNL     1      -1.019  13.356  21.791  0.00  0.00    +0.000 OA
ATOM     21  H   UNL     1      -1.636  13.492  21.052  0.00  0.00    +0.000 HD
ENDBRANCH  11  20
BRANCH  19  22
ATOM     22  C   UNL     1       4.436   4.026  18.508  0.00  0.00    +0.000 C 
ATOM     23  O   UNL     1       5.602   3.873  18.868  0.00  0.00    +0.000 OA
BRANCH  22  24
ATOM     24  C   UNL     1       3.451   2.875  18.540  0.00  0.00    +0.000 C 
BRANCH  24  25
ATOM     25  N   UNL     1       2.800   2.706  19.822  0.00  0.00    +0.000 N 
ATOM     26  C   UNL     1       1.450   2.684  20.048  0.00  0.00    +0.000 A 
ATOM     27  C   UNL     1       1.321   2.573  21.414  0.00  0.00    +0.000 A 
ATOM     28  N   UNL     1       2.552   2.545  22.015  0.00  0.00    +0.000 NA
ATOM     29  C   UNL     1       3.423   2.640  21.035  0.00  0.00    +0.000 A 
ENDBRANCH  24  25
ENDBRANCH  22  24
ENDBRANCH  19  22
TORSDOF 4
ENDMDL
MODEL 6
REMARK VINA RESULT:      -7.2      1.580      1.681
REMARK  Name = 
REMARK  6 active torsions:
REMARK  status: ('A' for Active; 'I' for Inactive)
REMARK    1  A    between atoms: C_1  and  C_2
REMARK    2  A    between atoms: C_11  and  O_12
REMARK    3  A    between atoms: C_15  and  C_16
REMARK    4  A    between atoms: C_20  and  C_21
REMARK    5  A    between atoms: C_21  and  C_23
REMARK    6  A    between atoms: C_23  and  N_24
REMARK                            x       y       z     vdW  Elec       q    Type
REMARK                         _______ _______ _______ _____ _____    ______ ____
ROOT
ATOM      1  C   UNL     1      -0.135   9.368  18.034  0.00  0.00    +0.000 C 
ATOM      2  C   UNL     1       1.155   9.728  18.809  0.00  0.00    +0.000 C 
ATOM      3  C   UNL     1       2.390   9.501  17.925  0.00  0.00    +0.000 C 
ATOM      4  C   UNL     1       2.588   8.001  17.600  0.00  0.00    +0.000 C 
ATOM      5  C   UNL     1       2.546   7.053  18.834  0.00  0.00    +0.000 C 
ATOM      6  C   UNL     1       1.391   7.383  19.820  0.00  0.00    +0.000 C 
ATOM      7  C   UNL     1       1.562   6.592  21.126  0.00  0.00    +0.000 C 
ATOM      8  C   UNL     1       1.966   5.168  20.913  0.00  0.00    +0.000 C 
ATOM      9  C   UNL     1       2.407   4.663  19.747  0.00  0.00    +0.000 C 
ATOM     10  C   UNL     1       2.767   3.196  19.645  0.00  0.00    +0.000 C 
ATOM     11  C   UNL     1       4.144   2.983  19.013  0.00  0.00    +0.000 C 
ATOM     12  C   UNL     1       4.254   3.705  17.673  0.00  0.00    +0.000 C 
ATOM     13  C   UNL     1       3.952   5.194  17.821  0.00  0.00    +0.000 C 
ATOM     14  C   UNL     1       2.576   5.513  18.478  0.00  0.00    +0.000 C 
ATOM     15  C   UNL     1       1.437   5.132  17.502  0.00  0.00    +0.000 C 
ATOM     16  C   UNL     1       1.391   8.887  20.087  0.00  0.00    +0.000 C 
ATOM     17  C   UNL     1       0.438   9.459  21.129  0.00  0.00    +0.000 C 
ATOM     18  C   UNL     1       0.478  10.907  20.740  0.00  0.00    +0.000 C 
ATOM     19  C   UNL     1       0.913  11.072  19.476  0.00  0.00    +0.000 C 
ENDROOT
BRANCH  11  20
ATOM     20  O   UNL     1       4.385   1.591  18.822  0.00  0.00    +0.000 OA
ATOM     21  H   UNL     1       5.298   1.404  19.096  0.00  0.00    +0.000 HD
ENDBRANCH  11  20
BRANCH  19  22
ATOM     22  C   UNL     1       1.048  12.382  18.783  0.00  0.00    +0.000 C 
ATOM     23  O   UNL     1       2.165  12.845  18.559  0.00  0.00    +0.000 OA
BRANCH  22  24
ATOM     24  C   UNL     1      -0.203  13.102  18.321  0.00  0.00    +0.000 C 
BRANCH  24  25
ATOM     25  N   UNL     1      -0.521  14.273  19.110  0.00  0.00    +0.000 N 
ATOM     26  C   UNL     1      -0.128  15.558  18.848  0.00  0.00    +0.000 A 
ATOM     27  C   UNL     1      -0.610  16.299  19.903  0.00  0.00    +0.000 A 
ATOM     28  N   UNL     1      -1.266  15.495  20.797  0.00  0.00    +0.000 NA
ATOM     29  C   UNL     1      -1.186  14.280  20.302  0.00  0.00    +0.000 A 
ENDBRANCH  24  25
ENDBRANCH  22  24
ENDBRANCH  19  22
TORSDOF 4
ENDMDL
MODEL 7
REMARK VINA RESULT:      -7.2      1.104      1.549
REMARK  Name = 
REMARK  6 active torsions:
REMARK  status: ('A' for Active; 'I' for Inactive)
REMARK    1  A    between atoms: C_1  and  C_2
REMARK    2  A    between atoms: C_11  and  O_12
REMARK    3  A    between atoms: C_15  and  C_16
REMARK    4  A    between atoms: C_20  and  C_21
REMARK    5  A    between atoms: C_21  and  C_23
REMARK    6  A    between atoms: C_23  and  N_24
REMARK                            x       y       z     vdW  Elec       q    Type
REMARK                         _______ _______ _______ _____ _____    ______ ____
ROOT
ATOM      1  C   UNL     1      -0.627   9.703  18.041  0.00  0.00    +0.000 C 
ATOM      2  C   UNL     1       0.537  10.269  18.889  0.00  0.00    +0.000 C 
ATOM      3  C   UNL     1       1.837  10.280  18.071  0.00  0.00    +0.000 C 
ATOM      4  C   UNL     1       2.313   8.846  17.744  0.00  0.00    +0.000 C 
ATOM      5  C   UNL     1       2.376   7.882  18.964  0.00  0.00    +0.000 C 
ATOM      6  C   UNL     1       1.131   7.983  19.889  0.00  0.00    +0.000 C 
ATOM      7  C   UNL     1       1.371   7.210  21.194  0.00  0.00    +0.000 C 
ATOM      8  C   UNL     1       2.031   5.884  20.990  0.00  0.00    +0.000 C 
ATOM      9  C   UNL     1       2.615   5.487  19.844  0.00  0.00    +0.000 C 
ATOM     10  C   UNL     1       3.234   4.109  19.749  0.00  0.00    +0.000 C 
ATOM     11  C   UNL     1       4.658   4.154  19.191  0.00  0.00    +0.000 C 
ATOM     12  C   UNL     1       4.708   4.910  17.866  0.00  0.00    +0.000 C 
ATOM     13  C   UNL     1       4.139   6.319  18.012  0.00  0.00    +0.000 C 
ATOM     14  C   UNL     1       2.697   6.378  18.595  0.00  0.00    +0.000 C 
ATOM     15  C   UNL     1       1.695   5.820  17.555  0.00  0.00    +0.000 C 
ATOM     16  C   UNL     1       0.851   9.459  20.170  0.00  0.00    +0.000 C 
ATOM     17  C   UNL     1      -0.241   9.834  21.164  0.00  0.00    +0.000 C 
ATOM     18  C   UNL     1      -0.438  11.273  20.791  0.00  0.00    +0.000 C 
ATOM     19  C   UNL     1       0.026  11.537  19.554  0.00  0.00    +0.000 C 
ENDROOT
BRANCH  11  20
ATOM     20  O   UNL     1       5.150   2.830  19.000  0.00  0.00    +0.000 OA
ATOM     21  H   UNL     1       5.885   2.872  18.365  0.00  0.00    +0.000 HD
ENDBRANCH  11  20
BRANCH  19  22
ATOM     22  C   UNL     1      -0.037  12.863  18.883  0.00  0.00    +0.000 C 
ATOM     23  O   UNL     1      -0.619  12.978  17.806  0.00  0.00    +0.000 OA
BRANCH  22  24
ATOM     24  C   UNL     1       0.578  14.065  19.571  0.00  0.00    +0.000 C 
BRANCH  24  25
ATOM     25  N   UNL     1       1.694  14.637  18.847  0.00  0.00    +0.000 N 
ATOM     26  C   UNL     1       2.812  13.970  18.425  0.00  0.00    +0.000 A 
ATOM     27  C   UNL     1       3.608  14.937  17.855  0.00  0.00    +0.000 A 
ATOM     28  N   UNL     1       3.009  16.166  17.938  0.00  0.00    +0.000 NA
ATOM     29  C   UNL     1       1.865  15.958  18.551  0.00  0.00    +0.000 A 
ENDBRANCH  24  25
ENDBRANCH  22  24
ENDBRANCH  19  22
TORSDOF 4
ENDMDL
MODEL 8
REMARK VINA RESULT:      -7.2      0.812      1.078
REMARK  Name = 
REMARK  6 active torsions:
REMARK  status: ('A' for Active; 'I' for Inactive)
REMARK    1  A    between atoms: C_1  and  C_2
REMARK    2  A    between atoms: C_11  and  O_12
REMARK    3  A    between atoms: C_15  and  C_16
REMARK    4  A    between atoms: C_20  and  C_21
REMARK    5  A    between atoms: C_21  and  C_23
REMARK    6  A    between atoms: C_23  and  N_24
REMARK                            x       y       z     vdW  Elec       q    Type
REMARK                         _______ _______ _______ _____ _____    ______ ____
ROOT
ATOM      1  C   UNL     1      -0.404   9.557  17.857  0.00  0.00    +0.000 C 
ATOM      2  C   UNL     1       0.764  10.097  18.717  0.00  0.00    +0.000 C 
ATOM      3  C   UNL     1       2.085  10.009  17.937  0.00  0.00    +0.000 C 
ATOM      4  C   UNL     1       2.495   8.541  17.677  0.00  0.00    +0.000 C 
ATOM      5  C   UNL     1       2.475   7.623  18.933  0.00  0.00    +0.000 C 
ATOM      6  C   UNL     1       1.212   7.824  19.817  0.00  0.00    +0.000 C 
ATOM      7  C   UNL     1       1.376   7.091  21.157  0.00  0.00    +0.000 C 
ATOM      8  C   UNL     1       1.971   5.725  21.021  0.00  0.00    +0.000 C 
ATOM      9  C   UNL     1       2.564   5.255  19.909  0.00  0.00    +0.000 C 
ATOM     10  C   UNL     1       3.114   3.845  19.883  0.00  0.00    +0.000 C 
ATOM     11  C   UNL     1       4.553   3.796  19.365  0.00  0.00    +0.000 C 
ATOM     12  C   UNL     1       4.677   4.496  18.015  0.00  0.00    +0.000 C 
ATOM     13  C   UNL     1       4.179   5.937  18.092  0.00  0.00    +0.000 C 
ATOM     14  C   UNL     1       2.727   6.092  18.630  0.00  0.00    +0.000 C 
ATOM     15  C   UNL     1       1.726   5.546  17.583  0.00  0.00    +0.000 C 
ATOM     16  C   UNL     1       1.001   9.321  20.035  0.00  0.00    +0.000 C 
ATOM     17  C   UNL     1      -0.097   9.790  20.982  0.00  0.00    +0.000 C 
ATOM     18  C   UNL     1      -0.208  11.222  20.550  0.00  0.00    +0.000 C 
ATOM     19  C   UNL     1       0.302  11.413  19.319  0.00  0.00    +0.000 C 
ENDROOT
BRANCH  11  20
ATOM     20  O   UNL     1       4.981   2.442  19.238  0.00  0.00    +0.000 OA
ATOM     21  H   UNL     1       5.490   2.212  20.034  0.00  0.00    +0.000 HD
ENDBRANCH  11  20
BRANCH  19  22
ATOM     22  C   UNL     1       0.326  12.714  18.597  0.00  0.00    +0.000 C 
ATOM     23  O   UNL     1      -0.682  13.110  18.015  0.00  0.00    +0.000 OA
BRANCH  22  24
ATOM     24  C   UNL     1       1.587  13.554  18.637  0.00  0.00    +0.000 C 
BRANCH  24  25
ATOM     25  N   UNL     1       1.404  14.841  19.275  0.00  0.00    +0.000 N 
ATOM     26  C   UNL     1       1.026  15.055  20.573  0.00  0.00    +0.000 A 
ATOM     27  C   UNL     1       0.921  16.422  20.691  0.00  0.00    +0.000 A 
ATOM     28  N   UNL     1       1.209  17.033  19.500  0.00  0.00    +0.000 NA
ATOM     29  C   UNL     1       1.484  16.058  18.662  0.00  0.00    +0.000 A 
ENDBRANCH  24  25
ENDBRANCH  22  24
ENDBRANCH  19  22
TORSDOF 4
ENDMDL
MODEL 9
REMARK VINA RESULT:      -7.1      1.292      1.413
REMARK  Name = 
REMARK  6 active torsions:
REMARK  status: ('A' for Active; 'I' for Inactive)
REMARK    1  A    between atoms: C_1  and  C_2
REMARK    2  A    between atoms: C_11  and  O_12
REMARK    3  A    between atoms: C_15  and  C_16
REMARK    4  A    between atoms: C_20  and  C_21
REMARK    5  A    between atoms: C_21  and  C_23
REMARK    6  A    between atoms: C_23  and  N_24
REMARK                            x       y       z     vdW  Elec       q    Type
REMARK                         _______ _______ _______ _____ _____    ______ ____
ROOT
ATOM      1  C   UNL     1       0.223   8.951  17.939  0.00  0.00    +0.000 C 
ATOM      2  C   UNL     1       1.511   9.194  18.762  0.00  0.00    +0.000 C 
ATOM      3  C   UNL     1       2.754   8.891  17.911  0.00  0.00    +0.000 C 
ATOM      4  C   UNL     1       2.847   7.389  17.557  0.00  0.00    +0.000 C 
ATOM      5  C   UNL     1       2.694   6.420  18.765  0.00  0.00    +0.000 C 
ATOM      6  C   UNL     1       1.535   6.816  19.723  0.00  0.00    +0.000 C 
ATOM      7  C   UNL     1       1.603   5.986  21.014  0.00  0.00    +0.000 C 
ATOM      8  C   UNL     1       1.904   4.540  20.779  0.00  0.00    +0.000 C 
ATOM      9  C   UNL     1       2.343   4.028  19.615  0.00  0.00    +0.000 C 
ATOM     10  C   UNL     1       2.594   2.541  19.490  0.00  0.00    +0.000 C 
ATOM     11  C   UNL     1       3.971   2.237  18.896  0.00  0.00    +0.000 C 
ATOM     12  C   UNL     1       4.179   2.976  17.578  0.00  0.00    +0.000 C 
ATOM     13  C   UNL     1       3.986   4.481  17.752  0.00  0.00    +0.000 C 
ATOM     14  C   UNL     1       2.618   4.890  18.373  0.00  0.00    +0.000 C 
ATOM     15  C   UNL     1       1.485   4.618  17.354  0.00  0.00    +0.000 C 
ATOM     16  C   UNL     1       1.641   8.309  20.027  0.00  0.00    +0.000 C 
ATOM     17  C   UNL     1       0.700   8.930  21.052  0.00  0.00    +0.000 C 
ATOM     18  C   UNL     1       0.864  10.379  20.699  0.00  0.00    +0.000 C 
ATOM     19  C   UNL     1       1.350  10.537  19.453  0.00  0.00    +0.000 C 
ENDROOT
BRANCH  11  20
ATOM     20  O   UNL     1       4.111   0.834  18.679  0.00  0.00    +0.000 OA
ATOM     21  H   UNL     1       3.415   0.556  18.059  0.00  0.00    +0.000 HD
ENDBRANCH  11  20
BRANCH  19  22
ATOM     22  C   UNL     1       1.607  11.848  18.797  0.00  0.00    +0.000 C 
ATOM     23  O   UNL     1       2.569  11.978  18.041  0.00  0.00    +0.000 OA
BRANCH  22  24
ATOM     24  C   UNL     1       0.642  12.992  19.036  0.00  0.00    +0.000 C 
BRANCH  24  25
ATOM     25  N   UNL     1       0.825  13.645  20.315  0.00  0.00    +0.000 N 
ATOM     26  C   UNL     1      -0.161  14.182  21.098  0.00  0.00    +0.000 A 
ATOM     27  C   UNL     1       0.501  14.745  22.166  0.00  0.00    +0.000 A 
ATOM     28  N   UNL     1       1.855  14.576  22.038  0.00  0.00    +0.000 NA
ATOM     29  C   UNL     1       2.022  13.923  20.909  0.00  0.00    +0.000 A 
ENDBRANCH  24  25
ENDBRANCH  22  24
ENDBRANCH  19  22
TORSDOF 4
ENDMDL
