MODEL 1
REMARK VINA RESULT:      -8.0      0.000      0.000
REMARK  Name = 
REMARK  6 active torsions:
REMARK  status: ('A' for Active; 'I' for Inactive)
REMARK    1  A    between atoms: C_1  and  C_2
REMARK    2  A    between atoms: C_2  and  C_3
REMARK    3  A    between atoms: C_4  and  C_5
REMARK    4  A    between atoms: CA_15  and  C_16
REMARK    5  A    between atoms: C_16  and  OXT_18
REMARK    6  A    between atoms: C_19  and  C_20
REMARK                            x       y       z     vdW  Elec       q    Type
REMARK                         _______ _______ _______ _____ _____    ______ ____
ROOT
ATOM      1  C   UNL     1       1.705   8.298  19.268  0.00  0.00    +0.000 A 
ATOM      2  C   UNL     1       2.081   7.305  20.185  0.00  0.00    +0.000 A 
ATOM      3  N   UNL     1       1.485   7.718  21.374  0.00  0.00    +0.000 N 
ATOM      4  CA  UNL     1       0.761   8.880  21.278  0.00  0.00    +0.000 A 
ATOM      5  C   UNL     1       0.979   9.365  19.996  0.00  0.00    +0.000 A 
ATOM      6  H   UNL     1       1.527   7.182  22.227  0.00  0.00    +0.000 HD
ENDROOT
BRANCH   2   7
ATOM      7  C   UNL     1       2.737   5.938  20.188  0.00  0.00    +0.000 A 
ATOM      8  C   UNL     1       1.873   4.939  20.682  0.00  0.00    +0.000 A 
ATOM      9  C   UNL     1       1.194   4.184  19.730  0.00  0.00    +0.000 A 
ATOM     10  C   UNL     1       1.542   4.283  18.379  0.00  0.00    +0.000 A 
ATOM     11  C   UNL     1       2.938   4.317  18.415  0.00  0.00    +0.000 A 
ATOM     12  N   UNL     1       3.776   3.228  18.272  0.00  0.00    +0.000 N 
ATOM     13  C   UNL     1       4.996   3.508  18.802  0.00  0.00    +0.000 A 
ATOM     14  C   UNL     1       4.925   4.791  19.352  0.00  0.00    +0.000 A 
ATOM     15  C   UNL     1       3.571   5.317  19.200  0.00  0.00    +0.000 A 
ATOM     16  H   UNL     1       3.449   2.306  18.017  0.00  0.00    +0.000 HD
ENDBRANCH   2   7
BRANCH   5  17
ATOM     17  C   UNL     1       0.432  10.657  19.516  0.00  0.00    +0.000 A 
ATOM     18  C   UNL     1       1.198  11.829  19.625  0.00  0.00    +0.000 A 
ATOM     19  C   UNL     1       0.712  13.064  19.169  0.00  0.00    +0.000 A 
ATOM     20  C   UNL     1      -0.564  13.162  18.623  0.00  0.00    +0.000 A 
ATOM     21  C   UNL     1      -1.353  12.020  18.529  0.00  0.00    +0.000 A 
ATOM     22  C   UNL     1      -0.854  10.778  18.955  0.00  0.00    +0.000 A 
ENDBRANCH   5  17
BRANCH   1  24
ATOM     23  C   UNL     1       3.350   8.160  17.381  0.00  0.00    +0.000 C 
ATOM     24  C   UNL     1       1.878   8.286  17.777  0.00  0.00    +0.000 C 
ENDBRANCH   1  24
BRANCH   4  25
ATOM     25  C   UNL     1       0.027   9.427  22.399  0.00  0.00    +0.000 C 
ATOM     26  O   UNL     1       0.197  10.512  22.932  0.00  0.00    +0.000 OA
BRANCH  25  27
ATOM     27  OXT UNL     1      -0.939   8.570  22.825  0.00  0.00    +0.000 OA
ATOM     28  HXT UNL     1      -0.589   7.808  23.319  0.00  0.00    +0.000 HD
ENDBRANCH  25  27
ENDBRANCH   4  25
TORSDOF 5
ENDMDL
MODEL 2
REMARK VINA RESULT:      -7.9      0.671      1.239
REMARK  Name = 
REMARK  6 active torsions:
REMARK  status: ('A' for Active; 'I' for Inactive)
REMARK    1  A    between atoms: C_1  and  C_2
REMARK    2  A    between atoms: C_2  and  C_3
REMARK    3  A    between atoms: C_4  and  C_5
REMARK    4  A    between atoms: CA_15  and  C_16
REMARK    5  A    between atoms: C_16  and  OXT_18
REMARK    6  A    between atoms: C_19  and  C_20
REMARK                            x       y       z     vdW  Elec       q    Type
REMARK                         _______ _______ _______ _____ _____    ______ ____
ROOT
ATOM      1  C   UNL     1       1.826   8.026  19.200  0.00  0.00    +0.000 A 
ATOM      2  C   UNL     1       2.164   6.969  20.059  0.00  0.00    +0.000 A 
ATOM      3  N   UNL     1       1.604   7.346  21.276  0.00  0.00    +0.000 N 
ATOM      4  CA  UNL     1       0.937   8.546  21.253  0.00  0.00    +0.000 A 
ATOM      5  C   UNL     1       1.163   9.087  19.995  0.00  0.00    +0.000 A 
ATOM      6  H   UNL     1       1.629   6.763  22.099  0.00  0.00    +0.000 HD
ENDROOT
BRANCH   2   7
ATOM      7  C   UNL     1       2.752   5.573  19.979  0.00  0.00    +0.000 A 
ATOM      8  C   UNL     1       2.354   4.770  21.068  0.00  0.00    +0.000 A 
ATOM      9  C   UNL     1       1.281   3.913  20.844  0.00  0.00    +0.000 A 
ATOM     10  C   UNL     1       0.798   3.720  19.545  0.00  0.00    +0.000 A 
ATOM     11  C   UNL     1       1.966   3.632  18.785  0.00  0.00    +0.000 A 
ATOM     12  N   UNL     1       2.612   2.463  18.429  0.00  0.00    +0.000 N 
ATOM     13  C   UNL     1       3.907   2.727  18.111  0.00  0.00    +0.000 A 
ATOM     14  C   UNL     1       4.117   4.092  18.323  0.00  0.00    +0.000 A 
ATOM     15  C   UNL     1       2.898   4.701  18.850  0.00  0.00    +0.000 A 
ATOM     16  H   UNL     1       2.229   1.543  18.600  0.00  0.00    +0.000 HD
ENDBRANCH   2   7
BRANCH   5  17
ATOM     17  C   UNL     1       0.676  10.428  19.593  0.00  0.00    +0.000 A 
ATOM     18  C   UNL     1      -0.610  10.575  19.046  0.00  0.00    +0.000 A 
ATOM     19  C   UNL     1      -1.103  11.833  18.666  0.00  0.00    +0.000 A 
ATOM     20  C   UNL     1      -0.311  12.969  18.793  0.00  0.00    +0.000 A 
ATOM     21  C   UNL     1       0.977  12.847  19.306  0.00  0.00    +0.000 A 
ATOM     22  C   UNL     1       1.458  11.593  19.717  0.00  0.00    +0.000 A 
ENDBRANCH   5  17
BRANCH   1  24
ATOM     23  C   UNL     1       3.444   7.943  17.287  0.00  0.00    +0.000 C 
ATOM     24  C   UNL     1       1.981   8.086  17.709  0.00  0.00    +0.000 C 
ENDBRANCH   1  24
BRANCH   4  25
ATOM     25  C   UNL     1       0.245   9.067  22.412  0.00  0.00    +0.000 C 
ATOM     26  O   UNL     1       0.610   9.975  23.141  0.00  0.00    +0.000 OA
BRANCH  25  27
ATOM     27  OXT UNL     1      -0.931   8.416  22.622  0.00  0.00    +0.000 OA
ATOM     28  HXT UNL     1      -1.714   8.977  22.485  0.00  0.00    +0.000 HD
ENDBRANCH  25  27
ENDBRANCH   4  25
TORSDOF 5
ENDMDL
MODEL 3
REMARK VINA RESULT:      -7.8      0.739      1.220
REMARK  Name = 
REMARK  6 active torsions:
REMARK  status: ('A' for Active; 'I' for Inactive)
REMARK    1  A    between atoms: C_1  and  C_2
REMARK    2  A    between atoms: C_2  and  C_3
REMARK    3  A    between atoms: C_4  and  C_5
REMARK    4  A    between atoms: CA_15  and  C_16
REMARK    5  A    between atoms: C_16  and  OXT_18
REMARK    6  A    between atoms: C_19  and  C_20
REMARK                            x       y       z     vdW  Elec       q    Type
REMARK                         _______ _______ _______ _____ _____    ______ ____
ROOT
ATOM      1  C   UNL     1       1.607   8.453  19.432  0.00  0.00    +0.000 A 
ATOM      2  C   UNL     1       2.124   7.395  20.195  0.00  0.00    +0.000 A 
ATOM      3  N   UNL     1       1.607   7.627  21.467  0.00  0.00    +0.000 N 
ATOM      4  CA  UNL     1       0.803   8.735  21.565  0.00  0.00    +0.000 A 
ATOM      5  C   UNL     1       0.879   9.375  20.336  0.00  0.00    +0.000 A 
ATOM      6  H   UNL     1       1.756   7.003  22.245  0.00  0.00    +0.000 HD
ENDROOT
BRANCH   2   7
ATOM      7  C   UNL     1       2.866   6.088  19.986  0.00  0.00    +0.000 A 
ATOM      8  C   UNL     1       2.041   4.970  20.224  0.00  0.00    +0.000 A 
ATOM      9  C   UNL     1       1.466   4.376  19.104  0.00  0.00    +0.000 A 
ATOM     10  C   UNL     1       1.883   4.750  17.822  0.00  0.00    +0.000 A 
ATOM     11  C   UNL     1       3.269   4.849  17.958  0.00  0.00    +0.000 A 
ATOM     12  N   UNL     1       4.182   3.852  17.671  0.00  0.00    +0.000 N 
ATOM     13  C   UNL     1       5.350   4.089  18.325  0.00  0.00    +0.000 A 
ATOM     14  C   UNL     1       5.166   5.238  19.100  0.00  0.00    +0.000 A 
ATOM     15  C   UNL     1       3.792   5.712  18.957  0.00  0.00    +0.000 A 
ATOM     16  H   UNL     1       3.931   2.980  17.225  0.00  0.00    +0.000 HD
ENDBRANCH   2   7
BRANCH   5  17
ATOM     17  C   UNL     1       0.210  10.668  20.055  0.00  0.00    +0.000 A 
ATOM     18  C   UNL     1      -1.044  10.690  19.423  0.00  0.00    +0.000 A 
ATOM     19  C   UNL     1      -1.707  11.897  19.154  0.00  0.00    +0.000 A 
ATOM     20  C   UNL     1      -1.116  13.114  19.481  0.00  0.00    +0.000 A 
ATOM     21  C   UNL     1       0.139  13.121  20.083  0.00  0.00    +0.000 A 
ATOM     22  C   UNL     1       0.786  11.911  20.382  0.00  0.00    +0.000 A 
ENDBRANCH   5  17
BRANCH   1  24
ATOM     23  C   UNL     1       2.345   9.925  17.542  0.00  0.00    +0.000 C 
ATOM     24  C   UNL     1       1.652   8.621  17.942  0.00  0.00    +0.000 C 
ENDBRANCH   1  24
BRANCH   4  25
ATOM     25  C   UNL     1       0.135   9.097  22.796  0.00  0.00    +0.000 C 
ATOM     26  O   UNL     1       0.559   9.825  23.679  0.00  0.00    +0.000 OA
BRANCH  25  27
ATOM     27  OXT UNL     1      -1.096   8.522  22.879  0.00  0.00    +0.000 OA
ATOM     28  HXT UNL     1      -1.066   7.580  23.122  0.00  0.00    +0.000 HD
ENDBRANCH  25  27
ENDBRANCH   4  25
TORSDOF 5
ENDMDL
MODEL 4
REMARK VINA RESULT:      -7.5      1.111      1.217
REMARK  Name = 
REMARK  6 active torsions:
REMARK  status: ('A' for Active; 'I' for Inactive)
REMARK    1  A    between atoms: C_1  and  C_2
REMARK    2  A    between atoms: C_2  and  C_3
REMARK    3  A    between atoms: C_4  and  C_5
REMARK    4  A    between atoms: CA_15  and  C_16
REMARK    5  A    between atoms: C_16  and  OXT_18
REMARK    6  A    between atoms: C_19  and  C_20
REMARK                            x       y       z     vdW  Elec       q    Type
REMARK                         _______ _______ _______ _____ _____    ______ ____
ROOT
ATOM      1  C   UNL     1       1.534   8.568  19.372  0.00  0.00    +0.000 A 
ATOM      2  C   UNL     1       1.987   7.411  20.025  0.00  0.00    +0.000 A 
ATOM      3  N   UNL     1       1.524   7.570  21.328  0.00  0.00    +0.000 N 
ATOM      4  CA  UNL     1       0.813   8.723  21.546  0.00  0.00    +0.000 A 
ATOM      5  C   UNL     1       0.905   9.460  20.374  0.00  0.00    +0.000 A 
ATOM      6  H   UNL     1       1.645   6.872  22.045  0.00  0.00    +0.000 HD
ENDROOT
BRANCH   2   7
ATOM      7  C   UNL     1       2.619   6.076  19.681  0.00  0.00    +0.000 A 
ATOM      8  C   UNL     1       2.674   5.216  20.796  0.00  0.00    +0.000 A 
ATOM      9  C   UNL     1       1.657   4.271  20.900  0.00  0.00    +0.000 A 
ATOM     10  C   UNL     1       0.782   4.066  19.829  0.00  0.00    +0.000 A 
ATOM     11  C   UNL     1       1.627   4.100  18.719  0.00  0.00    +0.000 A 
ATOM     12  N   UNL     1       2.203   3.002  18.108  0.00  0.00    +0.000 N 
ATOM     13  C   UNL     1       3.290   3.388  17.390  0.00  0.00    +0.000 A 
ATOM     14  C   UNL     1       3.455   4.761  17.589  0.00  0.00    +0.000 A 
ATOM     15  C   UNL     1       2.442   5.247  18.524  0.00  0.00    +0.000 A 
ATOM     16  H   UNL     1       1.972   2.048  18.349  0.00  0.00    +0.000 HD
ENDBRANCH   2   7
BRANCH   5  17
ATOM     17  C   UNL     1       0.332  10.820  20.226  0.00  0.00    +0.000 A 
ATOM     18  C   UNL     1       1.058  11.941  20.660  0.00  0.00    +0.000 A 
ATOM     19  C   UNL     1       0.547  13.241  20.523  0.00  0.00    +0.000 A 
ATOM     20  C   UNL     1      -0.716  13.448  19.978  0.00  0.00    +0.000 A 
ATOM     21  C   UNL     1      -1.467  12.352  19.565  0.00  0.00    +0.000 A 
ATOM     22  C   UNL     1      -0.941  11.054  19.671  0.00  0.00    +0.000 A 
ENDBRANCH   5  17
BRANCH   1  24
ATOM     23  C   UNL     1       2.277  10.173  17.595  0.00  0.00    +0.000 C 
ATOM     24  C   UNL     1       1.553   8.861  17.900  0.00  0.00    +0.000 C 
ENDBRANCH   1  24
BRANCH   4  25
ATOM     25  C   UNL     1       0.207   9.027  22.825  0.00  0.00    +0.000 C 
ATOM     26  O   UNL     1       0.690   9.688  23.730  0.00  0.00    +0.000 OA
BRANCH  25  27
ATOM     27  OXT UNL     1      -1.034   8.479  22.928  0.00  0.00    +0.000 OA
ATOM     28  HXT UNL     1      -1.255   7.882  22.193  0.00  0.00    +0.000 HD
ENDBRANCH  25  27
ENDBRANCH   4  25
TORSDOF 5
ENDMDL
MODEL 5
REMARK VINA RESULT:      -6.9      2.870      4.381
REMARK  Name = 
REMARK  6 active torsions:
REMARK  status: ('A' for Active; 'I' for Inactive)
REMARK    1  A    between atoms: C_1  and  C_2
REMARK    2  A    between atoms: C_2  and  C_3
REMARK    3  A    between atoms: C_4  and  C_5
REMARK    4  A    between atoms: CA_15  and  C_16
REMARK    5  A    between atoms: C_16  and  OXT_18
REMARK    6  A    between atoms: C_19  and  C_20
REMARK                            x       y       z     vdW  Elec       q    Type
REMARK                         _______ _______ _______ _____ _____    ______ ____
ROOT
ATOM      1  C   UNL     1       2.880   7.532  18.688  0.00  0.00    +0.000 A 
ATOM      2  C   UNL     1       3.635   6.467  18.175  0.00  0.00    +0.000 A 
ATOM      3  N   UNL     1       3.274   5.392  18.983  0.00  0.00    +0.000 N 
ATOM      4  CA  UNL     1       2.351   5.691  19.954  0.00  0.00    +0.000 A 
ATOM      5  C   UNL     1       2.168   7.066  19.902  0.00  0.00    +0.000 A 
ATOM      6  H   UNL     1       3.613   4.454  18.837  0.00  0.00    +0.000 HD
ENDROOT
BRANCH   2   7
ATOM      7  C   UNL     1       4.509   6.156  16.974  0.00  0.00    +0.000 A 
ATOM      8  C   UNL     1       5.352   7.236  16.643  0.00  0.00    +0.000 A 
ATOM      9  C   UNL     1       6.657   7.171  17.123  0.00  0.00    +0.000 A 
ATOM     10  C   UNL     1       7.133   5.989  17.699  0.00  0.00    +0.000 A 
ATOM     11  C   UNL     1       6.620   4.999  16.858  0.00  0.00    +0.000 A 
ATOM     12  N   UNL     1       7.282   4.426  15.789  0.00  0.00    +0.000 N 
ATOM     13  C   UNL     1       6.386   3.870  14.931  0.00  0.00    +0.000 A 
ATOM     14  C   UNL     1       5.109   4.142  15.431  0.00  0.00    +0.000 A 
ATOM     15  C   UNL     1       5.218   4.955  16.640  0.00  0.00    +0.000 A 
ATOM     16  H   UNL     1       8.257   4.599  15.582  0.00  0.00    +0.000 HD
ENDBRANCH   2   7
BRANCH   5  17
ATOM     17  C   UNL     1       1.300   7.803  20.851  0.00  0.00    +0.000 A 
ATOM     18  C   UNL     1       1.872   8.640  21.823  0.00  0.00    +0.000 A 
ATOM     19  C   UNL     1       1.076   9.360  22.727  0.00  0.00    +0.000 A 
ATOM     20  C   UNL     1      -0.309   9.234  22.703  0.00  0.00    +0.000 A 
ATOM     21  C   UNL     1      -0.899   8.390  21.767  0.00  0.00    +0.000 A 
ATOM     22  C   UNL     1      -0.104   7.696  20.840  0.00  0.00    +0.000 A 
ENDBRANCH   5  17
BRANCH   1  24
ATOM     23  C   UNL     1       1.230   9.172  17.754  0.00  0.00    +0.000 C 
ATOM     24  C   UNL     1       2.695   8.898  18.095  0.00  0.00    +0.000 C 
ENDBRANCH   1  24
BRANCH   4  25
ATOM     25  C   UNL     1       1.818   4.686  20.848  0.00  0.00    +0.000 C 
ATOM     26  O   UNL     1       2.342   4.245  21.857  0.00  0.00    +0.000 OA
BRANCH  25  27
ATOM     27  OXT UNL     1       0.594   4.257  20.438  0.00  0.00    +0.000 OA
ATOM     28  HXT UNL     1       0.080   4.941  19.974  0.00  0.00    +0.000 HD
ENDBRANCH  25  27
ENDBRANCH   4  25
TORSDOF 5
ENDMDL
MODEL 6
REMARK VINA RESULT:      -6.8      6.521      9.644
REMARK  Name = 
REMARK  6 active torsions:
REMARK  status: ('A' for Active; 'I' for Inactive)
REMARK    1  A    between atoms: C_1  and  C_2
REMARK    2  A    between atoms: C_2  and  C_3
REMARK    3  A    between atoms: C_4  and  C_5
REMARK    4  A    between atoms: CA_15  and  C_16
REMARK    5  A    between atoms: C_16  and  OXT_18
REMARK    6  A    between atoms: C_19  and  C_20
REMARK                            x       y       z     vdW  Elec       q    Type
REMARK                         _______ _______ _______ _____ _____    ______ ____
ROOT
ATOM      1  C   UNL     1      -3.789  12.760  20.131  0.00  0.00    +0.000 A 
ATOM      2  C   UNL     1      -4.815  13.167  20.997  0.00  0.00    +0.000 A 
ATOM      3  N   UNL     1      -5.922  12.451  20.550  0.00  0.00    +0.000 N 
ATOM      4  CA  UNL     1      -5.677  11.625  19.482  0.00  0.00    +0.000 A 
ATOM      5  C   UNL     1      -4.372  11.883  19.087  0.00  0.00    +0.000 A 
ATOM      6  H   UNL     1      -6.822  12.486  21.005  0.00  0.00    +0.000 HD
ENDROOT
BRANCH   2   7
ATOM      7  C   UNL     1      -4.983  13.953  22.284  0.00  0.00    +0.000 A 
ATOM      8  C   UNL     1      -5.925  13.357  23.147  0.00  0.00    +0.000 A 
ATOM      9  C   UNL     1      -5.412  12.552  24.160  0.00  0.00    +0.000 A 
ATOM     10  C   UNL     1      -4.037  12.540  24.416  0.00  0.00    +0.000 A 
ATOM     11  C   UNL     1      -3.686  13.887  24.314  0.00  0.00    +0.000 A 
ATOM     12  N   UNL     1      -3.600  14.781  25.365  0.00  0.00    +0.000 N 
ATOM     13  C   UNL     1      -3.693  16.055  24.900  0.00  0.00    +0.000 A 
ATOM     14  C   UNL     1      -3.903  15.979  23.520  0.00  0.00    +0.000 A 
ATOM     15  C   UNL     1      -3.994  14.579  23.113  0.00  0.00    +0.000 A 
ATOM     16  H   UNL     1      -3.681  14.507  26.335  0.00  0.00    +0.000 HD
ENDBRANCH   2   7
BRANCH   5  17
ATOM     17  C   UNL     1      -3.743  11.247  17.905  0.00  0.00    +0.000 A 
ATOM     18  C   UNL     1      -4.231  11.519  16.616  0.00  0.00    +0.000 A 
ATOM     19  C   UNL     1      -3.650  10.940  15.477  0.00  0.00    +0.000 A 
ATOM     20  C   UNL     1      -2.587  10.051  15.602  0.00  0.00    +0.000 A 
ATOM     21  C   UNL     1      -2.102   9.744  16.870  0.00  0.00    +0.000 A 
ATOM     22  C   UNL     1      -2.663  10.349  18.007  0.00  0.00    +0.000 A 
ENDBRANCH   5  17
BRANCH   1  24
ATOM     23  C   UNL     1      -1.673  12.194  21.350  0.00  0.00    +0.000 C 
ATOM     24  C   UNL     1      -2.320  13.038  20.250  0.00  0.00    +0.000 C 
ENDBRANCH   1  24
BRANCH   4  25
ATOM     25  C   UNL     1      -6.696  10.764  18.922  0.00  0.00    +0.000 C 
ATOM     26  O   UNL     1      -6.953   9.617  19.249  0.00  0.00    +0.000 OA
BRANCH  25  27
ATOM     27  OXT UNL     1      -7.393  11.395  17.938  0.00  0.00    +0.000 OA
ATOM     28  HXT UNL     1      -7.106  12.313  17.790  0.00  0.00    +0.000 HD
ENDBRANCH  25  27
ENDBRANCH   4  25
TORSDOF 5
ENDMDL
MODEL 7
REMARK VINA RESULT:      -6.7      1.257      1.764
REMARK  Name = 
REMARK  6 active torsions:
REMARK  status: ('A' for Active; 'I' for Inactive)
REMARK    1  A    between atoms: C_1  and  C_2
REMARK    2  A    between atoms: C_2  and  C_3
REMARK    3  A    between atoms: C_4  and  C_5
REMARK    4  A    between atoms: CA_15  and  C_16
REMARK    5  A    between atoms: C_16  and  OXT_18
REMARK    6  A    between atoms: C_19  and  C_20
REMARK                            x       y       z     vdW  Elec       q    Type
REMARK                         _______ _______ _______ _____ _____    ______ ____
ROOT
ATOM      1  C   UNL     1       1.483   8.723  19.269  0.00  0.00    +0.000 A 
ATOM      2  C   UNL     1       1.834   7.483  19.821  0.00  0.00    +0.000 A 
ATOM      3  N   UNL     1       1.415   7.585  21.145  0.00  0.00    +0.000 N 
ATOM      4  CA  UNL     1       0.824   8.781  21.467  0.00  0.00    +0.000 A 
ATOM      5  C   UNL     1       0.963   9.593  20.351  0.00  0.00    +0.000 A 
ATOM      6  H   UNL     1       1.483   6.825  21.805  0.00  0.00    +0.000 HD
ENDROOT
BRANCH   2   7
ATOM      7  C   UNL     1       2.326   6.123  19.362  0.00  0.00    +0.000 A 
ATOM      8  C   UNL     1       2.563   6.089  17.973  0.00  0.00    +0.000 A 
ATOM      9  C   UNL     1       3.881   6.274  17.565  0.00  0.00    +0.000 A 
ATOM     10  C   UNL     1       4.913   6.263  18.509  0.00  0.00    +0.000 A 
ATOM     11  C   UNL     1       4.557   5.210  19.354  0.00  0.00    +0.000 A 
ATOM     12  N   UNL     1       5.003   3.906  19.249  0.00  0.00    +0.000 N 
ATOM     13  C   UNL     1       4.148   3.070  19.896  0.00  0.00    +0.000 A 
ATOM     14  C   UNL     1       3.093   3.848  20.381  0.00  0.00    +0.000 A 
ATOM     15  C   UNL     1       3.278   5.237  19.969  0.00  0.00    +0.000 A 
ATOM     16  H   UNL     1       5.725   3.616  18.604  0.00  0.00    +0.000 HD
ENDBRANCH   2   7
BRANCH   5  17
ATOM     17  C   UNL     1       0.522  11.008  20.319  0.00  0.00    +0.000 A 
ATOM     18  C   UNL     1       1.397  12.027  20.729  0.00  0.00    +0.000 A 
ATOM     19  C   UNL     1       1.012  13.376  20.700  0.00  0.00    +0.000 A 
ATOM     20  C   UNL     1      -0.268  13.736  20.291  0.00  0.00    +0.000 A 
ATOM     21  C   UNL     1      -1.163  12.743  19.906  0.00  0.00    +0.000 A 
ATOM     22  C   UNL     1      -0.766  11.395  19.904  0.00  0.00    +0.000 A 
ENDBRANCH   5  17
BRANCH   1  24
ATOM     23  C   UNL     1       2.408  10.331  17.583  0.00  0.00    +0.000 C 
ATOM     24  C   UNL     1       1.500   9.125  17.823  0.00  0.00    +0.000 C 
ENDBRANCH   1  24
BRANCH   4  25
ATOM     25  C   UNL     1       0.277   9.042  22.781  0.00  0.00    +0.000 C 
ATOM     26  O   UNL     1       0.811   9.650  23.694  0.00  0.00    +0.000 OA
BRANCH  25  27
ATOM     27  OXT UNL     1      -0.973   8.520  22.910  0.00  0.00    +0.000 OA
ATOM     28  HXT UNL     1      -1.677   9.192  22.883  0.00  0.00    +0.000 HD
ENDBRANCH  25  27
ENDBRANCH   4  25
TORSDOF 5
ENDMDL
MODEL 8
REMARK VINA RESULT:      -6.5      1.448      2.468
REMARK  Name = 
REMARK  6 active torsions:
REMARK  status: ('A' for Active; 'I' for Inactive)
REMARK    1  A    between atoms: C_1  and  C_2
REMARK    2  A    between atoms: C_2  and  C_3
REMARK    3  A    between atoms: C_4  and  C_5
REMARK    4  A    between atoms: CA_15  and  C_16
REMARK    5  A    between atoms: C_16  and  OXT_18
REMARK    6  A    between atoms: C_19  and  C_20
REMARK                            x       y       z     vdW  Elec       q    Type
REMARK                         _______ _______ _______ _____ _____    ______ ____
ROOT
ATOM      1  C   UNL     1       1.297   9.076  19.280  0.00  0.00    +0.000 A 
ATOM      2  C   UNL     1       1.738   7.804  19.676  0.00  0.00    +0.000 A 
ATOM      3  N   UNL     1       1.780   7.891  21.065  0.00  0.00    +0.000 N 
ATOM      4  CA  UNL     1       1.395   9.106  21.574  0.00  0.00    +0.000 A 
ATOM      5  C   UNL     1       1.209   9.941  20.481  0.00  0.00    +0.000 A 
ATOM      6  H   UNL     1       2.015   7.111  21.659  0.00  0.00    +0.000 HD
ENDROOT
BRANCH   2   7
ATOM      7  C   UNL     1       1.974   6.434  19.068  0.00  0.00    +0.000 A 
ATOM      8  C   UNL     1       2.834   6.493  17.953  0.00  0.00    +0.000 A 
ATOM      9  C   UNL     1       4.173   6.194  18.188  0.00  0.00    +0.000 A 
ATOM     10  C   UNL     1       4.563   5.651  19.417  0.00  0.00    +0.000 A 
ATOM     11  C   UNL     1       3.555   4.723  19.686  0.00  0.00    +0.000 A 
ATOM     12  N   UNL     1       3.598   3.375  19.383  0.00  0.00    +0.000 N 
ATOM     13  C   UNL     1       2.337   2.868  19.346  0.00  0.00    +0.000 A 
ATOM     14  C   UNL     1       1.455   3.929  19.573  0.00  0.00    +0.000 A 
ATOM     15  C   UNL     1       2.209   5.173  19.710  0.00  0.00    +0.000 A 
ATOM     16  H   UNL     1       4.423   2.911  19.030  0.00  0.00    +0.000 HD
ENDBRANCH   2   7
BRANCH   5  17
ATOM     17  C   UNL     1       0.864  11.377  20.609  0.00  0.00    +0.000 A 
ATOM     18  C   UNL     1      -0.449  11.760  20.926  0.00  0.00    +0.000 A 
ATOM     19  C   UNL     1      -0.804  13.111  21.065  0.00  0.00    +0.000 A 
ATOM     20  C   UNL     1       0.140  14.112  20.858  0.00  0.00    +0.000 A 
ATOM     21  C   UNL     1       1.441  13.760  20.516  0.00  0.00    +0.000 A 
ATOM     22  C   UNL     1       1.804  12.407  20.410  0.00  0.00    +0.000 A 
ENDBRANCH   5  17
BRANCH   1  24
ATOM     23  C   UNL     1      -0.635   9.816  17.863  0.00  0.00    +0.000 C 
ATOM     24  C   UNL     1       0.864   9.516  17.912  0.00  0.00    +0.000 C 
ENDBRANCH   1  24
BRANCH   4  25
ATOM     25  C   UNL     1       1.323   9.359  22.997  0.00  0.00    +0.000 C 
ATOM     26  O   UNL     1       0.328   9.637  23.646  0.00  0.00    +0.000 OA
BRANCH  25  27
ATOM     27  OXT UNL     1       2.544   9.241  23.584  0.00  0.00    +0.000 OA
ATOM     28  HXT UNL     1       2.942   8.359  23.476  0.00  0.00    +0.000 HD
ENDBRANCH  25  27
ENDBRANCH   4  25
TORSDOF 5
ENDMDL
MODEL 9
REMARK VINA RESULT:      -6.5      4.395      8.753
REMARK  Name = 
REMARK  6 active torsions:
REMARK  status: ('A' for Active; 'I' for Inactive)
REMARK    1  A    between atoms: C_1  and  C_2
REMARK    2  A    between atoms: C_2  and  C_3
REMARK    3  A    between atoms: C_4  and  C_5
REMARK    4  A    between atoms: CA_15  and  C_16
REMARK    5  A    between atoms: C_16  and  OXT_18
REMARK    6  A    between atoms: C_19  and  C_20
REMARK                            x       y       z     vdW  Elec       q    Type
REMARK                         _______ _______ _______ _____ _____    ______ ____
ROOT
ATOM      1  C   UNL     1      -1.163  11.953  20.891  0.00  0.00    +0.000 A 
ATOM      2  C   UNL     1      -2.239  12.820  20.646  0.00  0.00    +0.000 A 
ATOM      3  N   UNL     1      -2.686  12.434  19.385  0.00  0.00    +0.000 N 
ATOM      4  CA  UNL     1      -1.988  11.396  18.822  0.00  0.00    +0.000 A 
ATOM      5  C   UNL     1      -0.923  11.141  19.675  0.00  0.00    +0.000 A 
ATOM      6  H   UNL     1      -3.495  12.840  18.939  0.00  0.00    +0.000 HD
ENDROOT
BRANCH   2   7
ATOM      7  C   UNL     1      -3.084  13.835  21.391  0.00  0.00    +0.000 A 
ATOM      8  C   UNL     1      -4.457  13.522  21.334  0.00  0.00    +0.000 A 
ATOM      9  C   UNL     1      -4.984  12.851  22.434  0.00  0.00    +0.000 A 
ATOM     10  C   UNL     1      -4.225  12.715  23.600  0.00  0.00    +0.000 A 
ATOM     11  C   UNL     1      -3.627  13.970  23.736  0.00  0.00    +0.000 A 
ATOM     12  N   UNL     1      -4.111  15.017  24.496  0.00  0.00    +0.000 N 
ATOM     13  C   UNL     1      -3.580  16.190  24.062  0.00  0.00    +0.000 A 
ATOM     14  C   UNL     1      -2.777  15.899  22.956  0.00  0.00    +0.000 A 
ATOM     15  C   UNL     1      -2.853  14.471  22.656  0.00  0.00    +0.000 A 
ATOM     16  H   UNL     1      -4.902  14.931  25.120  0.00  0.00    +0.000 HD
ENDBRANCH   2   7
BRANCH   5  17
ATOM     17  C   UNL     1       0.124  10.134  19.382  0.00  0.00    +0.000 A 
ATOM     18  C   UNL     1       0.507   9.209  20.367  0.00  0.00    +0.000 A 
ATOM     19  C   UNL     1       1.488   8.237  20.116  0.00  0.00    +0.000 A 
ATOM     20  C   UNL     1       2.132   8.187  18.884  0.00  0.00    +0.000 A 
ATOM     21  C   UNL     1       1.790   9.109  17.900  0.00  0.00    +0.000 A 
ATOM     22  C   UNL     1       0.785  10.060  18.140  0.00  0.00    +0.000 A 
ENDBRANCH   5  17
BRANCH   1  24
ATOM     23  C   UNL     1      -1.165  10.823  23.129  0.00  0.00    +0.000 C 
ATOM     24  C   UNL     1      -0.415  11.756  22.177  0.00  0.00    +0.000 C 
ENDBRANCH   1  24
BRANCH   4  25
ATOM     25  C   UNL     1      -2.350  10.826  17.542  0.00  0.00    +0.000 C 
ATOM     26  O   UNL     1      -2.879   9.746  17.339  0.00  0.00    +0.000 OA
BRANCH  25  27
ATOM     27  OXT UNL     1      -2.032  11.665  16.519  0.00  0.00    +0.000 OA
ATOM     28  HXT UNL     1      -2.805  11.960  16.007  0.00  0.00    +0.000 HD
ENDBRANCH  25  27
ENDBRANCH   4  25
TORSDOF 5
ENDMDL
