MODEL 1
REMARK VINA RESULT:      -8.0      0.000      0.000
REMARK  Name = 
REMARK  4 active torsions:
REMARK  status: ('A' for Active; 'I' for Inactive)
REMARK    1  A    between atoms: C_1  and  N_2
REMARK    2  A    between atoms: C_6  and  C_7
REMARK    3  A    between atoms: C_7  and  C_9
REMARK    4  A    between atoms: C_14  and  O_15
REMARK                            x       y       z     vdW  Elec       q    Type
REMARK                         _______ _______ _______ _____ _____    ______ ____
ROOT
ATOM      1  C   UNL     1       5.237   3.326  11.986  0.00  0.00    +0.000 C 
ATOM      2  N   UNL     1       6.001   3.873  13.086  0.00  0.00    +0.000 N 
ATOM      3  C   UNL     1       5.900   3.255  14.396  0.00  0.00    +0.000 C 
ATOM      4  C   UNL     1       6.265   4.225  15.470  0.00  0.00    +0.000 A 
ATOM      5  C   UNL     1       5.810   4.120  16.784  0.00  0.00    +0.000 A 
ATOM      6  C   UNL     1       6.209   5.076  17.721  0.00  0.00    +0.000 A 
ATOM      7  C   UNL     1       7.095   6.063  17.305  0.00  0.00    +0.000 A 
ATOM      8  N   UNL     1       7.591   6.159  16.046  0.00  0.00    +0.000 NA
ATOM      9  C   UNL     1       7.153   5.243  15.160  0.00  0.00    +0.000 A 
ATOM     10  N   UNL     1       7.624   5.345  13.863  0.00  0.00    +0.000 N 
ATOM     11  C   UNL     1       7.062   4.708  12.797  0.00  0.00    +0.000 C 
ATOM     12  O   UNL     1       7.452   4.942  11.655  0.00  0.00    +0.000 OA
ATOM     13  H   UNL     1       8.301   6.066  13.670  0.00  0.00    +0.000 HD
ENDROOT
BRANCH   6  14
ATOM     14  C   UNL     1       5.740   4.970  19.118  0.00  0.00    +0.000 C 
ATOM     15  O   UNL     1       6.498   5.307  20.025  0.00  0.00    +0.000 OA
BRANCH  14  16
ATOM     16  C   UNL     1       4.363   4.520  19.456  0.00  0.00    +0.000 A 
ATOM     17  C   UNL     1       3.349   5.489  19.449  0.00  0.00    +0.000 A 
ATOM     18  C   UNL     1       2.033   5.125  19.733  0.00  0.00    +0.000 A 
ATOM     19  C   UNL     1       1.724   3.797  20.038  0.00  0.00    +0.000 A 
ATOM     20  C   UNL     1       2.738   2.833  20.082  0.00  0.00    +0.000 A 
ATOM     21  C   UNL     1       4.054   3.202  19.798  0.00  0.00    +0.000 A 
BRANCH  21  22
ATOM     22  O   UNL     1       5.040   2.257  19.874  0.00  0.00    +0.000 OA
ATOM     23  H   UNL     1       4.654   1.370  19.775  0.00  0.00    +0.000 HD
ENDBRANCH  21  22
ENDBRANCH  14  16
ENDBRANCH   6  14
TORSDOF 3
ENDMDL
MODEL 2
REMARK VINA RESULT:      -7.9      2.116      2.422
REMARK  Name = 
REMARK  4 active torsions:
REMARK  status: ('A' for Active; 'I' for Inactive)
REMARK    1  A    between atoms: C_1  and  N_2
REMARK    2  A    between atoms: C_6  and  C_7
REMARK    3  A    between atoms: C_7  and  C_9
REMARK    4  A    between atoms: C_14  and  O_15
REMARK                            x       y       z     vdW  Elec       q    Type
REMARK                         _______ _______ _______ _____ _____    ______ ____
ROOT
ATOM      1  C   UNL     1       6.382   3.576  12.651  0.00  0.00    +0.000 C 
ATOM      2  N   UNL     1       6.390   4.273  13.919  0.00  0.00    +0.000 N 
ATOM      3  C   UNL     1       5.522   3.810  14.988  0.00  0.00    +0.000 C 
ATOM      4  C   UNL     1       5.239   4.911  15.955  0.00  0.00    +0.000 A 
ATOM      5  C   UNL     1       4.102   4.947  16.763  0.00  0.00    +0.000 A 
ATOM      6  C   UNL     1       3.926   6.019  17.641  0.00  0.00    +0.000 A 
ATOM      7  C   UNL     1       4.930   6.978  17.707  0.00  0.00    +0.000 A 
ATOM      8  N   UNL     1       6.066   6.940  16.969  0.00  0.00    +0.000 NA
ATOM      9  C   UNL     1       6.185   5.913  16.104  0.00  0.00    +0.000 A 
ATOM     10  N   UNL     1       7.323   5.876  15.320  0.00  0.00    +0.000 N 
ATOM     11  C   UNL     1       7.456   5.101  14.206  0.00  0.00    +0.000 C 
ATOM     12  O   UNL     1       8.446   5.212  13.485  0.00  0.00    +0.000 OA
ATOM     13  H   UNL     1       8.018   6.591  15.474  0.00  0.00    +0.000 HD
ENDROOT
BRANCH   6  14
ATOM     14  C   UNL     1       2.730   6.062  18.509  0.00  0.00    +0.000 C 
ATOM     15  O   UNL     1       2.088   7.108  18.581  0.00  0.00    +0.000 OA
BRANCH  14  16
ATOM     16  C   UNL     1       2.250   4.867  19.252  0.00  0.00    +0.000 A 
ATOM     17  C   UNL     1       2.711   4.697  20.565  0.00  0.00    +0.000 A 
ATOM     18  C   UNL     1       2.277   3.609  21.323  0.00  0.00    +0.000 A 
ATOM     19  C   UNL     1       1.393   2.680  20.770  0.00  0.00    +0.000 A 
ATOM     20  C   UNL     1       0.958   2.825  19.448  0.00  0.00    +0.000 A 
ATOM     21  C   UNL     1       1.395   3.914  18.693  0.00  0.00    +0.000 A 
BRANCH  21  22
ATOM     22  O   UNL     1       0.987   4.028  17.393  0.00  0.00    +0.000 OA
ATOM     23  H   UNL     1       0.175   3.512  17.256  0.00  0.00    +0.000 HD
ENDBRANCH  21  22
ENDBRANCH  14  16
ENDBRANCH   6  14
TORSDOF 3
ENDMDL
MODEL 3
REMARK VINA RESULT:      -7.9      2.785      6.603
REMARK  Name = 
REMARK  4 active torsions:
REMARK  status: ('A' for Active; 'I' for Inactive)
REMARK    1  A    between atoms: C_1  and  N_2
REMARK    2  A    between atoms: C_6  and  C_7
REMARK    3  A    between atoms: C_7  and  C_9
REMARK    4  A    between atoms: C_14  and  O_15
REMARK                            x       y       z     vdW  Elec       q    Type
REMARK                         _______ _______ _______ _____ _____    ______ ____
ROOT
ATOM      1  C   UNL     1       0.705   2.310  18.831  0.00  0.00    +0.000 C 
ATOM      2  N   UNL     1       1.966   3.002  18.989  0.00  0.00    +0.000 N 
ATOM      3  C   UNL     1       2.330   4.038  18.038  0.00  0.00    +0.000 C 
ATOM      4  C   UNL     1       3.810   4.227  18.001  0.00  0.00    +0.000 A 
ATOM      5  C   UNL     1       4.488   4.746  16.897  0.00  0.00    +0.000 A 
ATOM      6  C   UNL     1       5.876   4.889  16.958  0.00  0.00    +0.000 A 
ATOM      7  C   UNL     1       6.513   4.555  18.148  0.00  0.00    +0.000 A 
ATOM      8  N   UNL     1       5.871   4.095  19.250  0.00  0.00    +0.000 NA
ATOM      9  C   UNL     1       4.538   3.933  19.143  0.00  0.00    +0.000 A 
ATOM     10  N   UNL     1       3.872   3.434  20.247  0.00  0.00    +0.000 N 
ATOM     11  C   UNL     1       2.605   2.931  20.210  0.00  0.00    +0.000 C 
ATOM     12  O   UNL     1       2.121   2.388  21.201  0.00  0.00    +0.000 OA
ATOM     13  H   UNL     1       4.414   3.267  21.081  0.00  0.00    +0.000 HD
ENDROOT
BRANCH   6  14
ATOM     14  C   UNL     1       6.604   5.447  15.798  0.00  0.00    +0.000 C 
ATOM     15  O   UNL     1       7.319   6.431  15.966  0.00  0.00    +0.000 OA
BRANCH  14  16
ATOM     16  C   UNL     1       6.538   4.821  14.451  0.00  0.00    +0.000 A 
ATOM     17  C   UNL     1       5.453   3.973  14.186  0.00  0.00    +0.000 A 
ATOM     18  C   UNL     1       5.322   3.376  12.932  0.00  0.00    +0.000 A 
ATOM     19  C   UNL     1       6.279   3.610  11.943  0.00  0.00    +0.000 A 
ATOM     20  C   UNL     1       7.383   4.426  12.213  0.00  0.00    +0.000 A 
ATOM     21  C   UNL     1       7.511   5.021  13.469  0.00  0.00    +0.000 A 
BRANCH  21  22
ATOM     22  O   UNL     1       8.610   5.792  13.731  0.00  0.00    +0.000 OA
ATOM     23  H   UNL     1       9.418   5.263  13.617  0.00  0.00    +0.000 HD
ENDBRANCH  21  22
ENDBRANCH  14  16
ENDBRANCH   6  14
TORSDOF 3
ENDMDL
MODEL 4
REMARK VINA RESULT:      -7.9      1.993      2.369
REMARK  Name = 
REMARK  4 active torsions:
REMARK  status: ('A' for Active; 'I' for Inactive)
REMARK    1  A    between atoms: C_1  and  N_2
REMARK    2  A    between atoms: C_6  and  C_7
REMARK    3  A    between atoms: C_7  and  C_9
REMARK    4  A    between atoms: C_14  and  O_15
REMARK                            x       y       z     vdW  Elec       q    Type
REMARK                         _______ _______ _______ _____ _____    ______ ____
ROOT
ATOM      1  C   UNL     1       6.300   3.452  12.734  0.00  0.00    +0.000 C 
ATOM      2  N   UNL     1       6.332   4.213  13.964  0.00  0.00    +0.000 N 
ATOM      3  C   UNL     1       5.532   3.771  15.092  0.00  0.00    +0.000 C 
ATOM      4  C   UNL     1       5.243   4.908  16.015  0.00  0.00    +0.000 A 
ATOM      5  C   UNL     1       4.141   4.939  16.871  0.00  0.00    +0.000 A 
ATOM      6  C   UNL     1       3.957   6.046  17.701  0.00  0.00    +0.000 A 
ATOM      7  C   UNL     1       4.921   7.047  17.674  0.00  0.00    +0.000 A 
ATOM      8  N   UNL     1       6.025   7.018  16.888  0.00  0.00    +0.000 NA
ATOM      9  C   UNL     1       6.150   5.954  16.072  0.00  0.00    +0.000 A 
ATOM     10  N   UNL     1       7.255   5.924  15.240  0.00  0.00    +0.000 N 
ATOM     11  C   UNL     1       7.373   5.098  14.161  0.00  0.00    +0.000 C 
ATOM     12  O   UNL     1       8.325   5.212  13.391  0.00  0.00    +0.000 OA
ATOM     13  H   UNL     1       7.923   6.673  15.327  0.00  0.00    +0.000 HD
ENDROOT
BRANCH   6  14
ATOM     14  C   UNL     1       2.798   6.085  18.618  0.00  0.00    +0.000 C 
ATOM     15  O   UNL     1       2.340   7.177  18.948  0.00  0.00    +0.000 OA
BRANCH  14  16
ATOM     16  C   UNL     1       2.137   4.847  19.109  0.00  0.00    +0.000 A 
ATOM     17  C   UNL     1       1.597   3.980  18.147  0.00  0.00    +0.000 A 
ATOM     18  C   UNL     1       0.987   2.790  18.542  0.00  0.00    +0.000 A 
ATOM     19  C   UNL     1       0.901   2.464  19.898  0.00  0.00    +0.000 A 
ATOM     20  C   UNL     1       1.406   3.342  20.863  0.00  0.00    +0.000 A 
ATOM     21  C   UNL     1       2.015   4.532  20.464  0.00  0.00    +0.000 A 
BRANCH  21  22
ATOM     22  O   UNL     1       2.478   5.395  21.419  0.00  0.00    +0.000 OA
ATOM     23  H   UNL     1       3.175   4.965  21.942  0.00  0.00    +0.000 HD
ENDBRANCH  21  22
ENDBRANCH  14  16
ENDBRANCH   6  14
TORSDOF 3
ENDMDL
MODEL 5
REMARK VINA RESULT:      -7.8      2.808      6.766
REMARK  Name = 
REMARK  4 active torsions:
REMARK  status: ('A' for Active; 'I' for Inactive)
REMARK    1  A    between atoms: C_1  and  N_2
REMARK    2  A    between atoms: C_6  and  C_7
REMARK    3  A    between atoms: C_7  and  C_9
REMARK    4  A    between atoms: C_14  and  O_15
REMARK                            x       y       z     vdW  Elec       q    Type
REMARK                         _______ _______ _______ _____ _____    ______ ____
ROOT
ATOM      1  C   UNL     1       3.179   2.231  21.235  0.00  0.00    +0.000 C 
ATOM      2  N   UNL     1       3.162   3.157  20.123  0.00  0.00    +0.000 N 
ATOM      3  C   UNL     1       3.905   2.832  18.918  0.00  0.00    +0.000 C 
ATOM      4  C   UNL     1       4.238   4.069  18.152  0.00  0.00    +0.000 A 
ATOM      5  C   UNL     1       5.318   4.157  17.272  0.00  0.00    +0.000 A 
ATOM      6  C   UNL     1       5.548   5.357  16.597  0.00  0.00    +0.000 A 
ATOM      7  C   UNL     1       4.647   6.398  16.794  0.00  0.00    +0.000 A 
ATOM      8  N   UNL     1       3.564   6.321  17.606  0.00  0.00    +0.000 NA
ATOM      9  C   UNL     1       3.395   5.162  18.271  0.00  0.00    +0.000 A 
ATOM     10  N   UNL     1       2.312   5.078  19.128  0.00  0.00    +0.000 N 
ATOM     11  C   UNL     1       2.171   4.118  20.085  0.00  0.00    +0.000 C 
ATOM     12  O   UNL     1       1.248   4.176  20.895  0.00  0.00    +0.000 OA
ATOM     13  H   UNL     1       1.688   5.868  19.167  0.00  0.00    +0.000 HD
ENDROOT
BRANCH   6  14
ATOM     14  C   UNL     1       6.683   5.459  15.656  0.00  0.00    +0.000 C 
ATOM     15  O   UNL     1       7.705   6.036  16.020  0.00  0.00    +0.000 OA
BRANCH  14  16
ATOM     16  C   UNL     1       6.646   4.839  14.304  0.00  0.00    +0.000 A 
ATOM     17  C   UNL     1       5.599   3.945  14.035  0.00  0.00    +0.000 A 
ATOM     18  C   UNL     1       5.495   3.350  12.777  0.00  0.00    +0.000 A 
ATOM     19  C   UNL     1       6.440   3.633  11.789  0.00  0.00    +0.000 A 
ATOM     20  C   UNL     1       7.506   4.497  12.064  0.00  0.00    +0.000 A 
ATOM     21  C   UNL     1       7.608   5.089  13.323  0.00  0.00    +0.000 A 
BRANCH  21  22
ATOM     22  O   UNL     1       8.671   5.908  13.589  0.00  0.00    +0.000 OA
ATOM     23  H   UNL     1       9.418   5.380  13.917  0.00  0.00    +0.000 HD
ENDBRANCH  21  22
ENDBRANCH  14  16
ENDBRANCH   6  14
TORSDOF 3
ENDMDL
MODEL 6
REMARK VINA RESULT:      -7.8      3.933      6.987
REMARK  Name = 
REMARK  4 active torsions:
REMARK  status: ('A' for Active; 'I' for Inactive)
REMARK    1  A    between atoms: C_1  and  N_2
REMARK    2  A    between atoms: C_6  and  C_7
REMARK    3  A    between atoms: C_7  and  C_9
REMARK    4  A    between atoms: C_14  and  O_15
REMARK                            x       y       z     vdW  Elec       q    Type
REMARK                         _______ _______ _______ _____ _____    ______ ____
ROOT
ATOM      1  C   UNL     1       0.424  10.328  18.448  0.00  0.00    +0.000 C 
ATOM      2  N   UNL     1       1.127   9.210  19.040  0.00  0.00    +0.000 N 
ATOM      3  C   UNL     1       2.229   8.602  18.315  0.00  0.00    +0.000 C 
ATOM      4  C   UNL     1       2.447   7.196  18.765  0.00  0.00    +0.000 A 
ATOM      5  C   UNL     1       3.048   6.221  17.968  0.00  0.00    +0.000 A 
ATOM      6  C   UNL     1       3.212   4.932  18.479  0.00  0.00    +0.000 A 
ATOM      7  C   UNL     1       2.815   4.696  19.791  0.00  0.00    +0.000 A 
ATOM      8  N   UNL     1       2.274   5.638  20.601  0.00  0.00    +0.000 NA
ATOM      9  C   UNL     1       2.094   6.860  20.063  0.00  0.00    +0.000 A 
ATOM     10  N   UNL     1       1.513   7.825  20.866  0.00  0.00    +0.000 N 
ATOM     11  C   UNL     1       0.990   8.993  20.396  0.00  0.00    +0.000 C 
ATOM     12  O   UNL     1       0.376   9.747  21.148  0.00  0.00    +0.000 OA
ATOM     13  H   UNL     1       1.304   7.572  21.819  0.00  0.00    +0.000 HD
ENDROOT
BRANCH   6  14
ATOM     14  C   UNL     1       3.856   3.893  17.647  0.00  0.00    +0.000 C 
ATOM     15  O   UNL     1       3.377   2.762  17.636  0.00  0.00    +0.000 OA
BRANCH  14  16
ATOM     16  C   UNL     1       5.031   4.189  16.785  0.00  0.00    +0.000 A 
ATOM     17  C   UNL     1       4.806   4.297  15.404  0.00  0.00    +0.000 A 
ATOM     18  C   UNL     1       5.862   4.599  14.545  0.00  0.00    +0.000 A 
ATOM     19  C   UNL     1       7.149   4.781  15.056  0.00  0.00    +0.000 A 
ATOM     20  C   UNL     1       7.386   4.639  16.428  0.00  0.00    +0.000 A 
ATOM     21  C   UNL     1       6.327   4.336  17.284  0.00  0.00    +0.000 A 
BRANCH  21  22
ATOM     22  O   UNL     1       6.577   4.171  18.619  0.00  0.00    +0.000 OA
ATOM     23  H   UNL     1       6.382   4.995  19.095  0.00  0.00    +0.000 HD
ENDBRANCH  21  22
ENDBRANCH  14  16
ENDBRANCH   6  14
TORSDOF 3
ENDMDL
MODEL 7
REMARK VINA RESULT:      -7.6      2.105      2.504
REMARK  Name = 
REMARK  4 active torsions:
REMARK  status: ('A' for Active; 'I' for Inactive)
REMARK    1  A    between atoms: C_1  and  N_2
REMARK    2  A    between atoms: C_6  and  C_7
REMARK    3  A    between atoms: C_7  and  C_9
REMARK    4  A    between atoms: C_14  and  O_15
REMARK                            x       y       z     vdW  Elec       q    Type
REMARK                         _______ _______ _______ _____ _____    ______ ____
ROOT
ATOM      1  C   UNL     1       7.018   3.915  12.326  0.00  0.00    +0.000 C 
ATOM      2  N   UNL     1       6.706   4.346  13.671  0.00  0.00    +0.000 N 
ATOM      3  C   UNL     1       5.860   3.511  14.505  0.00  0.00    +0.000 C 
ATOM      4  C   UNL     1       5.203   4.321  15.573  0.00  0.00    +0.000 A 
ATOM      5  C   UNL     1       4.005   3.952  16.187  0.00  0.00    +0.000 A 
ATOM      6  C   UNL     1       3.469   4.775  17.180  0.00  0.00    +0.000 A 
ATOM      7  C   UNL     1       4.192   5.903  17.550  0.00  0.00    +0.000 A 
ATOM      8  N   UNL     1       5.381   6.257  17.004  0.00  0.00    +0.000 NA
ATOM      9  C   UNL     1       5.849   5.462  16.022  0.00  0.00    +0.000 A 
ATOM     10  N   UNL     1       7.045   5.826  15.431  0.00  0.00    +0.000 N 
ATOM     11  C   UNL     1       7.494   5.322  14.247  0.00  0.00    +0.000 C 
ATOM     12  O   UNL     1       8.504   5.783  13.716  0.00  0.00    +0.000 OA
ATOM     13  H   UNL     1       7.519   6.635  15.801  0.00  0.00    +0.000 HD
ENDROOT
BRANCH   6  14
ATOM     14  C   UNL     1       2.206   4.389  17.843  0.00  0.00    +0.000 C 
ATOM     15  O   UNL     1       1.158   4.450  17.204  0.00  0.00    +0.000 OA
BRANCH  14  16
ATOM     16  C   UNL     1       2.172   3.879  19.240  0.00  0.00    +0.000 A 
ATOM     17  C   UNL     1       2.332   4.816  20.272  0.00  0.00    +0.000 A 
ATOM     18  C   UNL     1       2.284   4.404  21.603  0.00  0.00    +0.000 A 
ATOM     19  C   UNL     1       2.091   3.056  21.912  0.00  0.00    +0.000 A 
ATOM     20  C   UNL     1       1.967   2.112  20.887  0.00  0.00    +0.000 A 
ATOM     21  C   UNL     1       2.016   2.528  19.555  0.00  0.00    +0.000 A 
BRANCH  21  22
ATOM     22  O   UNL     1       1.924   1.592  18.562  0.00  0.00    +0.000 OA
ATOM     23  H   UNL     1       2.715   1.027  18.568  0.00  0.00    +0.000 HD
ENDBRANCH  21  22
ENDBRANCH  14  16
ENDBRANCH   6  14
TORSDOF 3
ENDMDL
MODEL 8
REMARK VINA RESULT:      -7.6      5.095      7.462
REMARK  Name = 
REMARK  4 active torsions:
REMARK  status: ('A' for Active; 'I' for Inactive)
REMARK    1  A    between atoms: C_1  and  N_2
REMARK    2  A    between atoms: C_6  and  C_7
REMARK    3  A    between atoms: C_7  and  C_9
REMARK    4  A    between atoms: C_14  and  O_15
REMARK                            x       y       z     vdW  Elec       q    Type
REMARK                         _______ _______ _______ _____ _____    ______ ____
ROOT
ATOM      1  C   UNL     1      -0.022  12.139  21.459  0.00  0.00    +0.000 C 
ATOM      2  N   UNL     1       0.309  11.244  20.372  0.00  0.00    +0.000 N 
ATOM      3  C   UNL     1       0.311   9.811  20.609  0.00  0.00    +0.000 C 
ATOM      4  C   UNL     1       1.181   9.111  19.619  0.00  0.00    +0.000 A 
ATOM      5  C   UNL     1       1.776   7.873  19.862  0.00  0.00    +0.000 A 
ATOM      6  C   UNL     1       2.572   7.295  18.871  0.00  0.00    +0.000 A 
ATOM      7  C   UNL     1       2.688   7.963  17.657  0.00  0.00    +0.000 A 
ATOM      8  N   UNL     1       2.081   9.143  17.379  0.00  0.00    +0.000 NA
ATOM      9  C   UNL     1       1.353   9.691  18.371  0.00  0.00    +0.000 A 
ATOM     10  N   UNL     1       0.752  10.910  18.115  0.00  0.00    +0.000 N 
ATOM     11  C   UNL     1       0.250  11.730  19.081  0.00  0.00    +0.000 C 
ATOM     12  O   UNL     1      -0.155  12.855  18.795  0.00  0.00    +0.000 OA
ATOM     13  H   UNL     1       0.855  11.292  17.188  0.00  0.00    +0.000 HD
ENDROOT
BRANCH   6  14
ATOM     14  C   UNL     1       3.200   5.979  19.115  0.00  0.00    +0.000 C 
ATOM     15  O   UNL     1       4.405   5.850  18.910  0.00  0.00    +0.000 OA
BRANCH  14  16
ATOM     16  C   UNL     1       2.430   4.824  19.649  0.00  0.00    +0.000 A 
ATOM     17  C   UNL     1       2.628   4.486  20.996  0.00  0.00    +0.000 A 
ATOM     18  C   UNL     1       1.916   3.429  21.564  0.00  0.00    +0.000 A 
ATOM     19  C   UNL     1       1.015   2.697  20.788  0.00  0.00    +0.000 A 
ATOM     20  C   UNL     1       0.840   3.007  19.435  0.00  0.00    +0.000 A 
ATOM     21  C   UNL     1       1.555   4.064  18.870  0.00  0.00    +0.000 A 
BRANCH  21  22
ATOM     22  O   UNL     1       1.397   4.338  17.540  0.00  0.00    +0.000 OA
ATOM     23  H   UNL     1       1.251   3.512  17.049  0.00  0.00    +0.000 HD
ENDBRANCH  21  22
ENDBRANCH  14  16
ENDBRANCH   6  14
TORSDOF 3
ENDMDL
MODEL 9
REMARK VINA RESULT:      -7.5      5.084      7.479
REMARK  Name = 
REMARK  4 active torsions:
REMARK  status: ('A' for Active; 'I' for Inactive)
REMARK    1  A    between atoms: C_1  and  N_2
REMARK    2  A    between atoms: C_6  and  C_7
REMARK    3  A    between atoms: C_7  and  C_9
REMARK    4  A    between atoms: C_14  and  O_15
REMARK                            x       y       z     vdW  Elec       q    Type
REMARK                         _______ _______ _______ _____ _____    ______ ____
ROOT
ATOM      1  C   UNL     1      -0.051  12.139  21.569  0.00  0.00    +0.000 C 
ATOM      2  N   UNL     1       0.302  11.263  20.473  0.00  0.00    +0.000 N 
ATOM      3  C   UNL     1       0.283   9.825  20.679  0.00  0.00    +0.000 C 
ATOM      4  C   UNL     1       1.175   9.137  19.700  0.00  0.00    +0.000 A 
ATOM      5  C   UNL     1       1.750   7.887  19.935  0.00  0.00    +0.000 A 
ATOM      6  C   UNL     1       2.569   7.321  18.956  0.00  0.00    +0.000 A 
ATOM      7  C   UNL     1       2.727   8.013  17.760  0.00  0.00    +0.000 A 
ATOM      8  N   UNL     1       2.140   9.205  17.489  0.00  0.00    +0.000 NA
ATOM      9  C   UNL     1       1.389   9.740  18.471  0.00  0.00    +0.000 A 
ATOM     10  N   UNL     1       0.809  10.971  18.223  0.00  0.00    +0.000 N 
ATOM     11  C   UNL     1       0.286  11.776  19.191  0.00  0.00    +0.000 C 
ATOM     12  O   UNL     1      -0.099  12.911  18.917  0.00  0.00    +0.000 OA
ATOM     13  H   UNL     1       0.942  11.371  17.308  0.00  0.00    +0.000 HD
ENDROOT
BRANCH   6  14
ATOM     14  C   UNL     1       3.176   5.994  19.190  0.00  0.00    +0.000 C 
ATOM     15  O   UNL     1       4.394   5.916  19.329  0.00  0.00    +0.000 OA
BRANCH  14  16
ATOM     16  C   UNL     1       2.353   4.761  19.315  0.00  0.00    +0.000 A 
ATOM     17  C   UNL     1       1.847   4.201  18.133  0.00  0.00    +0.000 A 
ATOM     18  C   UNL     1       1.090   3.031  18.182  0.00  0.00    +0.000 A 
ATOM     19  C   UNL     1       0.823   2.422  19.411  0.00  0.00    +0.000 A 
ATOM     20  C   UNL     1       1.294   2.996  20.596  0.00  0.00    +0.000 A 
ATOM     21  C   UNL     1       2.051   4.168  20.543  0.00  0.00    +0.000 A 
BRANCH  21  22
ATOM     22  O   UNL     1       2.481   4.735  21.710  0.00  0.00    +0.000 OA
ATOM     23  H   UNL     1       2.709   4.040  22.350  0.00  0.00    +0.000 HD
ENDBRANCH  21  22
ENDBRANCH  14  16
ENDBRANCH   6  14
TORSDOF 3
ENDMDL
