MODEL 1
REMARK VINA RESULT:      -7.2      0.000      0.000
REMARK  Name = 
REMARK  4 active torsions:
REMARK  status: ('A' for Active; 'I' for Inactive)
REMARK    1  A    between atoms: C_1  and  O_2
REMARK    2  A    between atoms: O_2  and  C_3
REMARK    3  A    between atoms: C_3  and  C_5
REMARK    4  A    between atoms: C_9  and  C_10
REMARK                            x       y       z     vdW  Elec       q    Type
REMARK                         _______ _______ _______ _____ _____    ______ ____
ROOT
ATOM      1  C   UNL     1       4.910   5.234  18.275  0.00  0.00    +0.000 C 
ATOM      2  C   UNL     1       4.724   6.587  17.625  0.00  0.00    +0.000 C 
ATOM      3  O   UNL     1       3.637   7.124  17.447  0.00  0.00    +0.000 OA
ATOM      4  N   UNL     1       5.879   7.244  17.324  0.00  0.00    +0.000 N 
ATOM      5  C   UNL     1       7.232   6.706  17.433  0.00  0.00    +0.000 C 
ATOM      6  C   UNL     1       8.066   7.787  18.117  0.00  0.00    +0.000 C 
ATOM      7  C   UNL     1       7.342   5.403  18.232  0.00  0.00    +0.000 C 
ATOM      8  C   UNL     1       6.178   4.542  17.744  0.00  0.00    +0.000 C 
ATOM      9  C   UNL     1       6.282   4.449  16.229  0.00  0.00    +0.000 A 
ATOM     10  C   UNL     1       5.567   3.479  15.516  0.00  0.00    +0.000 A 
ATOM     11  C   UNL     1       5.697   3.385  14.127  0.00  0.00    +0.000 A 
ATOM     12  C   UNL     1       6.574   4.227  13.445  0.00  0.00    +0.000 A 
ATOM     13  C   UNL     1       7.278   5.212  14.137  0.00  0.00    +0.000 A 
ATOM     14  C   UNL     1       7.094   5.354  15.514  0.00  0.00    +0.000 A 
ATOM     15  O   UNL     1       7.712   6.442  16.106  0.00  0.00    +0.000 OA
ATOM     16  H   UNL     1       5.748   8.055  16.728  0.00  0.00    +0.000 HD
ENDROOT
BRANCH   1  17
ATOM     17  C   UNL     1       3.725   4.318  18.219  0.00  0.00    +0.000 C 
ATOM     18  O   UNL     1       2.647   4.543  17.690  0.00  0.00    +0.000 OA
BRANCH  17  20
ATOM     19  C   UNL     1       3.361   2.005  18.257  0.00  0.00    +0.000 C 
ATOM     20  O   UNL     1       4.059   3.124  18.808  0.00  0.00    +0.000 OA
ENDBRANCH  17  20
ENDBRANCH   1  17
TORSDOF 2
ENDMDL
MODEL 2
REMARK VINA RESULT:      -7.0      2.133      3.181
REMARK  Name = 
REMARK  4 active torsions:
REMARK  status: ('A' for Active; 'I' for Inactive)
REMARK    1  A    between atoms: C_1  and  O_2
REMARK    2  A    between atoms: O_2  and  C_3
REMARK    3  A    between atoms: C_3  and  C_5
REMARK    4  A    between atoms: C_9  and  C_10
REMARK                            x       y       z     vdW  Elec       q    Type
REMARK                         _______ _______ _______ _____ _____    ______ ____
ROOT
ATOM      1  C   UNL     1       3.034   4.010  19.043  0.00  0.00    +0.000 C 
ATOM      2  C   UNL     1       1.992   4.472  18.049  0.00  0.00    +0.000 C 
ATOM      3  O   UNL     1       1.122   3.750  17.576  0.00  0.00    +0.000 OA
ATOM      4  N   UNL     1       2.014   5.805  17.769  0.00  0.00    +0.000 N 
ATOM      5  C   UNL     1       3.019   6.764  18.217  0.00  0.00    +0.000 C 
ATOM      6  C   UNL     1       2.248   7.983  18.720  0.00  0.00    +0.000 C 
ATOM      7  C   UNL     1       3.942   6.256  19.330  0.00  0.00    +0.000 C 
ATOM      8  C   UNL     1       4.324   4.838  18.907  0.00  0.00    +0.000 C 
ATOM      9  C   UNL     1       4.898   4.920  17.500  0.00  0.00    +0.000 A 
ATOM     10  C   UNL     1       5.633   3.858  16.958  0.00  0.00    +0.000 A 
ATOM     11  C   UNL     1       6.181   3.961  15.677  0.00  0.00    +0.000 A 
ATOM     12  C   UNL     1       6.039   5.138  14.944  0.00  0.00    +0.000 A 
ATOM     13  C   UNL     1       5.293   6.198  15.459  0.00  0.00    +0.000 A 
ATOM     14  C   UNL     1       4.685   6.069  16.710  0.00  0.00    +0.000 A 
ATOM     15  O   UNL     1       3.844   7.100  17.091  0.00  0.00    +0.000 OA
ATOM     16  H   UNL     1       1.442   6.067  16.973  0.00  0.00    +0.000 HD
ENDROOT
BRANCH   1  17
ATOM     17  C   UNL     1       3.327   2.540  19.044  0.00  0.00    +0.000 C 
ATOM     18  O   UNL     1       3.326   1.792  18.080  0.00  0.00    +0.000 OA
BRANCH  17  20
ATOM     19  C   UNL     1       2.743   2.589  21.311  0.00  0.00    +0.000 C 
ATOM     20  O   UNL     1       3.674   2.158  20.316  0.00  0.00    +0.000 OA
ENDBRANCH  17  20
ENDBRANCH   1  17
TORSDOF 2
ENDMDL
MODEL 3
REMARK VINA RESULT:      -6.9      2.367      5.078
REMARK  Name = 
REMARK  4 active torsions:
REMARK  status: ('A' for Active; 'I' for Inactive)
REMARK    1  A    between atoms: C_1  and  O_2
REMARK    2  A    between atoms: O_2  and  C_3
REMARK    3  A    between atoms: C_3  and  C_5
REMARK    4  A    between atoms: C_9  and  C_10
REMARK                            x       y       z     vdW  Elec       q    Type
REMARK                         _______ _______ _______ _____ _____    ______ ____
ROOT
ATOM      1  C   UNL     1       4.514   5.871  17.801  0.00  0.00    +0.000 C 
ATOM      2  C   UNL     1       4.772   5.708  19.282  0.00  0.00    +0.000 C 
ATOM      3  O   UNL     1       5.850   5.377  19.762  0.00  0.00    +0.000 OA
ATOM      4  N   UNL     1       3.730   6.053  20.089  0.00  0.00    +0.000 N 
ATOM      5  C   UNL     1       2.384   6.411  19.655  0.00  0.00    +0.000 C 
ATOM      6  C   UNL     1       2.000   7.662  20.443  0.00  0.00    +0.000 C 
ATOM      7  C   UNL     1       2.247   6.699  18.155  0.00  0.00    +0.000 C 
ATOM      8  C   UNL     1       3.039   5.587  17.468  0.00  0.00    +0.000 C 
ATOM      9  C   UNL     1       2.501   4.259  17.982  0.00  0.00    +0.000 A 
ATOM     10  C   UNL     1       2.786   3.060  17.316  0.00  0.00    +0.000 A 
ATOM     11  C   UNL     1       2.259   1.852  17.781  0.00  0.00    +0.000 A 
ATOM     12  C   UNL     1       1.409   1.836  18.885  0.00  0.00    +0.000 A 
ATOM     13  C   UNL     1       1.131   3.017  19.573  0.00  0.00    +0.000 A 
ATOM     14  C   UNL     1       1.715   4.213  19.152  0.00  0.00    +0.000 A 
ATOM     15  O   UNL     1       1.512   5.314  19.966  0.00  0.00    +0.000 OA
ATOM     16  H   UNL     1       3.846   5.767  21.056  0.00  0.00    +0.000 HD
ENDROOT
BRANCH   1  17
ATOM     17  C   UNL     1       5.434   5.113  16.892  0.00  0.00    +0.000 C 
ATOM     18  O   UNL     1       6.184   4.201  17.203  0.00  0.00    +0.000 OA
BRANCH  17  20
ATOM     19  C   UNL     1       5.630   4.600  14.617  0.00  0.00    +0.000 C 
ATOM     20  O   UNL     1       5.255   5.559  15.607  0.00  0.00    +0.000 OA
ENDBRANCH  17  20
ENDBRANCH   1  17
TORSDOF 2
ENDMDL
MODEL 4
REMARK VINA RESULT:      -6.8      2.319      3.792
REMARK  Name = 
REMARK  4 active torsions:
REMARK  status: ('A' for Active; 'I' for Inactive)
REMARK    1  A    between atoms: C_1  and  O_2
REMARK    2  A    between atoms: O_2  and  C_3
REMARK    3  A    between atoms: C_3  and  C_5
REMARK    4  A    between atoms: C_9  and  C_10
REMARK                            x       y       z     vdW  Elec       q    Type
REMARK                         _______ _______ _______ _____ _____    ______ ____
ROOT
ATOM      1  C   UNL     1       2.690   4.267  19.406  0.00  0.00    +0.000 C 
ATOM      2  C   UNL     1       2.143   4.418  18.003  0.00  0.00    +0.000 C 
ATOM      3  O   UNL     1       1.695   3.494  17.335  0.00  0.00    +0.000 OA
ATOM      4  N   UNL     1       2.086   5.699  17.543  0.00  0.00    +0.000 N 
ATOM      5  C   UNL     1       2.629   6.880  18.208  0.00  0.00    +0.000 C 
ATOM      6  C   UNL     1       1.541   7.949  18.131  0.00  0.00    +0.000 C 
ATOM      7  C   UNL     1       3.025   6.667  19.673  0.00  0.00    +0.000 C 
ATOM      8  C   UNL     1       3.765   5.330  19.692  0.00  0.00    +0.000 C 
ATOM      9  C   UNL     1       4.885   5.414  18.665  0.00  0.00    +0.000 A 
ATOM     10  C   UNL     1       5.935   4.487  18.667  0.00  0.00    +0.000 A 
ATOM     11  C   UNL     1       6.974   4.596  17.739  0.00  0.00    +0.000 A 
ATOM     12  C   UNL     1       6.997   5.654  16.831  0.00  0.00    +0.000 A 
ATOM     13  C   UNL     1       5.950   6.574  16.801  0.00  0.00    +0.000 A 
ATOM     14  C   UNL     1       4.875   6.425  17.681  0.00  0.00    +0.000 A 
ATOM     15  O   UNL     1       3.808   7.286  17.496  0.00  0.00    +0.000 OA
ATOM     16  H   UNL     1       1.897   5.770  16.549  0.00  0.00    +0.000 HD
ENDROOT
BRANCH   1  17
ATOM     17  C   UNL     1       3.170   2.895  19.773  0.00  0.00    +0.000 C 
ATOM     18  O   UNL     1       3.714   2.086  19.036  0.00  0.00    +0.000 OA
BRANCH  17  20
ATOM     19  C   UNL     1       1.598   2.832  21.506  0.00  0.00    +0.000 C 
ATOM     20  O   UNL     1       2.966   2.698  21.115  0.00  0.00    +0.000 OA
ENDBRANCH  17  20
ENDBRANCH   1  17
TORSDOF 2
ENDMDL
MODEL 5
REMARK VINA RESULT:      -6.7      1.913      5.096
REMARK  Name = 
REMARK  4 active torsions:
REMARK  status: ('A' for Active; 'I' for Inactive)
REMARK    1  A    between atoms: C_1  and  O_2
REMARK    2  A    between atoms: O_2  and  C_3
REMARK    3  A    between atoms: C_3  and  C_5
REMARK    4  A    between atoms: C_9  and  C_10
REMARK                            x       y       z     vdW  Elec       q    Type
REMARK                         _______ _______ _______ _____ _____    ______ ____
ROOT
ATOM      1  C   UNL     1       6.333   4.592  17.497  0.00  0.00    +0.000 C 
ATOM      2  C   UNL     1       5.512   3.895  16.435  0.00  0.00    +0.000 C 
ATOM      3  O   UNL     1       5.786   3.897  15.240  0.00  0.00    +0.000 OA
ATOM      4  N   UNL     1       4.468   3.159  16.906  0.00  0.00    +0.000 N 
ATOM      5  C   UNL     1       4.000   3.110  18.288  0.00  0.00    +0.000 C 
ATOM      6  C   UNL     1       3.782   1.633  18.611  0.00  0.00    +0.000 C 
ATOM      7  C   UNL     1       4.964   3.714  19.314  0.00  0.00    +0.000 C 
ATOM      8  C   UNL     1       5.447   5.019  18.681  0.00  0.00    +0.000 C 
ATOM      9  C   UNL     1       4.214   5.830  18.310  0.00  0.00    +0.000 A 
ATOM     10  C   UNL     1       4.313   7.195  18.013  0.00  0.00    +0.000 A 
ATOM     11  C   UNL     1       3.168   7.935  17.706  0.00  0.00    +0.000 A 
ATOM     12  C   UNL     1       1.912   7.331  17.737  0.00  0.00    +0.000 A 
ATOM     13  C   UNL     1       1.797   5.968  18.010  0.00  0.00    +0.000 A 
ATOM     14  C   UNL     1       2.947   5.213  18.246  0.00  0.00    +0.000 A 
ATOM     15  O   UNL     1       2.769   3.845  18.365  0.00  0.00    +0.000 OA
ATOM     16  H   UNL     1       3.822   2.853  16.185  0.00  0.00    +0.000 HD
ENDROOT
BRANCH   1  17
ATOM     17  C   UNL     1       7.187   5.727  17.019  0.00  0.00    +0.000 C 
ATOM     18  O   UNL     1       7.374   6.068  15.861  0.00  0.00    +0.000 OA
BRANCH  17  20
ATOM     19  C   UNL     1       7.905   7.786  17.871  0.00  0.00    +0.000 C 
ATOM     20  O   UNL     1       7.690   6.393  18.108  0.00  0.00    +0.000 OA
ENDBRANCH  17  20
ENDBRANCH   1  17
TORSDOF 2
ENDMDL
MODEL 6
REMARK VINA RESULT:      -6.7      0.701      1.020
REMARK  Name = 
REMARK  4 active torsions:
REMARK  status: ('A' for Active; 'I' for Inactive)
REMARK    1  A    between atoms: C_1  and  O_2
REMARK    2  A    between atoms: O_2  and  C_3
REMARK    3  A    between atoms: C_3  and  C_5
REMARK    4  A    between atoms: C_9  and  C_10
REMARK                            x       y       z     vdW  Elec       q    Type
REMARK                         _______ _______ _______ _____ _____    ______ ____
ROOT
ATOM      1  C   UNL     1       4.968   5.445  18.549  0.00  0.00    +0.000 C 
ATOM      2  C   UNL     1       4.734   6.737  17.798  0.00  0.00    +0.000 C 
ATOM      3  O   UNL     1       3.634   7.249  17.632  0.00  0.00    +0.000 OA
ATOM      4  N   UNL     1       5.865   7.375  17.385  0.00  0.00    +0.000 N 
ATOM      5  C   UNL     1       7.228   6.858  17.470  0.00  0.00    +0.000 C 
ATOM      6  C   UNL     1       8.082   7.999  18.017  0.00  0.00    +0.000 C 
ATOM      7  C   UNL     1       7.393   5.628  18.369  0.00  0.00    +0.000 C 
ATOM      8  C   UNL     1       6.216   4.720  18.015  0.00  0.00    +0.000 C 
ATOM      9  C   UNL     1       6.245   4.500  16.510  0.00  0.00    +0.000 A 
ATOM     10  C   UNL     1       5.507   3.468  15.917  0.00  0.00    +0.000 A 
ATOM     11  C   UNL     1       5.569   3.258  14.537  0.00  0.00    +0.000 A 
ATOM     12  C   UNL     1       6.401   4.046  13.743  0.00  0.00    +0.000 A 
ATOM     13  C   UNL     1       7.127   5.092  14.313  0.00  0.00    +0.000 A 
ATOM     14  C   UNL     1       7.010   5.348  15.681  0.00  0.00    +0.000 A 
ATOM     15  O   UNL     1       7.644   6.486  16.147  0.00  0.00    +0.000 OA
ATOM     16  H   UNL     1       5.695   8.131  16.730  0.00  0.00    +0.000 HD
ENDROOT
BRANCH   1  17
ATOM     17  C   UNL     1       3.793   4.518  18.631  0.00  0.00    +0.000 C 
ATOM     18  O   UNL     1       3.556   3.710  19.515  0.00  0.00    +0.000 OA
BRANCH  17  20
ATOM     19  C   UNL     1       1.652   4.210  17.735  0.00  0.00    +0.000 C 
ATOM     20  O   UNL     1       2.958   4.766  17.570  0.00  0.00    +0.000 OA
ENDBRANCH  17  20
ENDBRANCH   1  17
TORSDOF 2
ENDMDL
MODEL 7
REMARK VINA RESULT:      -6.6      2.157      3.976
REMARK  Name = 
REMARK  4 active torsions:
REMARK  status: ('A' for Active; 'I' for Inactive)
REMARK    1  A    between atoms: C_1  and  O_2
REMARK    2  A    between atoms: O_2  and  C_3
REMARK    3  A    between atoms: C_3  and  C_5
REMARK    4  A    between atoms: C_9  and  C_10
REMARK                            x       y       z     vdW  Elec       q    Type
REMARK                         _______ _______ _______ _____ _____    ______ ____
ROOT
ATOM      1  C   UNL     1       4.007   2.961  18.359  0.00  0.00    +0.000 C 
ATOM      2  C   UNL     1       5.157   3.577  19.126  0.00  0.00    +0.000 C 
ATOM      3  O   UNL     1       5.356   3.407  20.323  0.00  0.00    +0.000 OA
ATOM      4  N   UNL     1       6.045   4.278  18.368  0.00  0.00    +0.000 N 
ATOM      5  C   UNL     1       5.903   4.600  16.951  0.00  0.00    +0.000 C 
ATOM      6  C   UNL     1       7.253   4.287  16.307  0.00  0.00    +0.000 C 
ATOM      7  C   UNL     1       4.803   3.821  16.221  0.00  0.00    +0.000 C 
ATOM      8  C   UNL     1       3.605   3.850  17.169  0.00  0.00    +0.000 C 
ATOM      9  C   UNL     1       3.328   5.306  17.511  0.00  0.00    +0.000 A 
ATOM     10  C   UNL     1       2.112   5.692  18.089  0.00  0.00    +0.000 A 
ATOM     11  C   UNL     1       1.859   7.038  18.368  0.00  0.00    +0.000 A 
ATOM     12  C   UNL     1       2.796   8.014  18.031  0.00  0.00    +0.000 A 
ATOM     13  C   UNL     1       4.020   7.646  17.474  0.00  0.00    +0.000 A 
ATOM     14  C   UNL     1       4.303   6.295  17.262  0.00  0.00    +0.000 A 
ATOM     15  O   UNL     1       5.588   5.997  16.844  0.00  0.00    +0.000 OA
ATOM     16  H   UNL     1       6.698   4.834  18.908  0.00  0.00    +0.000 HD
ENDROOT
BRANCH   1  17
ATOM     17  C   UNL     1       2.813   2.573  19.178  0.00  0.00    +0.000 C 
ATOM     18  O   UNL     1       2.664   2.731  20.380  0.00  0.00    +0.000 OA
BRANCH  17  20
ATOM     19  C   UNL     1       0.519   2.390  18.746  0.00  0.00    +0.000 C 
ATOM     20  O   UNL     1       1.851   2.062  18.344  0.00  0.00    +0.000 OA
ENDBRANCH  17  20
ENDBRANCH   1  17
TORSDOF 2
ENDMDL
MODEL 8
REMARK VINA RESULT:      -6.4      2.471      5.063
REMARK  Name = 
REMARK  4 active torsions:
REMARK  status: ('A' for Active; 'I' for Inactive)
REMARK    1  A    between atoms: C_1  and  O_2
REMARK    2  A    between atoms: O_2  and  C_3
REMARK    3  A    between atoms: C_3  and  C_5
REMARK    4  A    between atoms: C_9  and  C_10
REMARK                            x       y       z     vdW  Elec       q    Type
REMARK                         _______ _______ _______ _____ _____    ______ ____
ROOT
ATOM      1  C   UNL     1       4.351   5.975  17.776  0.00  0.00    +0.000 C 
ATOM      2  C   UNL     1       4.686   5.780  19.238  0.00  0.00    +0.000 C 
ATOM      3  O   UNL     1       5.796   5.474  19.657  0.00  0.00    +0.000 OA
ATOM      4  N   UNL     1       3.673   6.065  20.103  0.00  0.00    +0.000 N 
ATOM      5  C   UNL     1       2.296   6.387  19.743  0.00  0.00    +0.000 C 
ATOM      6  C   UNL     1       1.909   7.601  20.585  0.00  0.00    +0.000 C 
ATOM      7  C   UNL     1       2.078   6.711  18.261  0.00  0.00    +0.000 C 
ATOM      8  C   UNL     1       2.873   5.647  17.504  0.00  0.00    +0.000 C 
ATOM      9  C   UNL     1       2.406   4.288  18.004  0.00  0.00    +0.000 A 
ATOM     10  C   UNL     1       2.699   3.118  17.291  0.00  0.00    +0.000 A 
ATOM     11  C   UNL     1       2.237   1.880  17.744  0.00  0.00    +0.000 A 
ATOM     12  C   UNL     1       1.442   1.803  18.887  0.00  0.00    +0.000 A 
ATOM     13  C   UNL     1       1.158   2.954  19.621  0.00  0.00    +0.000 A 
ATOM     14  C   UNL     1       1.679   4.181  19.208  0.00  0.00    +0.000 A 
ATOM     15  O   UNL     1       1.478   5.251  20.063  0.00  0.00    +0.000 OA
ATOM     16  H   UNL     1       3.846   5.757  21.054  0.00  0.00    +0.000 HD
ENDROOT
BRANCH   1  17
ATOM     17  C   UNL     1       5.252   5.275  16.803  0.00  0.00    +0.000 C 
ATOM     18  O   UNL     1       5.299   5.444  15.595  0.00  0.00    +0.000 OA
BRANCH  17  20
ATOM     19  C   UNL     1       7.439   4.468  17.022  0.00  0.00    +0.000 C 
ATOM     20  O   UNL     1       6.091   4.441  17.497  0.00  0.00    +0.000 OA
ENDBRANCH  17  20
ENDBRANCH   1  17
TORSDOF 2
ENDMDL
MODEL 9
REMARK VINA RESULT:      -6.3      2.504      5.234
REMARK  Name = 
REMARK  4 active torsions:
REMARK  status: ('A' for Active; 'I' for Inactive)
REMARK    1  A    between atoms: C_1  and  O_2
REMARK    2  A    between atoms: O_2  and  C_3
REMARK    3  A    between atoms: C_3  and  C_5
REMARK    4  A    between atoms: C_9  and  C_10
REMARK                            x       y       z     vdW  Elec       q    Type
REMARK                         _______ _______ _______ _____ _____    ______ ____
ROOT
ATOM      1  C   UNL     1       4.382   3.696  17.752  0.00  0.00    +0.000 C 
ATOM      2  C   UNL     1       2.917   3.320  17.723  0.00  0.00    +0.000 C 
ATOM      3  O   UNL     1       2.339   2.872  16.740  0.00  0.00    +0.000 OA
ATOM      4  N   UNL     1       2.274   3.419  18.920  0.00  0.00    +0.000 N 
ATOM      5  C   UNL     1       2.822   3.982  20.150  0.00  0.00    +0.000 C 
ATOM      6  C   UNL     1       2.462   3.001  21.264  0.00  0.00    +0.000 C 
ATOM      7  C   UNL     1       4.340   4.197  20.138  0.00  0.00    +0.000 C 
ATOM      8  C   UNL     1       4.639   4.818  18.774  0.00  0.00    +0.000 C 
ATOM      9  C   UNL     1       3.753   6.046  18.627  0.00  0.00    +0.000 A 
ATOM     10  C   UNL     1       4.013   7.009  17.645  0.00  0.00    +0.000 A 
ATOM     11  C   UNL     1       3.211   8.149  17.542  0.00  0.00    +0.000 A 
ATOM     12  C   UNL     1       2.170   8.358  18.446  0.00  0.00    +0.000 A 
ATOM     13  C   UNL     1       1.882   7.399  19.417  0.00  0.00    +0.000 A 
ATOM     14  C   UNL     1       2.639   6.227  19.474  0.00  0.00    +0.000 A 
ATOM     15  O   UNL     1       2.206   5.261  20.365  0.00  0.00    +0.000 OA
ATOM     16  H   UNL     1       1.264   3.345  18.851  0.00  0.00    +0.000 HD
ENDROOT
BRANCH   1  17
ATOM     17  C   UNL     1       4.997   4.018  16.423  0.00  0.00    +0.000 C 
ATOM     18  O   UNL     1       4.408   4.298  15.391  0.00  0.00    +0.000 OA
BRANCH  17  20
ATOM     19  C   UNL     1       7.031   4.753  15.526  0.00  0.00    +0.000 C 
ATOM     20  O   UNL     1       6.363   4.022  16.556  0.00  0.00    +0.000 OA
ENDBRANCH  17  20
ENDBRANCH   1  17
TORSDOF 2
ENDMDL
