MODEL 1
REMARK VINA RESULT:      -7.0      0.000      0.000
REMARK  Name = 
REMARK  4 active torsions:
REMARK  status: ('A' for Active; 'I' for Inactive)
REMARK    1  A    between atoms: C_1  and  O_2
REMARK    2  A    between atoms: O_2  and  C_3
REMARK    3  A    between atoms: C_8  and  N_9
REMARK    4  A    between atoms: C_17  and  C_18
REMARK                            x       y       z     vdW  Elec       q    Type
REMARK                         _______ _______ _______ _____ _____    ______ ____
ROOT
ATOM      1  N   UNL     1       4.664   3.769  17.650  0.00  0.00    +0.000 N 
ATOM      2  C   UNL     1       4.080   4.593  18.580  0.00  0.00    +0.000 C 
ATOM      3  O   UNL     1       4.222   5.817  18.588  0.00  0.00    +0.000 OA
ATOM      4  N   UNL     1       3.257   3.977  19.512  0.00  0.00    +0.000 N 
ATOM      5  C   UNL     1       2.461   4.837  20.401  0.00  0.00    +0.000 C 
ATOM      6  C   UNL     1       1.004   4.364  20.446  0.00  0.00    +0.000 C 
ATOM      7  O   UNL     1       0.913   2.975  20.796  0.00  0.00    +0.000 OA
ATOM      8  C   UNL     1       1.626   2.165  19.848  0.00  0.00    +0.000 C 
ATOM      9  C   UNL     1       3.124   2.531  19.800  0.00  0.00    +0.000 C 
ATOM     10  C   UNL     1       3.821   2.166  21.117  0.00  0.00    +0.000 C 
ATOM     11  H   UNL     1       4.295   2.837  17.541  0.00  0.00    +0.000 HD
ENDROOT
BRANCH   1  17
ATOM     12  C   UNL     1       6.850   4.431  16.818  0.00  0.00    +0.000 A 
ATOM     13  N   UNL     1       7.762   4.740  15.862  0.00  0.00    +0.000 NA
ATOM     14  C   UNL     1       7.297   4.843  14.601  0.00  0.00    +0.000 A 
ATOM     15  C   UNL     1       5.967   4.666  14.257  0.00  0.00    +0.000 A 
ATOM     16  C   UNL     1       5.059   4.322  15.257  0.00  0.00    +0.000 A 
ATOM     17  C   UNL     1       5.496   4.166  16.571  0.00  0.00    +0.000 A 
BRANCH  12  19
ATOM     18  C   UNL     1       7.701   5.638  18.618  0.00  0.00    +0.000 C 
ATOM     19  O   UNL     1       7.270   4.366  18.139  0.00  0.00    +0.000 OA
ENDBRANCH  12  19
ENDBRANCH   1  17
TORSDOF 2
ENDMDL
MODEL 2
REMARK VINA RESULT:      -6.9      1.224      1.782
REMARK  Name = 
REMARK  4 active torsions:
REMARK  status: ('A' for Active; 'I' for Inactive)
REMARK    1  A    between atoms: C_1  and  O_2
REMARK    2  A    between atoms: O_2  and  C_3
REMARK    3  A    between atoms: C_8  and  N_9
REMARK    4  A    between atoms: C_17  and  C_18
REMARK                            x       y       z     vdW  Elec       q    Type
REMARK                         _______ _______ _______ _____ _____    ______ ____
ROOT
ATOM      1  N   UNL     1       4.336   4.503  17.945  0.00  0.00    +0.000 N 
ATOM      2  C   UNL     1       3.088   3.936  17.875  0.00  0.00    +0.000 C 
ATOM      3  O   UNL     1       2.627   3.433  16.848  0.00  0.00    +0.000 OA
ATOM      4  N   UNL     1       2.361   3.907  19.056  0.00  0.00    +0.000 N 
ATOM      5  C   UNL     1       1.107   3.139  19.074  0.00  0.00    +0.000 C 
ATOM      6  C   UNL     1       1.044   2.235  20.309  0.00  0.00    +0.000 C 
ATOM      7  O   UNL     1       1.250   2.983  21.518  0.00  0.00    +0.000 OA
ATOM      8  C   UNL     1       2.527   3.639  21.497  0.00  0.00    +0.000 C 
ATOM      9  C   UNL     1       2.639   4.628  20.319  0.00  0.00    +0.000 C 
ATOM     10  C   UNL     1       1.678   5.810  20.501  0.00  0.00    +0.000 C 
ATOM     11  H   UNL     1       4.744   4.644  18.856  0.00  0.00    +0.000 HD
ENDROOT
BRANCH   1  17
ATOM     12  C   UNL     1       6.650   4.570  17.203  0.00  0.00    +0.000 A 
ATOM     13  N   UNL     1       7.648   4.576  16.285  0.00  0.00    +0.000 NA
ATOM     14  C   UNL     1       7.275   4.669  14.993  0.00  0.00    +0.000 A 
ATOM     15  C   UNL     1       5.957   4.772  14.582  0.00  0.00    +0.000 A 
ATOM     16  C   UNL     1       4.951   4.734  15.547  0.00  0.00    +0.000 A 
ATOM     17  C   UNL     1       5.283   4.600  16.893  0.00  0.00    +0.000 A 
BRANCH  12  19
ATOM     18  C   UNL     1       7.687   5.703  18.953  0.00  0.00    +0.000 C 
ATOM     19  O   UNL     1       6.986   4.529  18.548  0.00  0.00    +0.000 OA
ENDBRANCH  12  19
ENDBRANCH   1  17
TORSDOF 2
ENDMDL
MODEL 3
REMARK VINA RESULT:      -6.8      1.816      5.940
REMARK  Name = 
REMARK  4 active torsions:
REMARK  status: ('A' for Active; 'I' for Inactive)
REMARK    1  A    between atoms: C_1  and  O_2
REMARK    2  A    between atoms: O_2  and  C_3
REMARK    3  A    between atoms: C_8  and  N_9
REMARK    4  A    between atoms: C_17  and  C_18
REMARK                            x       y       z     vdW  Elec       q    Type
REMARK                         _______ _______ _______ _____ _____    ______ ____
ROOT
ATOM      1  N   UNL     1       3.923   3.928  18.561  0.00  0.00    +0.000 N 
ATOM      2  C   UNL     1       4.209   5.234  18.252  0.00  0.00    +0.000 C 
ATOM      3  O   UNL     1       3.698   6.196  18.827  0.00  0.00    +0.000 OA
ATOM      4  N   UNL     1       5.163   5.435  17.264  0.00  0.00    +0.000 N 
ATOM      5  C   UNL     1       5.641   6.807  17.038  0.00  0.00    +0.000 C 
ATOM      6  C   UNL     1       7.171   6.842  16.973  0.00  0.00    +0.000 C 
ATOM      7  O   UNL     1       7.678   5.914  16.001  0.00  0.00    +0.000 OA
ATOM      8  C   UNL     1       7.265   4.574  16.314  0.00  0.00    +0.000 C 
ATOM      9  C   UNL     1       5.729   4.441  16.324  0.00  0.00    +0.000 C 
ATOM     10  C   UNL     1       5.153   4.628  14.914  0.00  0.00    +0.000 C 
ATOM     11  H   UNL     1       4.562   3.213  18.248  0.00  0.00    +0.000 HD
ENDROOT
BRANCH   1  17
ATOM     12  C   UNL     1       3.543   2.760  20.659  0.00  0.00    +0.000 A 
ATOM     13  N   UNL     1       2.807   2.340  21.719  0.00  0.00    +0.000 NA
ATOM     14  C   UNL     1       1.484   2.592  21.667  0.00  0.00    +0.000 A 
ATOM     15  C   UNL     1       0.865   3.228  20.604  0.00  0.00    +0.000 A 
ATOM     16  C   UNL     1       1.652   3.673  19.543  0.00  0.00    +0.000 A 
ATOM     17  C   UNL     1       3.030   3.471  19.565  0.00  0.00    +0.000 A 
BRANCH  12  19
ATOM     18  C   UNL     1       5.162   1.118  20.988  0.00  0.00    +0.000 C 
ATOM     19  O   UNL     1       4.901   2.477  20.641  0.00  0.00    +0.000 OA
ENDBRANCH  12  19
ENDBRANCH   1  17
TORSDOF 2
ENDMDL
MODEL 4
REMARK VINA RESULT:      -6.7      1.190      1.210
REMARK  Name = 
REMARK  4 active torsions:
REMARK  status: ('A' for Active; 'I' for Inactive)
REMARK    1  A    between atoms: C_1  and  O_2
REMARK    2  A    between atoms: O_2  and  C_3
REMARK    3  A    between atoms: C_8  and  N_9
REMARK    4  A    between atoms: C_17  and  C_18
REMARK                            x       y       z     vdW  Elec       q    Type
REMARK                         _______ _______ _______ _____ _____    ______ ____
ROOT
ATOM      1  N   UNL     1       4.965   3.646  16.673  0.00  0.00    +0.000 N 
ATOM      2  C   UNL     1       4.113   4.413  17.428  0.00  0.00    +0.000 C 
ATOM      3  O   UNL     1       3.919   5.613  17.223  0.00  0.00    +0.000 OA
ATOM      4  N   UNL     1       3.421   3.753  18.432  0.00  0.00    +0.000 N 
ATOM      5  C   UNL     1       2.359   4.488  19.134  0.00  0.00    +0.000 C 
ATOM      6  C   UNL     1       1.085   3.642  19.224  0.00  0.00    +0.000 C 
ATOM      7  O   UNL     1       1.347   2.358  19.811  0.00  0.00    +0.000 OA
ATOM      8  C   UNL     1       2.320   1.637  19.040  0.00  0.00    +0.000 C 
ATOM      9  C   UNL     1       3.662   2.393  18.967  0.00  0.00    +0.000 C 
ATOM     10  C   UNL     1       4.333   2.455  20.346  0.00  0.00    +0.000 C 
ATOM     11  H   UNL     1       4.871   2.643  16.721  0.00  0.00    +0.000 HD
ENDROOT
BRANCH   1  17
ATOM     12  C   UNL     1       6.901   4.824  15.793  0.00  0.00    +0.000 A 
ATOM     13  N   UNL     1       7.762   5.226  14.826  0.00  0.00    +0.000 NA
ATOM     14  C   UNL     1       7.425   4.918  13.557  0.00  0.00    +0.000 A 
ATOM     15  C   UNL     1       6.266   4.243  13.215  0.00  0.00    +0.000 A 
ATOM     16  C   UNL     1       5.415   3.817  14.233  0.00  0.00    +0.000 A 
ATOM     17  C   UNL     1       5.736   4.078  15.563  0.00  0.00    +0.000 A 
BRANCH  12  19
ATOM     18  C   UNL     1       7.298   6.576  17.276  0.00  0.00    +0.000 C 
ATOM     19  O   UNL     1       7.177   5.164  17.110  0.00  0.00    +0.000 OA
ENDBRANCH  12  19
ENDBRANCH   1  17
TORSDOF 2
ENDMDL
MODEL 5
REMARK VINA RESULT:      -6.6      1.238      1.781
REMARK  Name = 
REMARK  4 active torsions:
REMARK  status: ('A' for Active; 'I' for Inactive)
REMARK    1  A    between atoms: C_1  and  O_2
REMARK    2  A    between atoms: O_2  and  C_3
REMARK    3  A    between atoms: C_8  and  N_9
REMARK    4  A    between atoms: C_17  and  C_18
REMARK                            x       y       z     vdW  Elec       q    Type
REMARK                         _______ _______ _______ _____ _____    ______ ____
ROOT
ATOM      1  N   UNL     1       4.106   4.115  17.422  0.00  0.00    +0.000 N 
ATOM      2  C   UNL     1       4.213   3.349  18.556  0.00  0.00    +0.000 C 
ATOM      3  O   UNL     1       5.266   2.831  18.929  0.00  0.00    +0.000 OA
ATOM      4  N   UNL     1       3.059   3.218  19.316  0.00  0.00    +0.000 N 
ATOM      5  C   UNL     1       3.173   2.573  20.633  0.00  0.00    +0.000 C 
ATOM      6  C   UNL     1       2.456   3.403  21.703  0.00  0.00    +0.000 C 
ATOM      7  O   UNL     1       1.094   3.670  21.336  0.00  0.00    +0.000 OA
ATOM      8  C   UNL     1       1.035   4.383  20.091  0.00  0.00    +0.000 C 
ATOM      9  C   UNL     1       1.672   3.576  18.942  0.00  0.00    +0.000 C 
ATOM     10  C   UNL     1       0.845   2.322  18.628  0.00  0.00    +0.000 C 
ATOM     11  H   UNL     1       3.302   4.716  17.326  0.00  0.00    +0.000 HD
ENDROOT
BRANCH   1  17
ATOM     12  C   UNL     1       6.119   5.377  16.904  0.00  0.00    +0.000 A 
ATOM     13  N   UNL     1       7.205   5.712  16.165  0.00  0.00    +0.000 NA
ATOM     14  C   UNL     1       7.312   5.126  14.956  0.00  0.00    +0.000 A 
ATOM     15  C   UNL     1       6.380   4.237  14.450  0.00  0.00    +0.000 A 
ATOM     16  C   UNL     1       5.288   3.890  15.245  0.00  0.00    +0.000 A 
ATOM     17  C   UNL     1       5.151   4.439  16.517  0.00  0.00    +0.000 A 
BRANCH  12  19
ATOM     18  C   UNL     1       7.062   5.809  18.989  0.00  0.00    +0.000 C 
ATOM     19  O   UNL     1       5.936   5.994  18.133  0.00  0.00    +0.000 OA
ENDBRANCH  12  19
ENDBRANCH   1  17
TORSDOF 2
ENDMDL
MODEL 6
REMARK VINA RESULT:      -6.6      1.797      6.171
REMARK  Name = 
REMARK  4 active torsions:
REMARK  status: ('A' for Active; 'I' for Inactive)
REMARK    1  A    between atoms: C_1  and  O_2
REMARK    2  A    between atoms: O_2  and  C_3
REMARK    3  A    between atoms: C_8  and  N_9
REMARK    4  A    between atoms: C_17  and  C_18
REMARK                            x       y       z     vdW  Elec       q    Type
REMARK                         _______ _______ _______ _____ _____    ______ ____
ROOT
ATOM      1  N   UNL     1       4.396   4.218  19.031  0.00  0.00    +0.000 N 
ATOM      2  C   UNL     1       4.713   3.693  17.803  0.00  0.00    +0.000 C 
ATOM      3  O   UNL     1       4.061   2.803  17.255  0.00  0.00    +0.000 OA
ATOM      4  N   UNL     1       5.806   4.257  17.160  0.00  0.00    +0.000 N 
ATOM      5  C   UNL     1       6.063   3.863  15.767  0.00  0.00    +0.000 C 
ATOM      6  C   UNL     1       6.315   5.098  14.895  0.00  0.00    +0.000 C 
ATOM      7  O   UNL     1       7.360   5.920  15.437  0.00  0.00    +0.000 OA
ATOM      8  C   UNL     1       7.024   6.359  16.763  0.00  0.00    +0.000 C 
ATOM      9  C   UNL     1       6.828   5.169  17.723  0.00  0.00    +0.000 C 
ATOM     10  C   UNL     1       8.153   4.431  17.960  0.00  0.00    +0.000 C 
ATOM     11  H   UNL     1       4.800   5.105  19.289  0.00  0.00    +0.000 HD
ENDROOT
BRANCH   1  17
ATOM     12  C   UNL     1       2.135   4.629  19.824  0.00  0.00    +0.000 A 
ATOM     13  N   UNL     1       0.996   4.339  20.499  0.00  0.00    +0.000 NA
ATOM     14  C   UNL     1       1.027   3.244  21.286  0.00  0.00    +0.000 A 
ATOM     15  C   UNL     1       2.145   2.442  21.438  0.00  0.00    +0.000 A 
ATOM     16  C   UNL     1       3.293   2.750  20.708  0.00  0.00    +0.000 A 
ATOM     17  C   UNL     1       3.299   3.848  19.852  0.00  0.00    +0.000 A 
BRANCH  12  19
ATOM     18  C   UNL     1       2.222   6.957  19.841  0.00  0.00    +0.000 C 
ATOM     19  O   UNL     1       2.169   5.776  19.043  0.00  0.00    +0.000 OA
ENDBRANCH  12  19
ENDBRANCH   1  17
TORSDOF 2
ENDMDL
MODEL 7
REMARK VINA RESULT:      -6.5      1.962      6.058
REMARK  Name = 
REMARK  4 active torsions:
REMARK  status: ('A' for Active; 'I' for Inactive)
REMARK    1  A    between atoms: C_1  and  O_2
REMARK    2  A    between atoms: O_2  and  C_3
REMARK    3  A    between atoms: C_8  and  N_9
REMARK    4  A    between atoms: C_17  and  C_18
REMARK                            x       y       z     vdW  Elec       q    Type
REMARK                         _______ _______ _______ _____ _____    ______ ____
ROOT
ATOM      1  N   UNL     1       4.326   4.100  19.049  0.00  0.00    +0.000 N 
ATOM      2  C   UNL     1       4.648   3.601  17.812  0.00  0.00    +0.000 C 
ATOM      3  O   UNL     1       4.020   2.696  17.259  0.00  0.00    +0.000 OA
ATOM      4  N   UNL     1       5.714   4.209  17.165  0.00  0.00    +0.000 N 
ATOM      5  C   UNL     1       5.969   3.842  15.764  0.00  0.00    +0.000 C 
ATOM      6  C   UNL     1       6.170   5.095  14.905  0.00  0.00    +0.000 C 
ATOM      7  O   UNL     1       7.192   5.945  15.447  0.00  0.00    +0.000 OA
ATOM      8  C   UNL     1       6.855   6.356  16.782  0.00  0.00    +0.000 C 
ATOM      9  C   UNL     1       6.710   5.148  17.729  0.00  0.00    +0.000 C 
ATOM     10  C   UNL     1       8.062   4.453  17.943  0.00  0.00    +0.000 C 
ATOM     11  H   UNL     1       4.702   4.997  19.314  0.00  0.00    +0.000 HD
ENDROOT
BRANCH   1  17
ATOM     12  C   UNL     1       3.506   2.785  20.922  0.00  0.00    +0.000 A 
ATOM     13  N   UNL     1       2.583   2.374  21.828  0.00  0.00    +0.000 NA
ATOM     14  C   UNL     1       1.329   2.837  21.657  0.00  0.00    +0.000 A 
ATOM     15  C   UNL     1       0.955   3.674  20.621  0.00  0.00    +0.000 A 
ATOM     16  C   UNL     1       1.932   4.102  19.722  0.00  0.00    +0.000 A 
ATOM     17  C   UNL     1       3.251   3.683  19.877  0.00  0.00    +0.000 A 
BRANCH  12  19
ATOM     18  C   UNL     1       4.919   0.997  20.441  0.00  0.00    +0.000 C 
ATOM     19  O   UNL     1       4.800   2.293  21.024  0.00  0.00    +0.000 OA
ENDBRANCH  12  19
ENDBRANCH   1  17
TORSDOF 2
ENDMDL
MODEL 8
REMARK VINA RESULT:      -6.4      1.727      3.114
REMARK  Name = 
REMARK  4 active torsions:
REMARK  status: ('A' for Active; 'I' for Inactive)
REMARK    1  A    between atoms: C_1  and  O_2
REMARK    2  A    between atoms: O_2  and  C_3
REMARK    3  A    between atoms: C_8  and  N_9
REMARK    4  A    between atoms: C_17  and  C_18
REMARK                            x       y       z     vdW  Elec       q    Type
REMARK                         _______ _______ _______ _____ _____    ______ ____
ROOT
ATOM      1  N   UNL     1       4.644   5.298  18.755  0.00  0.00    +0.000 N 
ATOM      2  C   UNL     1       4.518   4.036  19.280  0.00  0.00    +0.000 C 
ATOM      3  O   UNL     1       5.478   3.303  19.525  0.00  0.00    +0.000 OA
ATOM      4  N   UNL     1       3.228   3.623  19.578  0.00  0.00    +0.000 N 
ATOM      5  C   UNL     1       3.063   2.364  20.319  0.00  0.00    +0.000 C 
ATOM      6  C   UNL     1       2.087   2.547  21.486  0.00  0.00    +0.000 C 
ATOM      7  O   UNL     1       0.836   3.095  21.044  0.00  0.00    +0.000 OA
ATOM      8  C   UNL     1       1.034   4.369  20.411  0.00  0.00    +0.000 C 
ATOM      9  C   UNL     1       1.950   4.252  19.175  0.00  0.00    +0.000 C 
ATOM     10  C   UNL     1       1.268   3.448  18.060  0.00  0.00    +0.000 C 
ATOM     11  H   UNL     1       3.860   5.927  18.833  0.00  0.00    +0.000 HD
ENDROOT
BRANCH   1  17
ATOM     12  C   UNL     1       5.946   6.632  17.194  0.00  0.00    +0.000 A 
ATOM     13  N   UNL     1       7.014   7.365  16.795  0.00  0.00    +0.000 NA
ATOM     14  C   UNL     1       8.070   7.392  17.633  0.00  0.00    +0.000 A 
ATOM     15  C   UNL     1       8.110   6.710  18.837  0.00  0.00    +0.000 A 
ATOM     16  C   UNL     1       6.985   5.988  19.233  0.00  0.00    +0.000 A 
ATOM     17  C   UNL     1       5.854   5.960  18.421  0.00  0.00    +0.000 A 
BRANCH  12  19
ATOM     18  C   UNL     1       5.157   5.745  15.190  0.00  0.00    +0.000 C 
ATOM     19  O   UNL     1       4.856   6.530  16.341  0.00  0.00    +0.000 OA
ENDBRANCH  12  19
ENDBRANCH   1  17
TORSDOF 2
ENDMDL
MODEL 9
REMARK VINA RESULT:      -6.2      2.234      5.951
REMARK  Name = 
REMARK  4 active torsions:
REMARK  status: ('A' for Active; 'I' for Inactive)
REMARK    1  A    between atoms: C_1  and  O_2
REMARK    2  A    between atoms: O_2  and  C_3
REMARK    3  A    between atoms: C_8  and  N_9
REMARK    4  A    between atoms: C_17  and  C_18
REMARK                            x       y       z     vdW  Elec       q    Type
REMARK                         _______ _______ _______ _____ _____    ______ ____
ROOT
ATOM      1  N   UNL     1       4.225   4.651  18.963  0.00  0.00    +0.000 N 
ATOM      2  C   UNL     1       4.499   5.604  18.015  0.00  0.00    +0.000 C 
ATOM      3  O   UNL     1       3.630   6.176  17.354  0.00  0.00    +0.000 OA
ATOM      4  N   UNL     1       5.835   5.946  17.859  0.00  0.00    +0.000 N 
ATOM      5  C   UNL     1       6.155   7.095  17.000  0.00  0.00    +0.000 C 
ATOM      6  C   UNL     1       7.144   8.034  17.700  0.00  0.00    +0.000 C 
ATOM      7  O   UNL     1       8.316   7.330  18.139  0.00  0.00    +0.000 OA
ATOM      8  C   UNL     1       7.964   6.277  19.050  0.00  0.00    +0.000 C 
ATOM      9  C   UNL     1       7.026   5.245  18.391  0.00  0.00    +0.000 C 
ATOM     10  C   UNL     1       7.752   4.474  17.281  0.00  0.00    +0.000 C 
ATOM     11  H   UNL     1       4.941   4.429  19.638  0.00  0.00    +0.000 HD
ENDROOT
BRANCH   1  17
ATOM     12  C   UNL     1       2.464   2.984  18.779  0.00  0.00    +0.000 A 
ATOM     13  N   UNL     1       1.294   2.388  19.116  0.00  0.00    +0.000 NA
ATOM     14  C   UNL     1       0.530   3.034  20.020  0.00  0.00    +0.000 A 
ATOM     15  C   UNL     1       0.876   4.249  20.587  0.00  0.00    +0.000 A 
ATOM     16  C   UNL     1       2.099   4.823  20.242  0.00  0.00    +0.000 A 
ATOM     17  C   UNL     1       2.942   4.177  19.341  0.00  0.00    +0.000 A 
BRANCH  12  19
ATOM     18  C   UNL     1       3.881   1.198  18.304  0.00  0.00    +0.000 C 
ATOM     19  O   UNL     1       3.260   2.384  17.813  0.00  0.00    +0.000 OA
ENDBRANCH  12  19
ENDBRANCH   1  17
TORSDOF 2
ENDMDL
