MODEL 1
REMARK VINA RESULT:      -8.3      0.000      0.000
REMARK  Name = 
REMARK  3 active torsions:
REMARK  status: ('A' for Active; 'I' for Inactive)
REMARK    1  A    between atoms: O_1  and  C_2
REMARK    2  A    between atoms: C_2  and  C_3
REMARK    3  A    between atoms: C_3  and  C_4
REMARK                            x       y       z     vdW  Elec       q    Type
REMARK                         _______ _______ _______ _____ _____    ______ ____
ROOT
ATOM      1  C   UNL     1       2.874   4.664  17.840  0.00  0.00    +0.000 C 
ATOM      2  C   UNL     1       2.534   6.103  18.227  0.00  0.00    +0.000 A 
ATOM      3  C   UNL     1       2.407   7.267  17.478  0.00  0.00    +0.000 A 
ATOM      4  C   UNL     1       2.034   8.457  18.132  0.00  0.00    +0.000 A 
ATOM      5  C   UNL     1       1.776   8.489  19.512  0.00  0.00    +0.000 A 
ATOM      6  C   UNL     1       1.889   7.323  20.263  0.00  0.00    +0.000 A 
ATOM      7  C   UNL     1       2.280   6.182  19.596  0.00  0.00    +0.000 A 
ATOM      8  C   UNL     1       2.452   4.852  20.145  0.00  0.00    +0.000 C 
ATOM      9  N   UNL     1       2.103   4.618  21.347  0.00  0.00    +0.000 NA
ATOM     10  C   UNL     1       2.203   3.264  21.842  0.00  0.00    +0.000 C 
ATOM     11  C   UNL     1       2.576   2.195  20.827  0.00  0.00    +0.000 C 
ATOM     12  C   UNL     1       2.735   2.594  19.355  0.00  0.00    +0.000 C 
ATOM     13  N   UNL     1       2.946   4.015  19.178  0.00  0.00    +0.000 N 
ENDROOT
BRANCH   1  14
ATOM     14  O   UNL     1       1.775   4.147  17.103  0.00  0.00    +0.000 OA
ATOM     15  H   UNL     1       2.032   3.265  16.795  0.00  0.00    +0.000 HD
ENDBRANCH   1  14
BRANCH   1  16
ATOM     16  C   UNL     1       4.188   4.612  17.006  0.00  0.00    +0.000 C 
BRANCH  16  17
ATOM     17  C   UNL     1       5.357   5.424  17.538  0.00  0.00    +0.000 A 
ATOM     18  C   UNL     1       5.810   6.573  16.866  0.00  0.00    +0.000 A 
ATOM     19  C   UNL     1       6.959   7.241  17.298  0.00  0.00    +0.000 A 
ATOM     20  C   UNL     1       7.648   6.769  18.408  0.00  0.00    +0.000 A 
ATOM     21  F   UNL     1       8.782   7.372  18.787  0.00  0.00    +0.000 F 
ATOM     22  C   UNL     1       7.180   5.676  19.124  0.00  0.00    +0.000 A 
ATOM     23  C   UNL     1       6.025   5.015  18.701  0.00  0.00    +0.000 A 
ENDBRANCH  16  17
ENDBRANCH   1  16
TORSDOF 3
ENDMDL
MODEL 2
REMARK VINA RESULT:      -8.2      0.283      1.061
REMARK  Name = 
REMARK  3 active torsions:
REMARK  status: ('A' for Active; 'I' for Inactive)
REMARK    1  A    between atoms: O_1  and  C_2
REMARK    2  A    between atoms: C_2  and  C_3
REMARK    3  A    between atoms: C_3  and  C_4
REMARK                            x       y       z     vdW  Elec       q    Type
REMARK                         _______ _______ _______ _____ _____    ______ ____
ROOT
ATOM      1  C   UNL     1       2.774   4.493  17.816  0.00  0.00    +0.000 C 
ATOM      2  C   UNL     1       2.544   5.966  18.149  0.00  0.00    +0.000 A 
ATOM      3  C   UNL     1       2.463   7.103  17.354  0.00  0.00    +0.000 A 
ATOM      4  C   UNL     1       2.195   8.341  17.968  0.00  0.00    +0.000 A 
ATOM      5  C   UNL     1       1.994   8.449  19.354  0.00  0.00    +0.000 A 
ATOM      6  C   UNL     1       2.061   7.310  20.152  0.00  0.00    +0.000 A 
ATOM      7  C   UNL     1       2.350   6.119  19.522  0.00  0.00    +0.000 A 
ATOM      8  C   UNL     1       2.457   4.805  20.123  0.00  0.00    +0.000 C 
ATOM      9  N   UNL     1       2.142   4.646  21.347  0.00  0.00    +0.000 NA
ATOM     10  C   UNL     1       2.173   3.311  21.898  0.00  0.00    +0.000 C 
ATOM     11  C   UNL     1       2.435   2.176  20.918  0.00  0.00    +0.000 C 
ATOM     12  C   UNL     1       2.561   2.502  19.425  0.00  0.00    +0.000 C 
ATOM     13  N   UNL     1       2.856   3.897  19.177  0.00  0.00    +0.000 N 
ENDROOT
BRANCH   1  14
ATOM     14  O   UNL     1       1.615   4.019  17.143  0.00  0.00    +0.000 OA
ATOM     15  H   UNL     1       1.887   3.248  16.623  0.00  0.00    +0.000 HD
ENDBRANCH   1  14
BRANCH   1  16
ATOM     16  C   UNL     1       4.048   4.317  16.937  0.00  0.00    +0.000 C 
BRANCH  16  17
ATOM     17  C   UNL     1       5.301   5.030  17.416  0.00  0.00    +0.000 A 
ATOM     18  C   UNL     1       5.876   4.730  18.664  0.00  0.00    +0.000 A 
ATOM     19  C   UNL     1       6.956   5.475  19.145  0.00  0.00    +0.000 A 
ATOM     20  C   UNL     1       7.471   6.510  18.375  0.00  0.00    +0.000 A 
ATOM     21  F   UNL     1       8.467   7.262  18.859  0.00  0.00    +0.000 F 
ATOM     22  C   UNL     1       6.960   6.778  17.112  0.00  0.00    +0.000 A 
ATOM     23  C   UNL     1       5.889   6.026  16.625  0.00  0.00    +0.000 A 
ENDBRANCH  16  17
ENDBRANCH   1  16
TORSDOF 3
ENDMDL
MODEL 3
REMARK VINA RESULT:      -7.4      3.250      6.108
REMARK  Name = 
REMARK  3 active torsions:
REMARK  status: ('A' for Active; 'I' for Inactive)
REMARK    1  A    between atoms: O_1  and  C_2
REMARK    2  A    between atoms: C_2  and  C_3
REMARK    3  A    between atoms: C_3  and  C_4
REMARK                            x       y       z     vdW  Elec       q    Type
REMARK                         _______ _______ _______ _____ _____    ______ ____
ROOT
ATOM      1  C   UNL     1       4.701   4.033  16.739  0.00  0.00    +0.000 C 
ATOM      2  C   UNL     1       5.637   4.728  17.726  0.00  0.00    +0.000 A 
ATOM      3  C   UNL     1       5.599   4.872  19.109  0.00  0.00    +0.000 A 
ATOM      4  C   UNL     1       6.655   5.547  19.750  0.00  0.00    +0.000 A 
ATOM      5  C   UNL     1       7.746   6.062  19.030  0.00  0.00    +0.000 A 
ATOM      6  C   UNL     1       7.794   5.909  17.647  0.00  0.00    +0.000 A 
ATOM      7  C   UNL     1       6.732   5.265  17.049  0.00  0.00    +0.000 A 
ATOM      8  C   UNL     1       6.558   4.968  15.642  0.00  0.00    +0.000 C 
ATOM      9  N   UNL     1       7.511   5.195  14.828  0.00  0.00    +0.000 NA
ATOM     10  C   UNL     1       7.344   4.809  13.446  0.00  0.00    +0.000 C 
ATOM     11  C   UNL     1       6.088   4.019  13.108  0.00  0.00    +0.000 C 
ATOM     12  C   UNL     1       5.141   3.612  14.244  0.00  0.00    +0.000 C 
ATOM     13  N   UNL     1       5.324   4.406  15.439  0.00  0.00    +0.000 N 
ENDROOT
BRANCH   1  14
ATOM     14  O   UNL     1       4.815   2.633  16.953  0.00  0.00    +0.000 OA
ATOM     15  H   UNL     1       5.666   2.359  16.577  0.00  0.00    +0.000 HD
ENDBRANCH   1  14
BRANCH   1  16
ATOM     16  C   UNL     1       3.234   4.517  16.935  0.00  0.00    +0.000 C 
BRANCH  16  17
ATOM     17  C   UNL     1       2.522   4.022  18.182  0.00  0.00    +0.000 A 
ATOM     18  C   UNL     1       2.216   4.896  19.240  0.00  0.00    +0.000 A 
ATOM     19  C   UNL     1       1.670   4.406  20.430  0.00  0.00    +0.000 A 
ATOM     20  C   UNL     1       1.417   3.046  20.557  0.00  0.00    +0.000 A 
ATOM     21  F   UNL     1       0.950   2.567  21.718  0.00  0.00    +0.000 F 
ATOM     22  C   UNL     1       1.649   2.177  19.500  0.00  0.00    +0.000 A 
ATOM     23  C   UNL     1       2.183   2.667  18.307  0.00  0.00    +0.000 A 
ENDBRANCH  16  17
ENDBRANCH   1  16
TORSDOF 3
ENDMDL
MODEL 4
REMARK VINA RESULT:      -7.4      3.182      5.399
REMARK  Name = 
REMARK  3 active torsions:
REMARK  status: ('A' for Active; 'I' for Inactive)
REMARK    1  A    between atoms: O_1  and  C_2
REMARK    2  A    between atoms: C_2  and  C_3
REMARK    3  A    between atoms: C_3  and  C_4
REMARK                            x       y       z     vdW  Elec       q    Type
REMARK                         _______ _______ _______ _____ _____    ______ ____
ROOT
ATOM      1  C   UNL     1       5.551   4.831  18.961  0.00  0.00    +0.000 C 
ATOM      2  C   UNL     1       4.341   5.763  18.926  0.00  0.00    +0.000 A 
ATOM      3  C   UNL     1       3.455   6.183  19.911  0.00  0.00    +0.000 A 
ATOM      4  C   UNL     1       2.443   7.100  19.567  0.00  0.00    +0.000 A 
ATOM      5  C   UNL     1       2.320   7.607  18.263  0.00  0.00    +0.000 A 
ATOM      6  C   UNL     1       3.214   7.199  17.277  0.00  0.00    +0.000 A 
ATOM      7  C   UNL     1       4.176   6.282  17.642  0.00  0.00    +0.000 A 
ATOM      8  C   UNL     1       5.222   5.721  16.811  0.00  0.00    +0.000 C 
ATOM      9  N   UNL     1       5.402   6.174  15.635  0.00  0.00    +0.000 NA
ATOM     10  C   UNL     1       6.507   5.659  14.859  0.00  0.00    +0.000 C 
ATOM     11  C   UNL     1       7.463   4.719  15.579  0.00  0.00    +0.000 C 
ATOM     12  C   UNL     1       7.251   4.450  17.074  0.00  0.00    +0.000 C 
ATOM     13  N   UNL     1       5.912   4.771  17.518  0.00  0.00    +0.000 N 
ENDROOT
BRANCH   1  14
ATOM     14  O   UNL     1       6.576   5.487  19.696  0.00  0.00    +0.000 OA
ATOM     15  H   UNL     1       6.864   6.244  19.163  0.00  0.00    +0.000 HD
ENDBRANCH   1  14
BRANCH   1  16
ATOM     16  C   UNL     1       5.178   3.465  19.610  0.00  0.00    +0.000 C 
BRANCH  16  17
ATOM     17  C   UNL     1       3.781   2.942  19.323  0.00  0.00    +0.000 A 
ATOM     18  C   UNL     1       3.392   2.581  18.021  0.00  0.00    +0.000 A 
ATOM     19  C   UNL     1       2.070   2.217  17.750  0.00  0.00    +0.000 A 
ATOM     20  C   UNL     1       1.140   2.199  18.782  0.00  0.00    +0.000 A 
ATOM     21  F   UNL     1      -0.139   1.907  18.514  0.00  0.00    +0.000 F 
ATOM     22  C   UNL     1       1.520   2.486  20.086  0.00  0.00    +0.000 A 
ATOM     23  C   UNL     1       2.843   2.839  20.360  0.00  0.00    +0.000 A 
ENDBRANCH  16  17
ENDBRANCH   1  16
TORSDOF 3
ENDMDL
MODEL 5
REMARK VINA RESULT:      -7.4      3.597      5.048
REMARK  Name = 
REMARK  3 active torsions:
REMARK  status: ('A' for Active; 'I' for Inactive)
REMARK    1  A    between atoms: O_1  and  C_2
REMARK    2  A    between atoms: C_2  and  C_3
REMARK    3  A    between atoms: C_3  and  C_4
REMARK                            x       y       z     vdW  Elec       q    Type
REMARK                         _______ _______ _______ _____ _____    ______ ____
ROOT
ATOM      1  C   UNL     1       5.096   4.211  16.498  0.00  0.00    +0.000 C 
ATOM      2  C   UNL     1       3.824   4.146  17.341  0.00  0.00    +0.000 A 
ATOM      3  C   UNL     1       2.537   3.704  17.059  0.00  0.00    +0.000 A 
ATOM      4  C   UNL     1       1.570   3.734  18.083  0.00  0.00    +0.000 A 
ATOM      5  C   UNL     1       1.881   4.183  19.377  0.00  0.00    +0.000 A 
ATOM      6  C   UNL     1       3.172   4.614  19.667  0.00  0.00    +0.000 A 
ATOM      7  C   UNL     1       4.087   4.595  18.636  0.00  0.00    +0.000 A 
ATOM      8  C   UNL     1       5.484   4.973  18.687  0.00  0.00    +0.000 C 
ATOM      9  N   UNL     1       6.020   5.249  19.808  0.00  0.00    +0.000 NA
ATOM     10  C   UNL     1       7.436   5.536  19.844  0.00  0.00    +0.000 C 
ATOM     11  C   UNL     1       8.203   5.335  18.545  0.00  0.00    +0.000 C 
ATOM     12  C   UNL     1       7.462   4.767  17.328  0.00  0.00    +0.000 C 
ATOM     13  N   UNL     1       6.026   4.907  17.429  0.00  0.00    +0.000 N 
ENDROOT
BRANCH   1  14
ATOM     14  O   UNL     1       5.532   2.877  16.276  0.00  0.00    +0.000 OA
ATOM     15  H   UNL     1       4.788   2.297  16.496  0.00  0.00    +0.000 HD
ENDBRANCH   1  14
BRANCH   1  16
ATOM     16  C   UNL     1       4.830   4.949  15.152  0.00  0.00    +0.000 C 
BRANCH  16  17
ATOM     17  C   UNL     1       5.558   4.410  13.932  0.00  0.00    +0.000 A 
ATOM     18  C   UNL     1       4.931   3.513  13.048  0.00  0.00    +0.000 A 
ATOM     19  C   UNL     1       5.649   2.933  11.999  0.00  0.00    +0.000 A 
ATOM     20  C   UNL     1       6.988   3.257  11.825  0.00  0.00    +0.000 A 
ATOM     21  F   UNL     1       7.694   2.657  10.857  0.00  0.00    +0.000 F 
ATOM     22  C   UNL     1       7.607   4.191  12.645  0.00  0.00    +0.000 A 
ATOM     23  C   UNL     1       6.887   4.781  13.686  0.00  0.00    +0.000 A 
ENDBRANCH  16  17
ENDBRANCH   1  16
TORSDOF 3
ENDMDL
MODEL 6
REMARK VINA RESULT:      -7.3      3.342      6.219
REMARK  Name = 
REMARK  3 active torsions:
REMARK  status: ('A' for Active; 'I' for Inactive)
REMARK    1  A    between atoms: O_1  and  C_2
REMARK    2  A    between atoms: C_2  and  C_3
REMARK    3  A    between atoms: C_3  and  C_4
REMARK                            x       y       z     vdW  Elec       q    Type
REMARK                         _______ _______ _______ _____ _____    ______ ____
ROOT
ATOM      1  C   UNL     1       4.906   3.937  16.525  0.00  0.00    +0.000 C 
ATOM      2  C   UNL     1       5.764   4.704  17.530  0.00  0.00    +0.000 A 
ATOM      3  C   UNL     1       5.702   4.825  18.914  0.00  0.00    +0.000 A 
ATOM      4  C   UNL     1       6.684   5.588  19.573  0.00  0.00    +0.000 A 
ATOM      5  C   UNL     1       7.728   6.213  18.870  0.00  0.00    +0.000 A 
ATOM      6  C   UNL     1       7.801   6.083  17.485  0.00  0.00    +0.000 A 
ATOM      7  C   UNL     1       6.810   5.350  16.870  0.00  0.00    +0.000 A 
ATOM      8  C   UNL     1       6.675   5.057  15.457  0.00  0.00    +0.000 C 
ATOM      9  N   UNL     1       7.609   5.384  14.656  0.00  0.00    +0.000 NA
ATOM     10  C   UNL     1       7.490   5.002  13.267  0.00  0.00    +0.000 C 
ATOM     11  C   UNL     1       6.317   4.101  12.907  0.00  0.00    +0.000 C 
ATOM     12  C   UNL     1       5.404   3.592  14.029  0.00  0.00    +0.000 C 
ATOM     13  N   UNL     1       5.501   4.384  15.236  0.00  0.00    +0.000 N 
ENDROOT
BRANCH   1  14
ATOM     14  O   UNL     1       5.150   2.551  16.723  0.00  0.00    +0.000 OA
ATOM     15  H   UNL     1       6.049   2.471  17.075  0.00  0.00    +0.000 HD
ENDBRANCH   1  14
BRANCH   1  16
ATOM     16  C   UNL     1       3.398   4.278  16.714  0.00  0.00    +0.000 C 
BRANCH  16  17
ATOM     17  C   UNL     1       2.769   3.850  18.029  0.00  0.00    +0.000 A 
ATOM     18  C   UNL     1       2.649   2.492  18.370  0.00  0.00    +0.000 A 
ATOM     19  C   UNL     1       1.962   2.108  19.525  0.00  0.00    +0.000 A 
ATOM     20  C   UNL     1       1.407   3.081  20.346  0.00  0.00    +0.000 A 
ATOM     21  F   UNL     1       0.697   2.714  21.421  0.00  0.00    +0.000 F 
ATOM     22  C   UNL     1       1.572   4.430  20.062  0.00  0.00    +0.000 A 
ATOM     23  C   UNL     1       2.269   4.815  18.915  0.00  0.00    +0.000 A 
ENDBRANCH  16  17
ENDBRANCH   1  16
TORSDOF 3
ENDMDL
MODEL 7
REMARK VINA RESULT:      -7.3      2.826      5.189
REMARK  Name = 
REMARK  3 active torsions:
REMARK  status: ('A' for Active; 'I' for Inactive)
REMARK    1  A    between atoms: O_1  and  C_2
REMARK    2  A    between atoms: C_2  and  C_3
REMARK    3  A    between atoms: C_3  and  C_4
REMARK                            x       y       z     vdW  Elec       q    Type
REMARK                         _______ _______ _______ _____ _____    ______ ____
ROOT
ATOM      1  C   UNL     1       2.881   6.150  18.646  0.00  0.00    +0.000 C 
ATOM      2  C   UNL     1       3.920   5.822  17.575  0.00  0.00    +0.000 A 
ATOM      3  C   UNL     1       4.883   6.596  16.938  0.00  0.00    +0.000 A 
ATOM      4  C   UNL     1       5.739   5.981  16.004  0.00  0.00    +0.000 A 
ATOM      5  C   UNL     1       5.651   4.609  15.716  0.00  0.00    +0.000 A 
ATOM      6  C   UNL     1       4.697   3.828  16.362  0.00  0.00    +0.000 A 
ATOM      7  C   UNL     1       3.860   4.466  17.251  0.00  0.00    +0.000 A 
ATOM      8  C   UNL     1       2.808   3.876  18.054  0.00  0.00    +0.000 C 
ATOM      9  N   UNL     1       2.669   2.611  18.077  0.00  0.00    +0.000 NA
ATOM     10  C   UNL     1       1.670   2.043  18.953  0.00  0.00    +0.000 C 
ATOM     11  C   UNL     1       0.965   3.007  19.896  0.00  0.00    +0.000 C 
ATOM     12  C   UNL     1       1.409   4.475  19.922  0.00  0.00    +0.000 C 
ATOM     13  N   UNL     1       2.140   4.862  18.734  0.00  0.00    +0.000 N 
ENDROOT
BRANCH   1  14
ATOM     14  O   UNL     1       3.578   6.398  19.859  0.00  0.00    +0.000 OA
ATOM     15  H   UNL     1       2.931   6.748  20.490  0.00  0.00    +0.000 HD
ENDBRANCH   1  14
BRANCH   1  16
ATOM     16  C   UNL     1       2.024   7.381  18.226  0.00  0.00    +0.000 C 
BRANCH  16  17
ATOM     17  C   UNL     1       1.614   8.329  19.339  0.00  0.00    +0.000 A 
ATOM     18  C   UNL     1       1.485   7.881  20.666  0.00  0.00    +0.000 A 
ATOM     19  C   UNL     1       0.992   8.733  21.658  0.00  0.00    +0.000 A 
ATOM     20  C   UNL     1       0.641  10.035  21.329  0.00  0.00    +0.000 A 
ATOM     21  F   UNL     1       0.113  10.835  22.265  0.00  0.00    +0.000 F 
ATOM     22  C   UNL     1       0.825  10.517  20.040  0.00  0.00    +0.000 A 
ATOM     23  C   UNL     1       1.329   9.671  19.051  0.00  0.00    +0.000 A 
ENDBRANCH  16  17
ENDBRANCH   1  16
TORSDOF 3
ENDMDL
MODEL 8
REMARK VINA RESULT:      -7.3      3.496      6.000
REMARK  Name = 
REMARK  3 active torsions:
REMARK  status: ('A' for Active; 'I' for Inactive)
REMARK    1  A    between atoms: O_1  and  C_2
REMARK    2  A    between atoms: C_2  and  C_3
REMARK    3  A    between atoms: C_3  and  C_4
REMARK                            x       y       z     vdW  Elec       q    Type
REMARK                         _______ _______ _______ _____ _____    ______ ____
ROOT
ATOM      1  C   UNL     1       4.612   4.101  17.065  0.00  0.00    +0.000 C 
ATOM      2  C   UNL     1       5.237   4.110  15.671  0.00  0.00    +0.000 A 
ATOM      3  C   UNL     1       4.743   3.751  14.422  0.00  0.00    +0.000 A 
ATOM      4  C   UNL     1       5.568   3.916  13.293  0.00  0.00    +0.000 A 
ATOM      5  C   UNL     1       6.865   4.446  13.399  0.00  0.00    +0.000 A 
ATOM      6  C   UNL     1       7.358   4.819  14.646  0.00  0.00    +0.000 A 
ATOM      7  C   UNL     1       6.534   4.621  15.732  0.00  0.00    +0.000 A 
ATOM      8  C   UNL     1       6.807   4.941  17.118  0.00  0.00    +0.000 C 
ATOM      9  N   UNL     1       7.861   5.589  17.419  0.00  0.00    +0.000 NA
ATOM     10  C   UNL     1       8.066   5.972  18.797  0.00  0.00    +0.000 C 
ATOM     11  C   UNL     1       6.918   5.695  19.757  0.00  0.00    +0.000 C 
ATOM     12  C   UNL     1       5.609   5.122  19.201  0.00  0.00    +0.000 C 
ATOM     13  N   UNL     1       5.775   4.499  17.905  0.00  0.00    +0.000 N 
ENDROOT
BRANCH   1  14
ATOM     14  O   UNL     1       3.617   5.115  17.095  0.00  0.00    +0.000 OA
ATOM     15  H   UNL     1       4.063   5.941  17.339  0.00  0.00    +0.000 HD
ENDBRANCH   1  14
BRANCH   1  16
ATOM     16  C   UNL     1       4.005   2.704  17.389  0.00  0.00    +0.000 C 
BRANCH  16  17
ATOM     17  C   UNL     1       3.126   2.622  18.626  0.00  0.00    +0.000 A 
ATOM     18  C   UNL     1       1.731   2.770  18.537  0.00  0.00    +0.000 A 
ATOM     19  C   UNL     1       0.947   2.812  19.694  0.00  0.00    +0.000 A 
ATOM     20  C   UNL     1       1.555   2.693  20.937  0.00  0.00    +0.000 A 
ATOM     21  F   UNL     1       0.813   2.793  22.048  0.00  0.00    +0.000 F 
ATOM     22  C   UNL     1       2.922   2.479  21.042  0.00  0.00    +0.000 A 
ATOM     23  C   UNL     1       3.705   2.424  19.887  0.00  0.00    +0.000 A 
ENDBRANCH  16  17
ENDBRANCH   1  16
TORSDOF 3
ENDMDL
MODEL 9
REMARK VINA RESULT:      -7.2      2.493      4.248
REMARK  Name = 
REMARK  3 active torsions:
REMARK  status: ('A' for Active; 'I' for Inactive)
REMARK    1  A    between atoms: O_1  and  C_2
REMARK    2  A    between atoms: C_2  and  C_3
REMARK    3  A    between atoms: C_3  and  C_4
REMARK                            x       y       z     vdW  Elec       q    Type
REMARK                         _______ _______ _______ _____ _____    ______ ____
ROOT
ATOM      1  C   UNL     1       4.499   4.500  18.600  0.00  0.00    +0.000 C 
ATOM      2  C   UNL     1       3.540   3.889  19.621  0.00  0.00    +0.000 A 
ATOM      3  C   UNL     1       3.583   2.709  20.355  0.00  0.00    +0.000 A 
ATOM      4  C   UNL     1       2.544   2.439  21.266  0.00  0.00    +0.000 A 
ATOM      5  C   UNL     1       1.481   3.337  21.459  0.00  0.00    +0.000 A 
ATOM      6  C   UNL     1       1.441   4.525  20.735  0.00  0.00    +0.000 A 
ATOM      7  C   UNL     1       2.460   4.746  19.834  0.00  0.00    +0.000 A 
ATOM      8  C   UNL     1       2.653   5.903  18.983  0.00  0.00    +0.000 C 
ATOM      9  N   UNL     1       1.896   6.917  19.120  0.00  0.00    +0.000 NA
ATOM     10  C   UNL     1       2.164   8.091  18.321  0.00  0.00    +0.000 C 
ATOM     11  C   UNL     1       3.434   8.067  17.483  0.00  0.00    +0.000 C 
ATOM     12  C   UNL     1       4.377   6.863  17.601  0.00  0.00    +0.000 C 
ATOM     13  N   UNL     1       3.729   5.696  18.160  0.00  0.00    +0.000 N 
ENDROOT
BRANCH   1  14
ATOM     14  O   UNL     1       5.670   4.901  19.299  0.00  0.00    +0.000 OA
ATOM     15  H   UNL     1       5.638   4.476  20.169  0.00  0.00    +0.000 HD
ENDBRANCH   1  14
BRANCH   1  16
ATOM     16  C   UNL     1       4.836   3.476  17.476  0.00  0.00    +0.000 C 
BRANCH  16  17
ATOM     17  C   UNL     1       5.554   4.027  16.256  0.00  0.00    +0.000 A 
ATOM     18  C   UNL     1       4.957   3.994  14.983  0.00  0.00    +0.000 A 
ATOM     19  C   UNL     1       5.674   4.392  13.852  0.00  0.00    +0.000 A 
ATOM     20  C   UNL     1       6.983   4.836  13.993  0.00  0.00    +0.000 A 
ATOM     21  F   UNL     1       7.692   5.161  12.904  0.00  0.00    +0.000 F 
ATOM     22  C   UNL     1       7.568   4.939  15.248  0.00  0.00    +0.000 A 
ATOM     23  C   UNL     1       6.848   4.553  16.380  0.00  0.00    +0.000 A 
ENDBRANCH  16  17
ENDBRANCH   1  16
TORSDOF 3
ENDMDL
