MODEL 1
REMARK VINA RESULT:      -9.9      0.000      0.000
REMARK  Name = 
REMARK  3 active torsions:
REMARK  status: ('A' for Active; 'I' for Inactive)
REMARK    1  A    between atoms: N_3  and  C_4
REMARK    2  A    between atoms: N_10  and  C_11
REMARK    3  A    between atoms: C_13  and  C_14
REMARK                            x       y       z     vdW  Elec       q    Type
REMARK                         _______ _______ _______ _____ _____    ______ ____
ROOT
ATOM      1  C   UNL     1       4.131   3.700  18.207  0.00  0.00    +0.000 A 
ATOM      2  N   UNL     1       3.508   4.416  17.243  0.00  0.00    +0.000 NA
ATOM      3  C   UNL     1       2.353   4.940  17.642  0.00  0.00    +0.000 A 
ATOM      4  C   UNL     1       1.483   3.982  18.088  0.00  0.00    +0.000 A 
ATOM      5  C   UNL     1       1.958   3.426  19.251  0.00  0.00    +0.000 A 
ATOM      6  C   UNL     1       1.047   3.346  20.321  0.00  0.00    +0.000 A 
ATOM      7  C   UNL     1       1.437   2.807  21.532  0.00  0.00    +0.000 A 
ATOM      8  C   UNL     1       2.713   2.282  21.631  0.00  0.00    +0.000 A 
ATOM      9  C   UNL     1       3.668   2.454  20.593  0.00  0.00    +0.000 A 
ATOM     10  C   UNL     1       3.349   3.154  19.357  0.00  0.00    +0.000 A 
ENDROOT
BRANCH   1  14
ATOM     11  O   UNL     1       7.088   5.318  17.240  0.00  0.00    +0.000 OA
ATOM     12  C   UNL     1       6.220   4.455  17.060  0.00  0.00    +0.000 C 
ATOM     13  N   UNL     1       5.911   3.909  15.814  0.00  0.00    +0.000 N 
ATOM     14  N   UNL     1       5.552   3.892  18.162  0.00  0.00    +0.000 N 
ATOM     15  H   UNL     1       5.136   3.271  15.871  0.00  0.00    +0.000 HD
ATOM     16  H   UNL     1       5.905   4.253  19.039  0.00  0.00    +0.000 HD
BRANCH  13  17
ATOM     17  C   UNL     1       6.422   4.152  14.524  0.00  0.00    +0.000 A 
ATOM     18  C   UNL     1       7.388   5.115  14.174  0.00  0.00    +0.000 A 
ATOM     19  C   UNL     1       7.814   5.255  12.841  0.00  0.00    +0.000 A 
ATOM     20  C   UNL     1       7.295   4.438  11.831  0.00  0.00    +0.000 A 
ATOM     21  C   UNL     1       6.341   3.507  12.147  0.00  0.00    +0.000 A 
ATOM     22  C   UNL     1       5.886   3.373  13.477  0.00  0.00    +0.000 A 
ENDBRANCH  13  17
ENDBRANCH   1  14
BRANCH   3  23
ATOM     23  C   UNL     1       2.452   6.155  18.553  0.00  0.00    +0.000 A 
ATOM     24  C   UNL     1       2.477   7.429  18.003  0.00  0.00    +0.000 A 
ATOM     25  C   UNL     1       2.092   8.504  18.798  0.00  0.00    +0.000 A 
ATOM     26  C   UNL     1       1.663   8.289  20.104  0.00  0.00    +0.000 A 
ATOM     27  C   UNL     1       1.705   7.004  20.595  0.00  0.00    +0.000 A 
ATOM     28  N   UNL     1       2.115   5.950  19.866  0.00  0.00    +0.000 NA
ENDBRANCH   3  23
TORSDOF 3
ENDMDL
MODEL 2
REMARK VINA RESULT:      -9.8      2.400      7.366
REMARK  Name = 
REMARK  3 active torsions:
REMARK  status: ('A' for Active; 'I' for Inactive)
REMARK    1  A    between atoms: N_3  and  C_4
REMARK    2  A    between atoms: N_10  and  C_11
REMARK    3  A    between atoms: C_13  and  C_14
REMARK                            x       y       z     vdW  Elec       q    Type
REMARK                         _______ _______ _______ _____ _____    ______ ____
ROOT
ATOM      1  C   UNL     1       3.135   6.274  18.570  0.00  0.00    +0.000 A 
ATOM      2  N   UNL     1       4.446   6.590  18.676  0.00  0.00    +0.000 NA
ATOM      3  C   UNL     1       5.253   5.554  18.470  0.00  0.00    +0.000 A 
ATOM      4  C   UNL     1       4.995   4.525  19.333  0.00  0.00    +0.000 A 
ATOM      5  C   UNL     1       3.763   3.982  19.055  0.00  0.00    +0.000 A 
ATOM      6  C   UNL     1       3.714   2.581  18.928  0.00  0.00    +0.000 A 
ATOM      7  C   UNL     1       2.519   1.948  18.644  0.00  0.00    +0.000 A 
ATOM      8  C   UNL     1       1.373   2.720  18.570  0.00  0.00    +0.000 A 
ATOM      9  C   UNL     1       1.433   4.139  18.592  0.00  0.00    +0.000 A 
ATOM     10  C   UNL     1       2.691   4.858  18.734  0.00  0.00    +0.000 A 
ENDROOT
BRANCH   1  14
ATOM     11  O   UNL     1       2.100   9.593  18.104  0.00  0.00    +0.000 OA
ATOM     12  C   UNL     1       1.951   8.477  18.618  0.00  0.00    +0.000 C 
ATOM     13  N   UNL     1       1.269   8.254  19.814  0.00  0.00    +0.000 N 
ATOM     14  N   UNL     1       2.395   7.328  17.937  0.00  0.00    +0.000 N 
ATOM     15  H   UNL     1       1.315   7.288  20.092  0.00  0.00    +0.000 HD
ATOM     16  H   UNL     1       2.777   7.556  17.028  0.00  0.00    +0.000 HD
BRANCH  13  17
ATOM     17  C   UNL     1       0.625   9.128  20.711  0.00  0.00    +0.000 A 
ATOM     18  C   UNL     1      -0.066  10.309  20.377  0.00  0.00    +0.000 A 
ATOM     19  C   UNL     1      -0.669  11.096  21.376  0.00  0.00    +0.000 A 
ATOM     20  C   UNL     1      -0.602  10.722  22.723  0.00  0.00    +0.000 A 
ATOM     21  C   UNL     1       0.081   9.586  23.070  0.00  0.00    +0.000 A 
ATOM     22  C   UNL     1       0.712   8.801  22.080  0.00  0.00    +0.000 A 
ENDBRANCH  13  17
ENDBRANCH   1  14
BRANCH   3  23
ATOM     23  C   UNL     1       5.421   5.118  17.022  0.00  0.00    +0.000 A 
ATOM     24  C   UNL     1       5.056   5.980  15.996  0.00  0.00    +0.000 A 
ATOM     25  C   UNL     1       5.631   5.800  14.742  0.00  0.00    +0.000 A 
ATOM     26  C   UNL     1       6.572   4.795  14.541  0.00  0.00    +0.000 A 
ATOM     27  C   UNL     1       6.852   3.953  15.592  0.00  0.00    +0.000 A 
ATOM     28  N   UNL     1       6.281   4.073  16.805  0.00  0.00    +0.000 NA
ENDBRANCH   3  23
TORSDOF 3
ENDMDL
MODEL 3
REMARK VINA RESULT:      -9.6      2.446      7.356
REMARK  Name = 
REMARK  3 active torsions:
REMARK  status: ('A' for Active; 'I' for Inactive)
REMARK    1  A    between atoms: N_3  and  C_4
REMARK    2  A    between atoms: N_10  and  C_11
REMARK    3  A    between atoms: C_13  and  C_14
REMARK                            x       y       z     vdW  Elec       q    Type
REMARK                         _______ _______ _______ _____ _____    ______ ____
ROOT
ATOM      1  C   UNL     1       3.271   6.274  18.477  0.00  0.00    +0.000 A 
ATOM      2  N   UNL     1       4.488   6.708  18.880  0.00  0.00    +0.000 NA
ATOM      3  C   UNL     1       5.446   5.800  18.725  0.00  0.00    +0.000 A 
ATOM      4  C   UNL     1       5.166   4.641  19.395  0.00  0.00    +0.000 A 
ATOM      5  C   UNL     1       4.089   4.015  18.814  0.00  0.00    +0.000 A 
ATOM      6  C   UNL     1       4.246   2.648  18.521  0.00  0.00    +0.000 A 
ATOM      7  C   UNL     1       3.217   1.938  17.931  0.00  0.00    +0.000 A 
ATOM      8  C   UNL     1       2.015   2.589  17.716  0.00  0.00    +0.000 A 
ATOM      9  C   UNL     1       1.886   3.990  17.912  0.00  0.00    +0.000 A 
ATOM     10  C   UNL     1       2.991   4.810  18.385  0.00  0.00    +0.000 A 
ENDROOT
BRANCH   1  14
ATOM     11  O   UNL     1       2.236   9.588  17.977  0.00  0.00    +0.000 OA
ATOM     12  C   UNL     1       2.086   8.476  18.501  0.00  0.00    +0.000 C 
ATOM     13  N   UNL     1       1.401   8.264  19.697  0.00  0.00    +0.000 N 
ATOM     14  N   UNL     1       2.532   7.322  17.832  0.00  0.00    +0.000 N 
ATOM     15  H   UNL     1       1.447   7.302  19.984  0.00  0.00    +0.000 HD
ATOM     16  H   UNL     1       2.917   7.541  16.922  0.00  0.00    +0.000 HD
BRANCH  13  17
ATOM     17  C   UNL     1       0.754   9.147  20.584  0.00  0.00    +0.000 A 
ATOM     18  C   UNL     1       0.119  10.357  20.245  0.00  0.00    +0.000 A 
ATOM     19  C   UNL     1      -0.494  11.149  21.233  0.00  0.00    +0.000 A 
ATOM     20  C   UNL     1      -0.494  10.751  22.575  0.00  0.00    +0.000 A 
ATOM     21  C   UNL     1       0.134   9.585  22.927  0.00  0.00    +0.000 A 
ATOM     22  C   UNL     1       0.775   8.794  21.949  0.00  0.00    +0.000 A 
ENDBRANCH  13  17
ENDBRANCH   1  14
BRANCH   3  23
ATOM     23  C   UNL     1       5.936   5.587  17.300  0.00  0.00    +0.000 A 
ATOM     24  C   UNL     1       6.727   4.486  17.001  0.00  0.00    +0.000 A 
ATOM     25  C   UNL     1       6.769   4.037  15.684  0.00  0.00    +0.000 A 
ATOM     26  C   UNL     1       6.007   4.667  14.705  0.00  0.00    +0.000 A 
ATOM     27  C   UNL     1       5.280   5.777  15.068  0.00  0.00    +0.000 A 
ATOM     28  N   UNL     1       5.254   6.263  16.322  0.00  0.00    +0.000 NA
ENDBRANCH   3  23
TORSDOF 3
ENDMDL
MODEL 4
REMARK VINA RESULT:      -9.4      4.428      7.287
REMARK  Name = 
REMARK  3 active torsions:
REMARK  status: ('A' for Active; 'I' for Inactive)
REMARK    1  A    between atoms: N_3  and  C_4
REMARK    2  A    between atoms: N_10  and  C_11
REMARK    3  A    between atoms: C_13  and  C_14
REMARK                            x       y       z     vdW  Elec       q    Type
REMARK                         _______ _______ _______ _____ _____    ______ ____
ROOT
ATOM      1  C   UNL     1       1.023   9.189  19.242  0.00  0.00    +0.000 A 
ATOM      2  N   UNL     1       0.576   9.871  18.162  0.00  0.00    +0.000 NA
ATOM      3  C   UNL     1      -0.021  11.016  18.475  0.00  0.00    +0.000 A 
ATOM      4  C   UNL     1      -1.078  10.828  19.323  0.00  0.00    +0.000 A 
ATOM      5  C   UNL     1      -0.622  10.404  20.548  0.00  0.00    +0.000 A 
ATOM      6  C   UNL     1      -1.117  11.094  21.670  0.00  0.00    +0.000 A 
ATOM      7  C   UNL     1      -0.710  10.740  22.943  0.00  0.00    +0.000 A 
ATOM      8  C   UNL     1       0.127   9.648  23.080  0.00  0.00    +0.000 A 
ATOM      9  C   UNL     1       0.712   9.016  21.949  0.00  0.00    +0.000 A 
ATOM     10  C   UNL     1       0.434   9.453  20.589  0.00  0.00    +0.000 A 
ENDROOT
BRANCH   1  14
ATOM     11  O   UNL     1       3.124   6.753  17.845  0.00  0.00    +0.000 OA
ATOM     12  C   UNL     1       2.428   7.174  18.778  0.00  0.00    +0.000 C 
ATOM     13  N   UNL     1       1.836   6.354  19.739  0.00  0.00    +0.000 N 
ATOM     14  N   UNL     1       2.284   8.559  18.975  0.00  0.00    +0.000 N 
ATOM     15  H   UNL     1       1.261   6.883  20.372  0.00  0.00    +0.000 HD
ATOM     16  H   UNL     1       2.831   9.091  18.311  0.00  0.00    +0.000 HD
BRANCH  13  17
ATOM     17  C   UNL     1       1.833   4.957  19.917  0.00  0.00    +0.000 A 
ATOM     18  C   UNL     1       1.457   3.993  18.961  0.00  0.00    +0.000 A 
ATOM     19  C   UNL     1       1.503   2.621  19.268  0.00  0.00    +0.000 A 
ATOM     20  C   UNL     1       1.929   2.179  20.526  0.00  0.00    +0.000 A 
ATOM     21  C   UNL     1       2.282   3.103  21.475  0.00  0.00    +0.000 A 
ATOM     22  C   UNL     1       2.217   4.483  21.189  0.00  0.00    +0.000 A 
ENDBRANCH  13  17
ENDBRANCH   1  14
BRANCH   3  23
ATOM     23  C   UNL     1       0.899  12.158  18.880  0.00  0.00    +0.000 A 
ATOM     24  C   UNL     1       2.210  12.182  18.423  0.00  0.00    +0.000 A 
ATOM     25  C   UNL     1       2.877  13.403  18.383  0.00  0.00    +0.000 A 
ATOM     26  C   UNL     1       2.224  14.570  18.766  0.00  0.00    +0.000 A 
ATOM     27  C   UNL     1       0.939  14.463  19.248  0.00  0.00    +0.000 A 
ATOM     28  N   UNL     1       0.283  13.292  19.341  0.00  0.00    +0.000 NA
ENDBRANCH   3  23
TORSDOF 3
ENDMDL
MODEL 5
REMARK VINA RESULT:      -9.4      2.441      7.280
REMARK  Name = 
REMARK  3 active torsions:
REMARK  status: ('A' for Active; 'I' for Inactive)
REMARK    1  A    between atoms: N_3  and  C_4
REMARK    2  A    between atoms: N_10  and  C_11
REMARK    3  A    between atoms: C_13  and  C_14
REMARK                            x       y       z     vdW  Elec       q    Type
REMARK                         _______ _______ _______ _____ _____    ______ ____
ROOT
ATOM      1  C   UNL     1       3.082   6.335  18.387  0.00  0.00    +0.000 A 
ATOM      2  N   UNL     1       4.377   6.686  18.562  0.00  0.00    +0.000 NA
ATOM      3  C   UNL     1       5.217   5.660  18.465  0.00  0.00    +0.000 A 
ATOM      4  C   UNL     1       4.922   4.671  19.362  0.00  0.00    +0.000 A 
ATOM      5  C   UNL     1       3.723   4.085  19.032  0.00  0.00    +0.000 A 
ATOM      6  C   UNL     1       3.711   2.679  18.975  0.00  0.00    +0.000 A 
ATOM      7  C   UNL     1       2.551   2.004  18.646  0.00  0.00    +0.000 A 
ATOM      8  C   UNL     1       1.397   2.743  18.456  0.00  0.00    +0.000 A 
ATOM      9  C   UNL     1       1.427   4.163  18.408  0.00  0.00    +0.000 A 
ATOM     10  C   UNL     1       2.657   4.918  18.595  0.00  0.00    +0.000 A 
ENDROOT
BRANCH   1  14
ATOM     11  O   UNL     1       2.104   9.611  17.608  0.00  0.00    +0.000 OA
ATOM     12  C   UNL     1       1.933   8.549  18.219  0.00  0.00    +0.000 C 
ATOM     13  N   UNL     1       1.234   8.445  19.422  0.00  0.00    +0.000 N 
ATOM     14  N   UNL     1       2.366   7.337  17.652  0.00  0.00    +0.000 N 
ATOM     15  H   UNL     1       1.262   7.509  19.787  0.00  0.00    +0.000 HD
ATOM     16  H   UNL     1       2.761   7.475  16.730  0.00  0.00    +0.000 HD
BRANCH  13  17
ATOM     17  C   UNL     1       0.594   9.407  20.228  0.00  0.00    +0.000 A 
ATOM     18  C   UNL     1       0.728   9.553  21.623  0.00  0.00    +0.000 A 
ATOM     19  C   UNL     1       0.030  10.563  22.310  0.00  0.00    +0.000 A 
ATOM     20  C   UNL     1      -0.808  11.450  21.625  0.00  0.00    +0.000 A 
ATOM     21  C   UNL     1      -0.966  11.314  20.271  0.00  0.00    +0.000 A 
ATOM     22  C   UNL     1      -0.291  10.289  19.573  0.00  0.00    +0.000 A 
ENDBRANCH  13  17
ENDBRANCH   1  14
BRANCH   3  23
ATOM     23  C   UNL     1       5.491   5.156  17.056  0.00  0.00    +0.000 A 
ATOM     24  C   UNL     1       5.061   5.895  15.963  0.00  0.00    +0.000 A 
ATOM     25  C   UNL     1       5.699   5.707  14.741  0.00  0.00    +0.000 A 
ATOM     26  C   UNL     1       6.764   4.818  14.637  0.00  0.00    +0.000 A 
ATOM     27  C   UNL     1       7.107   4.088  15.753  0.00  0.00    +0.000 A 
ATOM     28  N   UNL     1       6.481   4.215  16.936  0.00  0.00    +0.000 NA
ENDBRANCH   3  23
TORSDOF 3
ENDMDL
MODEL 6
REMARK VINA RESULT:      -9.3      3.968      6.610
REMARK  Name = 
REMARK  3 active torsions:
REMARK  status: ('A' for Active; 'I' for Inactive)
REMARK    1  A    between atoms: N_3  and  C_4
REMARK    2  A    between atoms: N_10  and  C_11
REMARK    3  A    between atoms: C_13  and  C_14
REMARK                            x       y       z     vdW  Elec       q    Type
REMARK                         _______ _______ _______ _____ _____    ______ ____
ROOT
ATOM      1  C   UNL     1       1.326   9.049  19.022  0.00  0.00    +0.000 A 
ATOM      2  N   UNL     1       0.735   9.699  17.992  0.00  0.00    +0.000 NA
ATOM      3  C   UNL     1       0.019  10.751  18.377  0.00  0.00    +0.000 A 
ATOM      4  C   UNL     1      -0.954  10.407  19.275  0.00  0.00    +0.000 A 
ATOM      5  C   UNL     1      -0.377  10.011  20.457  0.00  0.00    +0.000 A 
ATOM      6  C   UNL     1      -0.887  10.601  21.628  0.00  0.00    +0.000 A 
ATOM      7  C   UNL     1      -0.366  10.267  22.864  0.00  0.00    +0.000 A 
ATOM      8  C   UNL     1       0.608   9.285  22.916  0.00  0.00    +0.000 A 
ATOM      9  C   UNL     1       1.199   8.764  21.734  0.00  0.00    +0.000 A 
ATOM     10  C   UNL     1       0.790   9.200  20.407  0.00  0.00    +0.000 A 
ENDROOT
BRANCH   1  14
ATOM     11  O   UNL     1       3.637   7.136  17.205  0.00  0.00    +0.000 OA
ATOM     12  C   UNL     1       2.898   7.294  18.185  0.00  0.00    +0.000 C 
ATOM     13  N   UNL     1       2.365   6.246  18.936  0.00  0.00    +0.000 N 
ATOM     14  N   UNL     1       2.638   8.590  18.664  0.00  0.00    +0.000 N 
ATOM     15  H   UNL     1       1.741   6.582  19.649  0.00  0.00    +0.000 HD
ATOM     16  H   UNL     1       3.146   9.292  18.142  0.00  0.00    +0.000 HD
BRANCH  13  17
ATOM     17  C   UNL     1       2.476   4.847  18.816  0.00  0.00    +0.000 A 
ATOM     18  C   UNL     1       1.524   3.978  18.249  0.00  0.00    +0.000 A 
ATOM     19  C   UNL     1       1.761   2.592  18.189  0.00  0.00    +0.000 A 
ATOM     20  C   UNL     1       2.950   2.045  18.685  0.00  0.00    +0.000 A 
ATOM     21  C   UNL     1       3.881   2.872  19.256  0.00  0.00    +0.000 A 
ATOM     22  C   UNL     1       3.645   4.261  19.345  0.00  0.00    +0.000 A 
ENDBRANCH  13  17
ENDBRANCH   1  14
BRANCH   3  23
ATOM     23  C   UNL     1       0.813  11.988  18.770  0.00  0.00    +0.000 A 
ATOM     24  C   UNL     1       2.136  12.114  18.369  0.00  0.00    +0.000 A 
ATOM     25  C   UNL     1       2.692  13.388  18.304  0.00  0.00    +0.000 A 
ATOM     26  C   UNL     1       1.919  14.505  18.607  0.00  0.00    +0.000 A 
ATOM     27  C   UNL     1       0.628  14.300  19.037  0.00  0.00    +0.000 A 
ATOM     28  N   UNL     1       0.076  13.078  19.153  0.00  0.00    +0.000 NA
ENDBRANCH   3  23
TORSDOF 3
ENDMDL
MODEL 7
REMARK VINA RESULT:      -9.2      0.886      1.015
REMARK  Name = 
REMARK  3 active torsions:
REMARK  status: ('A' for Active; 'I' for Inactive)
REMARK    1  A    between atoms: N_3  and  C_4
REMARK    2  A    between atoms: N_10  and  C_11
REMARK    3  A    between atoms: C_13  and  C_14
REMARK                            x       y       z     vdW  Elec       q    Type
REMARK                         _______ _______ _______ _____ _____    ______ ____
ROOT
ATOM      1  C   UNL     1       4.183   3.269  18.117  0.00  0.00    +0.000 A 
ATOM      2  N   UNL     1       3.630   3.764  16.985  0.00  0.00    +0.000 NA
ATOM      3  C   UNL     1       2.494   4.421  17.201  0.00  0.00    +0.000 A 
ATOM      4  C   UNL     1       1.560   3.638  17.822  0.00  0.00    +0.000 A 
ATOM      5  C   UNL     1       1.968   3.353  19.103  0.00  0.00    +0.000 A 
ATOM      6  C   UNL     1       1.022   3.572  20.122  0.00  0.00    +0.000 A 
ATOM      7  C   UNL     1       1.345   3.318  21.441  0.00  0.00    +0.000 A 
ATOM      8  C   UNL     1       2.587   2.772  21.715  0.00  0.00    +0.000 A 
ATOM      9  C   UNL     1       3.580   2.648  20.706  0.00  0.00    +0.000 A 
ATOM     10  C   UNL     1       3.338   3.049  19.328  0.00  0.00    +0.000 A 
ENDROOT
BRANCH   1  14
ATOM     11  O   UNL     1       7.236   4.819  17.357  0.00  0.00    +0.000 OA
ATOM     12  C   UNL     1       6.316   4.043  17.067  0.00  0.00    +0.000 C 
ATOM     13  N   UNL     1       5.976   3.691  15.761  0.00  0.00    +0.000 N 
ATOM     14  N   UNL     1       5.613   3.378  18.087  0.00  0.00    +0.000 N 
ATOM     15  H   UNL     1       5.162   3.101  15.737  0.00  0.00    +0.000 HD
ATOM     16  H   UNL     1       5.987   3.595  19.002  0.00  0.00    +0.000 HD
BRANCH  13  17
ATOM     17  C   UNL     1       6.502   4.076  14.512  0.00  0.00    +0.000 A 
ATOM     18  C   UNL     1       7.440   5.100  14.279  0.00  0.00    +0.000 A 
ATOM     19  C   UNL     1       7.887   5.383  12.975  0.00  0.00    +0.000 A 
ATOM     20  C   UNL     1       7.415   4.650  11.879  0.00  0.00    +0.000 A 
ATOM     21  C   UNL     1       6.489   3.662  12.083  0.00  0.00    +0.000 A 
ATOM     22  C   UNL     1       6.013   3.385  13.383  0.00  0.00    +0.000 A 
ENDBRANCH  13  17
ENDBRANCH   1  14
BRANCH   3  23
ATOM     23  C   UNL     1       2.634   5.812  17.804  0.00  0.00    +0.000 A 
ATOM     24  C   UNL     1       3.827   6.507  17.663  0.00  0.00    +0.000 A 
ATOM     25  C   UNL     1       3.804   7.894  17.774  0.00  0.00    +0.000 A 
ATOM     26  C   UNL     1       2.601   8.559  17.989  0.00  0.00    +0.000 A 
ATOM     27  C   UNL     1       1.466   7.801  18.160  0.00  0.00    +0.000 A 
ATOM     28  N   UNL     1       1.462   6.457  18.103  0.00  0.00    +0.000 NA
ENDBRANCH   3  23
TORSDOF 3
ENDMDL
MODEL 8
REMARK VINA RESULT:      -9.2      2.258      3.167
REMARK  Name = 
REMARK  3 active torsions:
REMARK  status: ('A' for Active; 'I' for Inactive)
REMARK    1  A    between atoms: N_3  and  C_4
REMARK    2  A    between atoms: N_10  and  C_11
REMARK    3  A    between atoms: C_13  and  C_14
REMARK                            x       y       z     vdW  Elec       q    Type
REMARK                         _______ _______ _______ _____ _____    ______ ____
ROOT
ATOM      1  C   UNL     1       2.800   3.073  17.449  0.00  0.00    +0.000 A 
ATOM      2  N   UNL     1       1.598   3.684  17.338  0.00  0.00    +0.000 NA
ATOM      3  C   UNL     1       1.112   4.102  18.502  0.00  0.00    +0.000 A 
ATOM      4  C   UNL     1       0.985   3.078  19.400  0.00  0.00    +0.000 A 
ATOM      5  C   UNL     1       2.228   2.619  19.763  0.00  0.00    +0.000 A 
ATOM      6  C   UNL     1       2.466   2.487  21.144  0.00  0.00    +0.000 A 
ATOM      7  C   UNL     1       3.690   2.037  21.602  0.00  0.00    +0.000 A 
ATOM      8  C   UNL     1       4.633   1.650  20.667  0.00  0.00    +0.000 A 
ATOM      9  C   UNL     1       4.438   1.879  19.279  0.00  0.00    +0.000 A 
ATOM     10  C   UNL     1       3.226   2.494  18.758  0.00  0.00    +0.000 A 
ENDROOT
BRANCH   1  14
ATOM     11  O   UNL     1       5.891   3.511  15.851  0.00  0.00    +0.000 OA
ATOM     12  C   UNL     1       4.944   3.955  16.512  0.00  0.00    +0.000 C 
ATOM     13  N   UNL     1       5.035   5.058  17.361  0.00  0.00    +0.000 N 
ATOM     14  N   UNL     1       3.659   3.407  16.349  0.00  0.00    +0.000 N 
ATOM     15  H   UNL     1       4.173   5.219  17.853  0.00  0.00    +0.000 HD
ATOM     16  H   UNL     1       3.645   2.689  15.637  0.00  0.00    +0.000 HD
BRANCH  13  17
ATOM     17  C   UNL     1       6.111   5.900  17.702  0.00  0.00    +0.000 A 
ATOM     18  C   UNL     1       6.434   7.132  17.100  0.00  0.00    +0.000 A 
ATOM     19  C   UNL     1       7.542   7.879  17.539  0.00  0.00    +0.000 A 
ATOM     20  C   UNL     1       8.346   7.422  18.590  0.00  0.00    +0.000 A 
ATOM     21  C   UNL     1       8.059   6.218  19.177  0.00  0.00    +0.000 A 
ATOM     22  C   UNL     1       6.965   5.446  18.729  0.00  0.00    +0.000 A 
ENDBRANCH  13  17
ENDBRANCH   1  14
BRANCH   3  23
ATOM     23  C   UNL     1       1.753   5.354  19.081  0.00  0.00    +0.000 A 
ATOM     24  C   UNL     1       2.276   6.317  18.228  0.00  0.00    +0.000 A 
ATOM     25  C   UNL     1       2.413   7.619  18.701  0.00  0.00    +0.000 A 
ATOM     26  C   UNL     1       2.002   7.942  19.990  0.00  0.00    +0.000 A 
ATOM     27  C   UNL     1       1.533   6.927  20.792  0.00  0.00    +0.000 A 
ATOM     28  N   UNL     1       1.430   5.650  20.379  0.00  0.00    +0.000 NA
ENDBRANCH   3  23
TORSDOF 3
ENDMDL
MODEL 9
REMARK VINA RESULT:      -9.1      4.537      8.351
REMARK  Name = 
REMARK  3 active torsions:
REMARK  status: ('A' for Active; 'I' for Inactive)
REMARK    1  A    between atoms: N_3  and  C_4
REMARK    2  A    between atoms: N_10  and  C_11
REMARK    3  A    between atoms: C_13  and  C_14
REMARK                            x       y       z     vdW  Elec       q    Type
REMARK                         _______ _______ _______ _____ _____    ______ ____
ROOT
ATOM      1  C   UNL     1       1.063  10.782  19.092  0.00  0.00    +0.000 A 
ATOM      2  N   UNL     1       0.086   9.943  19.508  0.00  0.00    +0.000 NA
ATOM      3  C   UNL     1      -1.101  10.533  19.616  0.00  0.00    +0.000 A 
ATOM      4  C   UNL     1      -1.067  11.600  20.470  0.00  0.00    +0.000 A 
ATOM      5  C   UNL     1      -0.302  12.606  19.929  0.00  0.00    +0.000 A 
ATOM      6  C   UNL     1      -0.876  13.890  19.920  0.00  0.00    +0.000 A 
ATOM      7  C   UNL     1      -0.181  14.962  19.392  0.00  0.00    +0.000 A 
ATOM      8  C   UNL     1       1.112  14.747  18.950  0.00  0.00    +0.000 A 
ATOM      9  C   UNL     1       1.656  13.437  18.860  0.00  0.00    +0.000 A 
ATOM     10  C   UNL     1       0.904  12.258  19.261  0.00  0.00    +0.000 A 
ENDROOT
BRANCH   1  14
ATOM     11  O   UNL     1       2.131   8.172  17.008  0.00  0.00    +0.000 OA
ATOM     12  C   UNL     1       2.093   8.724  18.114  0.00  0.00    +0.000 C 
ATOM     13  N   UNL     1       2.268   8.055  19.326  0.00  0.00    +0.000 N 
ATOM     14  N   UNL     1       1.968  10.123  18.195  0.00  0.00    +0.000 N 
ATOM     15  H   UNL     1       2.138   8.671  20.110  0.00  0.00    +0.000 HD
ATOM     16  H   UNL     1       1.959  10.552  17.278  0.00  0.00    +0.000 HD
BRANCH  13  17
ATOM     17  C   UNL     1       2.500   6.700  19.631  0.00  0.00    +0.000 A 
ATOM     18  C   UNL     1       3.550   5.900  19.139  0.00  0.00    +0.000 A 
ATOM     19  C   UNL     1       3.669   4.553  19.527  0.00  0.00    +0.000 A 
ATOM     20  C   UNL     1       2.753   3.977  20.414  0.00  0.00    +0.000 A 
ATOM     21  C   UNL     1       1.715   4.734  20.890  0.00  0.00    +0.000 A 
ATOM     22  C   UNL     1       1.569   6.080  20.489  0.00  0.00    +0.000 A 
ENDBRANCH  13  17
ENDBRANCH   1  14
BRANCH   3  23
ATOM     23  C   UNL     1      -1.826  10.811  18.308  0.00  0.00    +0.000 A 
ATOM     24  C   UNL     1      -1.577  10.015  17.198  0.00  0.00    +0.000 A 
ATOM     25  C   UNL     1      -2.540   9.951  16.196  0.00  0.00    +0.000 A 
ATOM     26  C   UNL     1      -3.737  10.649  16.330  0.00  0.00    +0.000 A 
ATOM     27  C   UNL     1      -3.896  11.451  17.438  0.00  0.00    +0.000 A 
ATOM     28  N   UNL     1      -2.965  11.569  18.401  0.00  0.00    +0.000 NA
ENDBRANCH   3  23
TORSDOF 3
ENDMDL
