MODEL 1
REMARK VINA RESULT:      -8.3      0.000      0.000
REMARK  Name = 
REMARK  6 active torsions:
REMARK  status: ('A' for Active; 'I' for Inactive)
REMARK    1  A    between atoms: C_1  and  O_2
REMARK    2  A    between atoms: O_2  and  C_3
REMARK    3  A    between atoms: C_7  and  C_8
REMARK    4  A    between atoms: N_10  and  C_11
REMARK    5  A    between atoms: N_10  and  C_18
REMARK    6  A    between atoms: C_14  and  C_15
REMARK                            x       y       z     vdW  Elec       q    Type
REMARK                         _______ _______ _______ _____ _____    ______ ____
ROOT
ATOM      1  C   UNL     1       3.109   7.763  17.691  0.00  0.00    +0.000 C 
ATOM      2  O   UNL     1       3.566   8.562  16.869  0.00  0.00    +0.000 OA
ATOM      3  N   UNL     1       3.581   6.428  17.745  0.00  0.00    +0.000 N 
ENDROOT
BRANCH   3   4
ATOM      4  C   UNL     1       3.021   5.447  18.585  0.00  0.00    +0.000 A 
ATOM      5  C   UNL     1       1.884   4.739  18.191  0.00  0.00    +0.000 A 
ATOM      6  C   UNL     1       1.313   3.820  19.072  0.00  0.00    +0.000 A 
ATOM      7  C   UNL     1       1.852   3.638  20.353  0.00  0.00    +0.000 A 
ATOM      8  C   UNL     1       1.234   2.678  21.325  0.00  0.00    +0.000 C 
ATOM      9  C   UNL     1       3.006   4.337  20.725  0.00  0.00    +0.000 A 
ATOM     10  C   UNL     1       3.610   5.214  19.833  0.00  0.00    +0.000 A 
ENDBRANCH   3   4
BRANCH   3  11
ATOM     11  C   UNL     1       4.742   6.036  16.910  0.00  0.00    +0.000 C 
ATOM     12  C   UNL     1       5.842   7.046  17.120  0.00  0.00    +0.000 C 
ATOM     13  C   UNL     1       7.079   6.564  17.301  0.00  0.00    +0.000 C 
ATOM     14  S   UNL     1       7.106   4.846  17.224  0.00  0.00    +0.000 S 
ATOM     15  O   UNL     1       7.688   4.434  15.963  0.00  0.00    +0.000 OA
ATOM     16  O   UNL     1       7.585   4.326  18.490  0.00  0.00    +0.000 OA
ATOM     17  C   UNL     1       5.335   4.627  17.136  0.00  0.00    +0.000 C 
ENDBRANCH   3  11
BRANCH   1  22
ATOM     18  C   UNL     1       0.168   9.746  19.197  0.00  0.00    +0.000 A 
ATOM     19  C   UNL     1       0.242   9.315  20.518  0.00  0.00    +0.000 A 
ATOM     20  C   UNL     1       1.145   8.320  20.887  0.00  0.00    +0.000 A 
ATOM     21  C   UNL     1       2.055   7.819  19.953  0.00  0.00    +0.000 A 
ATOM     22  C   UNL     1       2.046   8.285  18.631  0.00  0.00    +0.000 A 
ATOM     23  C   UNL     1       1.025   9.175  18.257  0.00  0.00    +0.000 A 
BRANCH  18  25
ATOM     24  C   UNL     1      -1.949  10.505  18.318  0.00  0.00    +0.000 C 
ATOM     25  O   UNL     1      -0.718  10.761  18.978  0.00  0.00    +0.000 OA
ENDBRANCH  18  25
ENDBRANCH   1  22
TORSDOF 4
ENDMDL
MODEL 2
REMARK VINA RESULT:      -8.2      0.971      1.895
REMARK  Name = 
REMARK  6 active torsions:
REMARK  status: ('A' for Active; 'I' for Inactive)
REMARK    1  A    between atoms: C_1  and  O_2
REMARK    2  A    between atoms: O_2  and  C_3
REMARK    3  A    between atoms: C_7  and  C_8
REMARK    4  A    between atoms: N_10  and  C_11
REMARK    5  A    between atoms: N_10  and  C_18
REMARK    6  A    between atoms: C_14  and  C_15
REMARK                            x       y       z     vdW  Elec       q    Type
REMARK                         _______ _______ _______ _____ _____    ______ ____
ROOT
ATOM      1  C   UNL     1       3.068   7.841  17.637  0.00  0.00    +0.000 C 
ATOM      2  O   UNL     1       3.553   8.560  16.760  0.00  0.00    +0.000 OA
ATOM      3  N   UNL     1       3.487   6.495  17.785  0.00  0.00    +0.000 N 
ENDROOT
BRANCH   3   4
ATOM      4  C   UNL     1       2.893   5.599  18.693  0.00  0.00    +0.000 A 
ATOM      5  C   UNL     1       3.394   5.465  19.990  0.00  0.00    +0.000 A 
ATOM      6  C   UNL     1       2.826   4.521  20.847  0.00  0.00    +0.000 A 
ATOM      7  C   UNL     1       1.788   3.691  20.399  0.00  0.00    +0.000 A 
ATOM      8  C   UNL     1       1.186   2.652  21.296  0.00  0.00    +0.000 C 
ATOM      9  C   UNL     1       1.280   3.855  19.105  0.00  0.00    +0.000 A 
ATOM     10  C   UNL     1       1.806   4.828  18.265  0.00  0.00    +0.000 A 
ENDBRANCH   3   4
BRANCH   3  11
ATOM     11  C   UNL     1       4.629   5.999  16.979  0.00  0.00    +0.000 C 
ATOM     12  C   UNL     1       5.730   7.027  17.030  0.00  0.00    +0.000 C 
ATOM     13  C   UNL     1       6.973   6.573  17.241  0.00  0.00    +0.000 C 
ATOM     14  S   UNL     1       7.003   4.859  17.384  0.00  0.00    +0.000 S 
ATOM     15  O   UNL     1       7.555   4.288  16.173  0.00  0.00    +0.000 OA
ATOM     16  O   UNL     1       7.515   4.505  18.694  0.00  0.00    +0.000 OA
ATOM     17  C   UNL     1       5.232   4.631  17.369  0.00  0.00    +0.000 C 
ENDBRANCH   3  11
BRANCH   1  22
ATOM     18  C   UNL     1       0.896   8.748  20.688  0.00  0.00    +0.000 A 
ATOM     19  C   UNL     1      -0.057   9.554  20.070  0.00  0.00    +0.000 A 
ATOM     20  C   UNL     1       0.067   9.890  18.724  0.00  0.00    +0.000 A 
ATOM     21  C   UNL     1       1.096   9.337  17.957  0.00  0.00    +0.000 A 
ATOM     22  C   UNL     1       2.030   8.469  18.539  0.00  0.00    +0.000 A 
ATOM     23  C   UNL     1       1.965   8.273  19.929  0.00  0.00    +0.000 A 
BRANCH  18  25
ATOM     24  C   UNL     1      -0.012   9.403  22.827  0.00  0.00    +0.000 C 
ATOM     25  O   UNL     1       0.629   8.449  21.993  0.00  0.00    +0.000 OA
ENDBRANCH  18  25
ENDBRANCH   1  22
TORSDOF 4
ENDMDL
MODEL 3
REMARK VINA RESULT:      -8.0      0.520      1.100
REMARK  Name = 
REMARK  6 active torsions:
REMARK  status: ('A' for Active; 'I' for Inactive)
REMARK    1  A    between atoms: C_1  and  O_2
REMARK    2  A    between atoms: O_2  and  C_3
REMARK    3  A    between atoms: C_7  and  C_8
REMARK    4  A    between atoms: N_10  and  C_11
REMARK    5  A    between atoms: N_10  and  C_18
REMARK    6  A    between atoms: C_14  and  C_15
REMARK                            x       y       z     vdW  Elec       q    Type
REMARK                         _______ _______ _______ _____ _____    ______ ____
ROOT
ATOM      1  C   UNL     1       2.867   8.003  17.764  0.00  0.00    +0.000 C 
ATOM      2  O   UNL     1       3.295   8.807  16.931  0.00  0.00    +0.000 OA
ATOM      3  N   UNL     1       3.365   6.678  17.815  0.00  0.00    +0.000 N 
ENDROOT
BRANCH   3   4
ATOM      4  C   UNL     1       2.838   5.690  18.669  0.00  0.00    +0.000 A 
ATOM      5  C   UNL     1       3.391   5.474  19.933  0.00  0.00    +0.000 A 
ATOM      6  C   UNL     1       2.891   4.444  20.730  0.00  0.00    +0.000 A 
ATOM      7  C   UNL     1       1.868   3.612  20.253  0.00  0.00    +0.000 A 
ATOM      8  C   UNL     1       1.338   2.482  21.083  0.00  0.00    +0.000 C 
ATOM      9  C   UNL     1       1.306   3.856  18.994  0.00  0.00    +0.000 A 
ATOM     10  C   UNL     1       1.765   4.913  18.217  0.00  0.00    +0.000 A 
ENDBRANCH   3   4
BRANCH   3  11
ATOM     11  C   UNL     1       4.520   6.304  16.964  0.00  0.00    +0.000 C 
ATOM     12  C   UNL     1       5.672   7.218  17.297  0.00  0.00    +0.000 C 
ATOM     13  C   UNL     1       6.874   6.646  17.447  0.00  0.00    +0.000 C 
ATOM     14  S   UNL     1       6.802   4.946  17.191  0.00  0.00    +0.000 S 
ATOM     15  O   UNL     1       7.387   4.632  15.905  0.00  0.00    +0.000 OA
ATOM     16  O   UNL     1       7.220   4.270  18.404  0.00  0.00    +0.000 OA
ATOM     17  C   UNL     1       5.024   4.846  17.052  0.00  0.00    +0.000 C 
ENDBRANCH   3  11
BRANCH   1  22
ATOM     18  C   UNL     1      -0.115   9.904  19.294  0.00  0.00    +0.000 A 
ATOM     19  C   UNL     1       0.015   9.521  20.626  0.00  0.00    +0.000 A 
ATOM     20  C   UNL     1       0.973   8.579  20.999  0.00  0.00    +0.000 A 
ATOM     21  C   UNL     1       1.877   8.088  20.053  0.00  0.00    +0.000 A 
ATOM     22  C   UNL     1       1.809   8.509  18.718  0.00  0.00    +0.000 A 
ATOM     23  C   UNL     1       0.739   9.341  18.347  0.00  0.00    +0.000 A 
BRANCH  18  25
ATOM     24  C   UNL     1      -0.664  12.133  18.544  0.00  0.00    +0.000 C 
ATOM     25  O   UNL     1      -1.052  10.872  19.070  0.00  0.00    +0.000 OA
ENDBRANCH  18  25
ENDBRANCH   1  22
TORSDOF 4
ENDMDL
MODEL 4
REMARK VINA RESULT:      -7.8      3.980      7.312
REMARK  Name = 
REMARK  6 active torsions:
REMARK  status: ('A' for Active; 'I' for Inactive)
REMARK    1  A    between atoms: C_1  and  O_2
REMARK    2  A    between atoms: O_2  and  C_3
REMARK    3  A    between atoms: C_7  and  C_8
REMARK    4  A    between atoms: N_10  and  C_11
REMARK    5  A    between atoms: N_10  and  C_18
REMARK    6  A    between atoms: C_14  and  C_15
REMARK                            x       y       z     vdW  Elec       q    Type
REMARK                         _______ _______ _______ _____ _____    ______ ____
ROOT
ATOM      1  C   UNL     1       4.994   3.918  16.922  0.00  0.00    +0.000 C 
ATOM      2  O   UNL     1       4.157   3.016  16.993  0.00  0.00    +0.000 OA
ATOM      3  N   UNL     1       5.297   4.717  18.052  0.00  0.00    +0.000 N 
ENDROOT
BRANCH   3   4
ATOM      4  C   UNL     1       6.161   5.827  18.001  0.00  0.00    +0.000 A 
ATOM      5  C   UNL     1       7.390   5.803  18.665  0.00  0.00    +0.000 A 
ATOM      6  C   UNL     1       8.196   6.942  18.651  0.00  0.00    +0.000 A 
ATOM      7  C   UNL     1       7.760   8.110  18.009  0.00  0.00    +0.000 A 
ATOM      8  C   UNL     1       8.599   9.353  18.010  0.00  0.00    +0.000 C 
ATOM      9  C   UNL     1       6.538   8.112  17.327  0.00  0.00    +0.000 A 
ATOM     10  C   UNL     1       5.755   6.964  17.292  0.00  0.00    +0.000 A 
ENDBRANCH   3   4
BRANCH   3  11
ATOM     11  C   UNL     1       4.714   4.361  19.368  0.00  0.00    +0.000 C 
ATOM     12  C   UNL     1       3.426   5.126  19.540  0.00  0.00    +0.000 C 
ATOM     13  C   UNL     1       2.374   4.441  20.009  0.00  0.00    +0.000 C 
ATOM     14  S   UNL     1       2.780   2.801  20.329  0.00  0.00    +0.000 S 
ATOM     15  O   UNL     1       2.888   2.606  21.761  0.00  0.00    +0.000 OA
ATOM     16  O   UNL     1       1.952   1.941  19.504  0.00  0.00    +0.000 OA
ATOM     17  C   UNL     1       4.424   2.867  19.635  0.00  0.00    +0.000 C 
ENDBRANCH   3  11
BRANCH   1  22
ATOM     18  C   UNL     1       5.865   3.786  13.170  0.00  0.00    +0.000 A 
ATOM     19  C   UNL     1       7.132   4.363  13.199  0.00  0.00    +0.000 A 
ATOM     20  C   UNL     1       7.643   4.887  14.385  0.00  0.00    +0.000 A 
ATOM     21  C   UNL     1       6.927   4.747  15.577  0.00  0.00    +0.000 A 
ATOM     22  C   UNL     1       5.678   4.111  15.587  0.00  0.00    +0.000 A 
ATOM     23  C   UNL     1       5.127   3.730  14.352  0.00  0.00    +0.000 A 
BRANCH  18  25
ATOM     24  C   UNL     1       4.148   3.293  11.545  0.00  0.00    +0.000 C 
ATOM     25  O   UNL     1       5.506   3.263  11.962  0.00  0.00    +0.000 OA
ENDBRANCH  18  25
ENDBRANCH   1  22
TORSDOF 4
ENDMDL
MODEL 5
REMARK VINA RESULT:      -7.7      3.910      7.356
REMARK  Name = 
REMARK  6 active torsions:
REMARK  status: ('A' for Active; 'I' for Inactive)
REMARK    1  A    between atoms: C_1  and  O_2
REMARK    2  A    between atoms: O_2  and  C_3
REMARK    3  A    between atoms: C_7  and  C_8
REMARK    4  A    between atoms: N_10  and  C_11
REMARK    5  A    between atoms: N_10  and  C_18
REMARK    6  A    between atoms: C_14  and  C_15
REMARK                            x       y       z     vdW  Elec       q    Type
REMARK                         _______ _______ _______ _____ _____    ______ ____
ROOT
ATOM      1  C   UNL     1       4.853   3.884  17.010  0.00  0.00    +0.000 C 
ATOM      2  O   UNL     1       3.993   3.005  17.103  0.00  0.00    +0.000 OA
ATOM      3  N   UNL     1       5.185   4.695  18.123  0.00  0.00    +0.000 N 
ENDROOT
BRANCH   3   4
ATOM      4  C   UNL     1       6.077   5.781  18.046  0.00  0.00    +0.000 A 
ATOM      5  C   UNL     1       7.299   5.747  18.722  0.00  0.00    +0.000 A 
ATOM      6  C   UNL     1       8.133   6.865  18.681  0.00  0.00    +0.000 A 
ATOM      7  C   UNL     1       7.733   8.023  17.999  0.00  0.00    +0.000 A 
ATOM      8  C   UNL     1       8.603   9.244  17.968  0.00  0.00    +0.000 C 
ATOM      9  C   UNL     1       6.517   8.033  17.305  0.00  0.00    +0.000 A 
ATOM     10  C   UNL     1       5.706   6.905  17.299  0.00  0.00    +0.000 A 
ENDBRANCH   3   4
BRANCH   3  11
ATOM     11  C   UNL     1       4.602   4.379  19.450  0.00  0.00    +0.000 C 
ATOM     12  C   UNL     1       3.318   5.154  19.602  0.00  0.00    +0.000 C 
ATOM     13  C   UNL     1       2.264   4.488  20.091  0.00  0.00    +0.000 C 
ATOM     14  S   UNL     1       2.661   2.855  20.456  0.00  0.00    +0.000 S 
ATOM     15  O   UNL     1       2.771   2.700  21.892  0.00  0.00    +0.000 OA
ATOM     16  O   UNL     1       1.828   1.978  19.657  0.00  0.00    +0.000 OA
ATOM     17  C   UNL     1       4.305   2.894  19.758  0.00  0.00    +0.000 C 
ENDBRANCH   3  11
BRANCH   1  22
ATOM     18  C   UNL     1       7.297   4.888  14.204  0.00  0.00    +0.000 A 
ATOM     19  C   UNL     1       6.600   4.409  13.099  0.00  0.00    +0.000 A 
ATOM     20  C   UNL     1       5.426   3.677  13.266  0.00  0.00    +0.000 A 
ATOM     21  C   UNL     1       4.885   3.505  14.543  0.00  0.00    +0.000 A 
ATOM     22  C   UNL     1       5.533   4.034  15.668  0.00  0.00    +0.000 A 
ATOM     23  C   UNL     1       6.789   4.634  15.478  0.00  0.00    +0.000 A 
BRANCH  18  25
ATOM     24  C   UNL     1       8.643   6.040  12.564  0.00  0.00    +0.000 C 
ATOM     25  O   UNL     1       8.399   5.635  13.903  0.00  0.00    +0.000 OA
ENDBRANCH  18  25
ENDBRANCH   1  22
TORSDOF 4
ENDMDL
MODEL 6
REMARK VINA RESULT:      -7.7      1.250      1.727
REMARK  Name = 
REMARK  6 active torsions:
REMARK  status: ('A' for Active; 'I' for Inactive)
REMARK    1  A    between atoms: C_1  and  O_2
REMARK    2  A    between atoms: O_2  and  C_3
REMARK    3  A    between atoms: C_7  and  C_8
REMARK    4  A    between atoms: N_10  and  C_11
REMARK    5  A    between atoms: N_10  and  C_18
REMARK    6  A    between atoms: C_14  and  C_15
REMARK                            x       y       z     vdW  Elec       q    Type
REMARK                         _______ _______ _______ _____ _____    ______ ____
ROOT
ATOM      1  C   UNL     1       2.895   8.503  17.938  0.00  0.00    +0.000 C 
ATOM      2  O   UNL     1       3.483   9.368  17.285  0.00  0.00    +0.000 OA
ATOM      3  N   UNL     1       3.426   7.194  18.052  0.00  0.00    +0.000 N 
ENDROOT
BRANCH   3   4
ATOM      4  C   UNL     1       2.746   6.140  18.691  0.00  0.00    +0.000 A 
ATOM      5  C   UNL     1       2.796   6.001  20.080  0.00  0.00    +0.000 A 
ATOM      6  C   UNL     1       2.167   4.909  20.679  0.00  0.00    +0.000 A 
ATOM      7  C   UNL     1       1.525   3.942  19.893  0.00  0.00    +0.000 A 
ATOM      8  C   UNL     1       0.869   2.747  20.517  0.00  0.00    +0.000 C 
ATOM      9  C   UNL     1       1.462   4.108  18.504  0.00  0.00    +0.000 A 
ATOM     10  C   UNL     1       2.041   5.221  17.906  0.00  0.00    +0.000 A 
ENDBRANCH   3   4
BRANCH   3  11
ATOM     11  C   UNL     1       4.777   6.911  17.510  0.00  0.00    +0.000 C 
ATOM     12  C   UNL     1       5.344   5.722  18.243  0.00  0.00    +0.000 C 
ATOM     13  C   UNL     1       5.940   4.780  17.500  0.00  0.00    +0.000 C 
ATOM     14  S   UNL     1       5.926   5.191  15.829  0.00  0.00    +0.000 S 
ATOM     15  O   UNL     1       7.253   5.612  15.430  0.00  0.00    +0.000 OA
ATOM     16  O   UNL     1       5.199   4.170  15.099  0.00  0.00    +0.000 OA
ATOM     17  C   UNL     1       4.891   6.637  15.994  0.00  0.00    +0.000 C 
ENDBRANCH   3  11
BRANCH   1  22
ATOM     18  C   UNL     1      -0.628   9.913  18.610  0.00  0.00    +0.000 A 
ATOM     19  C   UNL     1      -0.665   9.811  19.998  0.00  0.00    +0.000 A 
ATOM     20  C   UNL     1       0.377   9.194  20.689  0.00  0.00    +0.000 A 
ATOM     21  C   UNL     1       1.514   8.763  20.001  0.00  0.00    +0.000 A 
ATOM     22  C   UNL     1       1.605   8.914  18.610  0.00  0.00    +0.000 A 
ATOM     23  C   UNL     1       0.476   9.401  17.929  0.00  0.00    +0.000 A 
BRANCH  18  25
ATOM     24  C   UNL     1      -2.730   9.873  17.422  0.00  0.00    +0.000 C 
ATOM     25  O   UNL     1      -1.681  10.586  18.060  0.00  0.00    +0.000 OA
ENDBRANCH  18  25
ENDBRANCH   1  22
TORSDOF 4
ENDMDL
MODEL 7
REMARK VINA RESULT:      -7.6      1.046      1.130
REMARK  Name = 
REMARK  6 active torsions:
REMARK  status: ('A' for Active; 'I' for Inactive)
REMARK    1  A    between atoms: C_1  and  O_2
REMARK    2  A    between atoms: O_2  and  C_3
REMARK    3  A    between atoms: C_7  and  C_8
REMARK    4  A    between atoms: N_10  and  C_11
REMARK    5  A    between atoms: N_10  and  C_18
REMARK    6  A    between atoms: C_14  and  C_15
REMARK                            x       y       z     vdW  Elec       q    Type
REMARK                         _______ _______ _______ _____ _____    ______ ____
ROOT
ATOM      1  C   UNL     1       3.091   8.292  17.931  0.00  0.00    +0.000 C 
ATOM      2  O   UNL     1       3.615   9.203  17.285  0.00  0.00    +0.000 OA
ATOM      3  N   UNL     1       3.653   6.991  17.937  0.00  0.00    +0.000 N 
ENDROOT
BRANCH   3   4
ATOM      4  C   UNL     1       3.039   5.891  18.566  0.00  0.00    +0.000 A 
ATOM      5  C   UNL     1       2.100   5.115  17.883  0.00  0.00    +0.000 A 
ATOM      6  C   UNL     1       1.459   4.072  18.553  0.00  0.00    +0.000 A 
ATOM      7  C   UNL     1       1.728   3.829  19.907  0.00  0.00    +0.000 A 
ATOM      8  C   UNL     1       1.028   2.732  20.651  0.00  0.00    +0.000 C 
ATOM      9  C   UNL     1       2.691   4.599  20.572  0.00  0.00    +0.000 A 
ATOM     10  C   UNL     1       3.370   5.605  19.895  0.00  0.00    +0.000 A 
ENDBRANCH   3   4
BRANCH   3  11
ATOM     11  C   UNL     1       4.966   6.766  17.287  0.00  0.00    +0.000 C 
ATOM     12  C   UNL     1       5.831   5.963  18.226  0.00  0.00    +0.000 C 
ATOM     13  C   UNL     1       6.514   4.941  17.695  0.00  0.00    +0.000 C 
ATOM     14  S   UNL     1       6.239   4.809  16.002  0.00  0.00    +0.000 S 
ATOM     15  O   UNL     1       7.407   5.285  15.290  0.00  0.00    +0.000 OA
ATOM     16  O   UNL     1       5.652   3.513  15.721  0.00  0.00    +0.000 OA
ATOM     17  C   UNL     1       4.966   6.058  15.914  0.00  0.00    +0.000 C 
ENDBRANCH   3  11
BRANCH   1  22
ATOM     18  C   UNL     1      -0.343   9.704  18.963  0.00  0.00    +0.000 A 
ATOM     19  C   UNL     1      -0.331   9.392  20.320  0.00  0.00    +0.000 A 
ATOM     20  C   UNL     1       0.709   8.640  20.863  0.00  0.00    +0.000 A 
ATOM     21  C   UNL     1       1.801   8.280  20.068  0.00  0.00    +0.000 A 
ATOM     22  C   UNL     1       1.846   8.640  18.714  0.00  0.00    +0.000 A 
ATOM     23  C   UNL     1       0.713   9.265  18.165  0.00  0.00    +0.000 A 
BRANCH  18  25
ATOM     24  C   UNL     1      -2.195  10.105  17.467  0.00  0.00    +0.000 C 
ATOM     25  O   UNL     1      -1.387  10.490  18.569  0.00  0.00    +0.000 OA
ENDBRANCH  18  25
ENDBRANCH   1  22
TORSDOF 4
ENDMDL
MODEL 8
REMARK VINA RESULT:      -7.6      1.432      2.279
REMARK  Name = 
REMARK  6 active torsions:
REMARK  status: ('A' for Active; 'I' for Inactive)
REMARK    1  A    between atoms: C_1  and  O_2
REMARK    2  A    between atoms: O_2  and  C_3
REMARK    3  A    between atoms: C_7  and  C_8
REMARK    4  A    between atoms: N_10  and  C_11
REMARK    5  A    between atoms: N_10  and  C_18
REMARK    6  A    between atoms: C_14  and  C_15
REMARK                            x       y       z     vdW  Elec       q    Type
REMARK                         _______ _______ _______ _____ _____    ______ ____
ROOT
ATOM      1  C   UNL     1       2.914   8.545  17.999  0.00  0.00    +0.000 C 
ATOM      2  O   UNL     1       3.500   9.418  17.352  0.00  0.00    +0.000 OA
ATOM      3  N   UNL     1       3.432   7.228  18.075  0.00  0.00    +0.000 N 
ENDROOT
BRANCH   3   4
ATOM      4  C   UNL     1       2.751   6.170  18.706  0.00  0.00    +0.000 A 
ATOM      5  C   UNL     1       2.814   6.010  20.092  0.00  0.00    +0.000 A 
ATOM      6  C   UNL     1       2.185   4.913  20.682  0.00  0.00    +0.000 A 
ATOM      7  C   UNL     1       1.528   3.962  19.888  0.00  0.00    +0.000 A 
ATOM      8  C   UNL     1       0.872   2.762  20.501  0.00  0.00    +0.000 C 
ATOM      9  C   UNL     1       1.452   4.149  18.503  0.00  0.00    +0.000 A 
ATOM     10  C   UNL     1       2.032   5.267  17.915  0.00  0.00    +0.000 A 
ENDBRANCH   3   4
BRANCH   3  11
ATOM     11  C   UNL     1       4.768   6.941  17.501  0.00  0.00    +0.000 C 
ATOM     12  C   UNL     1       5.379   5.795  18.268  0.00  0.00    +0.000 C 
ATOM     13  C   UNL     1       5.964   4.829  17.548  0.00  0.00    +0.000 C 
ATOM     14  S   UNL     1       5.888   5.163  15.862  0.00  0.00    +0.000 S 
ATOM     15  O   UNL     1       7.194   5.585  15.400  0.00  0.00    +0.000 OA
ATOM     16  O   UNL     1       5.155   4.099  15.205  0.00  0.00    +0.000 OA
ATOM     17  C   UNL     1       4.836   6.600  15.996  0.00  0.00    +0.000 C 
ENDBRANCH   3  11
BRANCH   1  22
ATOM     18  C   UNL     1       0.172   9.061  20.657  0.00  0.00    +0.000 A 
ATOM     19  C   UNL     1      -0.834   9.601  19.860  0.00  0.00    +0.000 A 
ATOM     20  C   UNL     1      -0.591   9.898  18.520  0.00  0.00    +0.000 A 
ATOM     21  C   UNL     1       0.635   9.563  17.941  0.00  0.00    +0.000 A 
ATOM     22  C   UNL     1       1.642   8.958  18.705  0.00  0.00    +0.000 A 
ATOM     23  C   UNL     1       1.419   8.811  20.085  0.00  0.00    +0.000 A 
BRANCH  18  25
ATOM     24  C   UNL     1      -0.436   9.808  22.871  0.00  0.00    +0.000 C 
ATOM     25  O   UNL     1      -0.210   8.766  21.934  0.00  0.00    +0.000 OA
ENDBRANCH  18  25
ENDBRANCH   1  22
TORSDOF 4
ENDMDL
MODEL 9
REMARK VINA RESULT:      -7.4      1.403      2.213
REMARK  Name = 
REMARK  6 active torsions:
REMARK  status: ('A' for Active; 'I' for Inactive)
REMARK    1  A    between atoms: C_1  and  O_2
REMARK    2  A    between atoms: O_2  and  C_3
REMARK    3  A    between atoms: C_7  and  C_8
REMARK    4  A    between atoms: N_10  and  C_11
REMARK    5  A    between atoms: N_10  and  C_18
REMARK    6  A    between atoms: C_14  and  C_15
REMARK                            x       y       z     vdW  Elec       q    Type
REMARK                         _______ _______ _______ _____ _____    ______ ____
ROOT
ATOM      1  C   UNL     1       3.473   6.905  17.825  0.00  0.00    +0.000 C 
ATOM      2  O   UNL     1       4.104   7.432  16.906  0.00  0.00    +0.000 OA
ATOM      3  N   UNL     1       3.715   5.557  18.192  0.00  0.00    +0.000 N 
ENDROOT
BRANCH   3   4
ATOM      4  C   UNL     1       2.952   4.874  19.157  0.00  0.00    +0.000 A 
ATOM      5  C   UNL     1       3.361   4.838  20.492  0.00  0.00    +0.000 A 
ATOM      6  C   UNL     1       2.621   4.097  21.413  0.00  0.00    +0.000 A 
ATOM      7  C   UNL     1       1.499   3.366  20.997  0.00  0.00    +0.000 A 
ATOM      8  C   UNL     1       0.708   2.540  21.967  0.00  0.00    +0.000 C 
ATOM      9  C   UNL     1       1.086   3.431  19.661  0.00  0.00    +0.000 A 
ATOM     10  C   UNL     1       1.790   4.210  18.749  0.00  0.00    +0.000 A 
ENDBRANCH   3   4
BRANCH   3  11
ATOM     11  C   UNL     1       4.844   4.828  17.567  0.00  0.00    +0.000 C 
ATOM     12  C   UNL     1       4.728   4.965  16.070  0.00  0.00    +0.000 C 
ATOM     13  C   UNL     1       5.851   5.258  15.400  0.00  0.00    +0.000 C 
ATOM     14  S   UNL     1       7.202   5.388  16.457  0.00  0.00    +0.000 S 
ATOM     15  O   UNL     1       8.036   4.213  16.312  0.00  0.00    +0.000 OA
ATOM     16  O   UNL     1       7.749   6.728  16.358  0.00  0.00    +0.000 OA
ATOM     17  C   UNL     1       6.274   5.248  17.976  0.00  0.00    +0.000 C 
ENDBRANCH   3  11
BRANCH   1  22
ATOM     18  C   UNL     1       1.124   8.403  20.488  0.00  0.00    +0.000 A 
ATOM     19  C   UNL     1       0.411   9.301  19.698  0.00  0.00    +0.000 A 
ATOM     20  C   UNL     1       0.760   9.500  18.364  0.00  0.00    +0.000 A 
ATOM     21  C   UNL     1       1.765   8.725  17.780  0.00  0.00    +0.000 A 
ATOM     22  C   UNL     1       2.454   7.767  18.536  0.00  0.00    +0.000 A 
ATOM     23  C   UNL     1       2.181   7.698  19.913  0.00  0.00    +0.000 A 
BRANCH  18  25
ATOM     24  C   UNL     1      -0.127   9.292  22.352  0.00  0.00    +0.000 C 
ATOM     25  O   UNL     1       0.647   8.260  21.759  0.00  0.00    +0.000 OA
ENDBRANCH  18  25
ENDBRANCH   1  22
TORSDOF 4
ENDMDL
