MODEL 1
REMARK VINA RESULT:      -6.9      0.000      0.000
REMARK  Name = 
REMARK  9 active torsions:
REMARK  status: ('A' for Active; 'I' for Inactive)
REMARK    1  A    between atoms: C_1  and  S_2
REMARK    2  A    between atoms: S_2  and  C_3
REMARK    3  A    between atoms: C_5  and  C_6
REMARK    4  A    between atoms: C_6  and  N_7
REMARK    5  A    between atoms: C_8  and  C_10
REMARK    6  A    between atoms: C_10  and  C_11
REMARK    7  A    between atoms: C_11  and  O_12
REMARK    8  A    between atoms: O_12  and  C_13
REMARK    9  A    between atoms: C_18  and  C_19
REMARK                            x       y       z     vdW  Elec       q    Type
REMARK                         _______ _______ _______ _____ _____    ______ ____
ROOT
ATOM      1  N   UNL     1       4.001   6.345  17.440  0.00  0.00    +0.000 N 
ATOM      2  C   UNL     1       4.964   5.834  16.610  0.00  0.00    +0.000 C 
ATOM      3  O   UNL     1       5.249   6.353  15.530  0.00  0.00    +0.000 OA
ATOM      4  H   UNL     1       4.024   6.066  18.414  0.00  0.00    +0.000 HD
ENDROOT
BRANCH   1   5
ATOM      5  C   UNL     1       3.375   7.605  17.135  0.00  0.00    +0.000 C 
BRANCH   5   8
ATOM      6  C   UNL     1       1.032   9.645  19.304  0.00  0.00    +0.000 A 
ATOM      7  C   UNL     1       1.810   9.261  18.218  0.00  0.00    +0.000 A 
ATOM      8  C   UNL     1       2.513   8.052  18.279  0.00  0.00    +0.000 A 
ATOM      9  C   UNL     1       2.433   7.293  19.447  0.00  0.00    +0.000 A 
ATOM     10  C   UNL     1       1.633   7.753  20.477  0.00  0.00    +0.000 A 
ATOM     11  N   UNL     1       0.934   8.905  20.429  0.00  0.00    +0.000 NA
BRANCH   6  13
ATOM     12  C   UNL     1       1.425  12.347  19.709  0.00  0.00    +0.000 C 
ATOM     13  S   UNL     1       0.126  11.181  19.218  0.00  0.00    +0.000 S 
ENDBRANCH   6  13
ENDBRANCH   5   8
ENDBRANCH   1   5
BRANCH   2  14
ATOM     14  C   UNL     1       5.692   4.589  17.085  0.00  0.00    +0.000 C 
BRANCH  14  15
ATOM     15  C   UNL     1       5.324   4.076  18.471  0.00  0.00    +0.000 C 
BRANCH  15  16
ATOM     16  O   UNL     1       4.249   3.143  18.342  0.00  0.00    +0.000 OA
BRANCH  16  17
ATOM     17  C   UNL     1       3.202   3.233  19.220  0.00  0.00    +0.000 A 
ATOM     18  C   UNL     1       3.499   2.721  20.495  0.00  0.00    +0.000 A 
ATOM     19  C   UNL     1       2.529   2.660  21.497  0.00  0.00    +0.000 A 
ATOM     20  C   UNL     1       1.239   3.095  21.229  0.00  0.00    +0.000 A 
ATOM     21  C   UNL     1       0.929   3.596  19.965  0.00  0.00    +0.000 A 
ATOM     22  C   UNL     1       1.896   3.666  18.941  0.00  0.00    +0.000 A 
ATOM     23  C   UNL     1       1.439   4.168  17.604  0.00  0.00    +0.000 C 
ENDBRANCH  16  17
ENDBRANCH  15  16
ENDBRANCH  14  15
ENDBRANCH   2  14
TORSDOF 7
ENDMDL
MODEL 2
REMARK VINA RESULT:      -6.8      2.829      5.974
REMARK  Name = 
REMARK  9 active torsions:
REMARK  status: ('A' for Active; 'I' for Inactive)
REMARK    1  A    between atoms: C_1  and  S_2
REMARK    2  A    between atoms: S_2  and  C_3
REMARK    3  A    between atoms: C_5  and  C_6
REMARK    4  A    between atoms: C_6  and  N_7
REMARK    5  A    between atoms: C_8  and  C_10
REMARK    6  A    between atoms: C_10  and  C_11
REMARK    7  A    between atoms: C_11  and  O_12
REMARK    8  A    between atoms: O_12  and  C_13
REMARK    9  A    between atoms: C_18  and  C_19
REMARK                            x       y       z     vdW  Elec       q    Type
REMARK                         _______ _______ _______ _____ _____    ______ ____
ROOT
ATOM      1  N   UNL     1       3.135   4.140  18.121  0.00  0.00    +0.000 N 
ATOM      2  C   UNL     1       2.993   3.259  19.161  0.00  0.00    +0.000 C 
ATOM      3  O   UNL     1       3.085   2.041  19.011  0.00  0.00    +0.000 OA
ATOM      4  H   UNL     1       3.347   5.105  18.349  0.00  0.00    +0.000 HD
ENDROOT
BRANCH   1   5
ATOM      5  C   UNL     1       3.539   3.670  16.822  0.00  0.00    +0.000 C 
BRANCH   5   8
ATOM      6  C   UNL     1       6.695   5.768  16.852  0.00  0.00    +0.000 A 
ATOM      7  C   UNL     1       5.508   5.182  17.276  0.00  0.00    +0.000 A 
ATOM      8  C   UNL     1       4.830   4.314  16.411  0.00  0.00    +0.000 A 
ATOM      9  C   UNL     1       5.357   4.098  15.137  0.00  0.00    +0.000 A 
ATOM     10  C   UNL     1       6.544   4.723  14.802  0.00  0.00    +0.000 A 
ATOM     11  N   UNL     1       7.221   5.546  15.628  0.00  0.00    +0.000 NA
BRANCH   6  13
ATOM     12  C   UNL     1       7.803   5.756  19.379  0.00  0.00    +0.000 C 
ATOM     13  S   UNL     1       7.564   6.862  17.962  0.00  0.00    +0.000 S 
ENDBRANCH   6  13
ENDBRANCH   5   8
ENDBRANCH   1   5
BRANCH   2  14
ATOM     14  C   UNL     1       2.727   3.851  20.534  0.00  0.00    +0.000 C 
BRANCH  14  15
ATOM     15  C   UNL     1       1.909   5.134  20.571  0.00  0.00    +0.000 C 
BRANCH  15  16
ATOM     16  O   UNL     1       2.723   6.211  20.101  0.00  0.00    +0.000 OA
BRANCH  16  17
ATOM     17  C   UNL     1       2.129   7.424  19.873  0.00  0.00    +0.000 A 
ATOM     18  C   UNL     1       1.309   7.850  20.932  0.00  0.00    +0.000 A 
ATOM     19  C   UNL     1       0.562   9.026  20.845  0.00  0.00    +0.000 A 
ATOM     20  C   UNL     1       0.613   9.785  19.684  0.00  0.00    +0.000 A 
ATOM     21  C   UNL     1       1.416   9.368  18.622  0.00  0.00    +0.000 A 
ATOM     22  C   UNL     1       2.177   8.182  18.693  0.00  0.00    +0.000 A 
ATOM     23  C   UNL     1       2.958   7.800  17.472  0.00  0.00    +0.000 C 
ENDBRANCH  16  17
ENDBRANCH  15  16
ENDBRANCH  14  15
ENDBRANCH   2  14
TORSDOF 7
ENDMDL
MODEL 3
REMARK VINA RESULT:      -6.8      3.672      5.822
REMARK  Name = 
REMARK  9 active torsions:
REMARK  status: ('A' for Active; 'I' for Inactive)
REMARK    1  A    between atoms: C_1  and  S_2
REMARK    2  A    between atoms: S_2  and  C_3
REMARK    3  A    between atoms: C_5  and  C_6
REMARK    4  A    between atoms: C_6  and  N_7
REMARK    5  A    between atoms: C_8  and  C_10
REMARK    6  A    between atoms: C_10  and  C_11
REMARK    7  A    between atoms: C_11  and  O_12
REMARK    8  A    between atoms: O_12  and  C_13
REMARK    9  A    between atoms: C_18  and  C_19
REMARK                            x       y       z     vdW  Elec       q    Type
REMARK                         _______ _______ _______ _____ _____    ______ ____
ROOT
ATOM      1  N   UNL     1       4.614   3.330  18.776  0.00  0.00    +0.000 N 
ATOM      2  C   UNL     1       4.347   2.135  19.391  0.00  0.00    +0.000 C 
ATOM      3  O   UNL     1       5.076   1.666  20.266  0.00  0.00    +0.000 OA
ATOM      4  H   UNL     1       3.848   3.795  18.302  0.00  0.00    +0.000 HD
ENDROOT
BRANCH   1   5
ATOM      5  C   UNL     1       5.698   4.157  19.237  0.00  0.00    +0.000 C 
BRANCH   5   8
ATOM      6  C   UNL     1       6.832   5.104  15.747  0.00  0.00    +0.000 A 
ATOM      7  C   UNL     1       6.233   4.395  16.783  0.00  0.00    +0.000 A 
ATOM      8  C   UNL     1       6.318   4.895  18.088  0.00  0.00    +0.000 A 
ATOM      9  C   UNL     1       7.034   6.073  18.303  0.00  0.00    +0.000 A 
ATOM     10  C   UNL     1       7.596   6.711  17.213  0.00  0.00    +0.000 A 
ATOM     11  N   UNL     1       7.508   6.255  15.947  0.00  0.00    +0.000 NA
BRANCH   6  13
ATOM     12  C   UNL     1       7.997   5.456  13.270  0.00  0.00    +0.000 C 
ATOM     13  S   UNL     1       6.709   4.471  14.083  0.00  0.00    +0.000 S 
ENDBRANCH   6  13
ENDBRANCH   5   8
ENDBRANCH   1   5
BRANCH   2  14
ATOM     14  C   UNL     1       3.091   1.402  18.957  0.00  0.00    +0.000 C 
BRANCH  14  15
ATOM     15  C   UNL     1       2.356   1.973  17.752  0.00  0.00    +0.000 C 
BRANCH  15  16
ATOM     16  O   UNL     1       1.263   2.768  18.217  0.00  0.00    +0.000 OA
BRANCH  16  17
ATOM     17  C   UNL     1       1.538   3.983  18.786  0.00  0.00    +0.000 A 
ATOM     18  C   UNL     1       1.965   4.948  17.857  0.00  0.00    +0.000 A 
ATOM     19  C   UNL     1       2.363   6.222  18.264  0.00  0.00    +0.000 A 
ATOM     20  C   UNL     1       2.358   6.542  19.615  0.00  0.00    +0.000 A 
ATOM     21  C   UNL     1       1.946   5.590  20.547  0.00  0.00    +0.000 A 
ATOM     22  C   UNL     1       1.540   4.298  20.153  0.00  0.00    +0.000 A 
ATOM     23  C   UNL     1       1.173   3.337  21.244  0.00  0.00    +0.000 C 
ENDBRANCH  16  17
ENDBRANCH  15  16
ENDBRANCH  14  15
ENDBRANCH   2  14
TORSDOF 7
ENDMDL
MODEL 4
REMARK VINA RESULT:      -6.7      3.047      5.833
REMARK  Name = 
REMARK  9 active torsions:
REMARK  status: ('A' for Active; 'I' for Inactive)
REMARK    1  A    between atoms: C_1  and  S_2
REMARK    2  A    between atoms: S_2  and  C_3
REMARK    3  A    between atoms: C_5  and  C_6
REMARK    4  A    between atoms: C_6  and  N_7
REMARK    5  A    between atoms: C_8  and  C_10
REMARK    6  A    between atoms: C_10  and  C_11
REMARK    7  A    between atoms: C_11  and  O_12
REMARK    8  A    between atoms: O_12  and  C_13
REMARK    9  A    between atoms: C_18  and  C_19
REMARK                            x       y       z     vdW  Elec       q    Type
REMARK                         _______ _______ _______ _____ _____    ______ ____
ROOT
ATOM      1  N   UNL     1       3.132   3.139  18.732  0.00  0.00    +0.000 N 
ATOM      2  C   UNL     1       3.319   2.903  20.068  0.00  0.00    +0.000 C 
ATOM      3  O   UNL     1       4.273   2.251  20.496  0.00  0.00    +0.000 OA
ATOM      4  H   UNL     1       2.526   3.908  18.472  0.00  0.00    +0.000 HD
ENDROOT
BRANCH   1   5
ATOM      5  C   UNL     1       4.134   2.743  17.777  0.00  0.00    +0.000 C 
BRANCH   5   8
ATOM      6  C   UNL     1       6.500   5.694  17.544  0.00  0.00    +0.000 A 
ATOM      7  C   UNL     1       5.845   4.576  18.050  0.00  0.00    +0.000 A 
ATOM      8  C   UNL     1       4.873   3.944  17.266  0.00  0.00    +0.000 A 
ATOM      9  C   UNL     1       4.572   4.484  16.016  0.00  0.00    +0.000 A 
ATOM     10  C   UNL     1       5.274   5.599  15.593  0.00  0.00    +0.000 A 
ATOM     11  N   UNL     1       6.227   6.209  16.326  0.00  0.00    +0.000 NA
BRANCH   6  13
ATOM     12  C   UNL     1       7.868   8.086  17.690  0.00  0.00    +0.000 C 
ATOM     13  S   UNL     1       7.749   6.489  18.540  0.00  0.00    +0.000 S 
ENDBRANCH   6  13
ENDBRANCH   5   8
ENDBRANCH   1   5
BRANCH   2  14
ATOM     14  C   UNL     1       2.299   3.496  21.023  0.00  0.00    +0.000 C 
BRANCH  14  15
ATOM     15  C   UNL     1       1.486   4.672  20.499  0.00  0.00    +0.000 C 
BRANCH  15  16
ATOM     16  O   UNL     1       2.193   5.881  20.787  0.00  0.00    +0.000 OA
BRANCH  16  17
ATOM     17  C   UNL     1       2.089   6.921  19.902  0.00  0.00    +0.000 A 
ATOM     18  C   UNL     1       2.812   6.716  18.714  0.00  0.00    +0.000 A 
ATOM     19  C   UNL     1       2.884   7.701  17.729  0.00  0.00    +0.000 A 
ATOM     20  C   UNL     1       2.247   8.918  17.929  0.00  0.00    +0.000 A 
ATOM     21  C   UNL     1       1.535   9.137  19.107  0.00  0.00    +0.000 A 
ATOM     22  C   UNL     1       1.450   8.153  20.113  0.00  0.00    +0.000 A 
ATOM     23  C   UNL     1       0.707   8.517  21.364  0.00  0.00    +0.000 C 
ENDBRANCH  16  17
ENDBRANCH  15  16
ENDBRANCH  14  15
ENDBRANCH   2  14
TORSDOF 7
ENDMDL
MODEL 5
REMARK VINA RESULT:      -6.6      3.212      6.584
REMARK  Name = 
REMARK  9 active torsions:
REMARK  status: ('A' for Active; 'I' for Inactive)
REMARK    1  A    between atoms: C_1  and  S_2
REMARK    2  A    between atoms: S_2  and  C_3
REMARK    3  A    between atoms: C_5  and  C_6
REMARK    4  A    between atoms: C_6  and  N_7
REMARK    5  A    between atoms: C_8  and  C_10
REMARK    6  A    between atoms: C_10  and  C_11
REMARK    7  A    between atoms: C_11  and  O_12
REMARK    8  A    between atoms: O_12  and  C_13
REMARK    9  A    between atoms: C_18  and  C_19
REMARK                            x       y       z     vdW  Elec       q    Type
REMARK                         _______ _______ _______ _____ _____    ______ ____
ROOT
ATOM      1  N   UNL     1       2.939   4.117  18.395  0.00  0.00    +0.000 N 
ATOM      2  C   UNL     1       2.737   3.337  19.504  0.00  0.00    +0.000 C 
ATOM      3  O   UNL     1       2.871   2.113  19.484  0.00  0.00    +0.000 OA
ATOM      4  H   UNL     1       3.107   5.105  18.541  0.00  0.00    +0.000 HD
ENDROOT
BRANCH   1   5
ATOM      5  C   UNL     1       3.456   3.536  17.185  0.00  0.00    +0.000 C 
BRANCH   5   8
ATOM      6  C   UNL     1       6.631   4.611  15.417  0.00  0.00    +0.000 A 
ATOM      7  C   UNL     1       5.328   4.167  15.616  0.00  0.00    +0.000 A 
ATOM      8  C   UNL     1       4.850   4.024  16.924  0.00  0.00    +0.000 A 
ATOM      9  C   UNL     1       5.716   4.301  17.983  0.00  0.00    +0.000 A 
ATOM     10  C   UNL     1       6.995   4.739  17.690  0.00  0.00    +0.000 A 
ATOM     11  N   UNL     1       7.466   4.901  16.438  0.00  0.00    +0.000 NA
BRANCH   6  13
ATOM     12  C   UNL     1       6.196   3.589  12.891  0.00  0.00    +0.000 C 
ATOM     13  S   UNL     1       7.233   4.805  13.748  0.00  0.00    +0.000 S 
ENDBRANCH   6  13
ENDBRANCH   5   8
ENDBRANCH   1   5
BRANCH   2  14
ATOM     14  C   UNL     1       2.348   4.051  20.787  0.00  0.00    +0.000 C 
BRANCH  14  15
ATOM     15  C   UNL     1       1.555   5.341  20.630  0.00  0.00    +0.000 C 
BRANCH  15  16
ATOM     16  O   UNL     1       2.471   6.420  20.427  0.00  0.00    +0.000 OA
BRANCH  16  17
ATOM     17  C   UNL     1       2.023   7.540  19.780  0.00  0.00    +0.000 A 
ATOM     18  C   UNL     1       2.460   7.625  18.447  0.00  0.00    +0.000 A 
ATOM     19  C   UNL     1       2.165   8.736  17.656  0.00  0.00    +0.000 A 
ATOM     20  C   UNL     1       1.440   9.789  18.196  0.00  0.00    +0.000 A 
ATOM     21  C   UNL     1       1.009   9.721  19.521  0.00  0.00    +0.000 A 
ATOM     22  C   UNL     1       1.298   8.607  20.335  0.00  0.00    +0.000 A 
ATOM     23  C   UNL     1       0.836   8.664  21.760  0.00  0.00    +0.000 C 
ENDBRANCH  16  17
ENDBRANCH  15  16
ENDBRANCH  14  15
ENDBRANCH   2  14
TORSDOF 7
ENDMDL
MODEL 6
REMARK VINA RESULT:      -6.6      5.519      8.102
REMARK  Name = 
REMARK  9 active torsions:
REMARK  status: ('A' for Active; 'I' for Inactive)
REMARK    1  A    between atoms: C_1  and  S_2
REMARK    2  A    between atoms: S_2  and  C_3
REMARK    3  A    between atoms: C_5  and  C_6
REMARK    4  A    between atoms: C_6  and  N_7
REMARK    5  A    between atoms: C_8  and  C_10
REMARK    6  A    between atoms: C_10  and  C_11
REMARK    7  A    between atoms: C_11  and  O_12
REMARK    8  A    between atoms: O_12  and  C_13
REMARK    9  A    between atoms: C_18  and  C_19
REMARK                            x       y       z     vdW  Elec       q    Type
REMARK                         _______ _______ _______ _____ _____    ______ ____
ROOT
ATOM      1  N   UNL     1       5.842   7.230  17.451  0.00  0.00    +0.000 N 
ATOM      2  C   UNL     1       7.189   7.081  17.248  0.00  0.00    +0.000 C 
ATOM      3  O   UNL     1       7.648   6.302  16.412  0.00  0.00    +0.000 OA
ATOM      4  H   UNL     1       5.528   8.074  17.916  0.00  0.00    +0.000 HD
ENDROOT
BRANCH   1   5
ATOM      5  C   UNL     1       4.900   6.572  16.585  0.00  0.00    +0.000 C 
BRANCH   5   8
ATOM      6  C   UNL     1       2.859   4.666  19.146  0.00  0.00    +0.000 A 
ATOM      7  C   UNL     1       3.483   5.722  18.491  0.00  0.00    +0.000 A 
ATOM      8  C   UNL     1       4.201   5.465  17.317  0.00  0.00    +0.000 A 
ATOM      9  C   UNL     1       4.293   4.147  16.868  0.00  0.00    +0.000 A 
ATOM     10  C   UNL     1       3.639   3.161  17.583  0.00  0.00    +0.000 A 
ATOM     11  N   UNL     1       2.927   3.391  18.704  0.00  0.00    +0.000 NA
BRANCH   6  13
ATOM     12  C   UNL     1       1.893   3.340  21.365  0.00  0.00    +0.000 C 
ATOM     13  S   UNL     1       1.932   4.999  20.635  0.00  0.00    +0.000 S 
ENDBRANCH   6  13
ENDBRANCH   5   8
ENDBRANCH   1   5
BRANCH   2  14
ATOM     14  C   UNL     1       8.113   7.937  18.096  0.00  0.00    +0.000 C 
BRANCH  14  15
ATOM     15  C   UNL     1       8.273   9.389  17.668  0.00  0.00    +0.000 C 
BRANCH  15  16
ATOM     16  O   UNL     1       8.325  10.208  18.839  0.00  0.00    +0.000 OA
BRANCH  16  17
ATOM     17  C   UNL     1       9.459  10.941  19.069  0.00  0.00    +0.000 A 
ATOM     18  C   UNL     1      10.295  11.041  17.944  0.00  0.00    +0.000 A 
ATOM     19  C   UNL     1      11.531  11.685  18.013  0.00  0.00    +0.000 A 
ATOM     20  C   UNL     1      11.956  12.225  19.219  0.00  0.00    +0.000 A 
ATOM     21  C   UNL     1      11.140  12.124  20.345  0.00  0.00    +0.000 A 
ATOM     22  C   UNL     1       9.888  11.476  20.294  0.00  0.00    +0.000 A 
ATOM     23  C   UNL     1       9.119  11.375  21.577  0.00  0.00    +0.000 C 
ENDBRANCH  16  17
ENDBRANCH  15  16
ENDBRANCH  14  15
ENDBRANCH   2  14
TORSDOF 7
ENDMDL
MODEL 7
REMARK VINA RESULT:      -6.6      1.916      4.165
REMARK  Name = 
REMARK  9 active torsions:
REMARK  status: ('A' for Active; 'I' for Inactive)
REMARK    1  A    between atoms: C_1  and  S_2
REMARK    2  A    between atoms: S_2  and  C_3
REMARK    3  A    between atoms: C_5  and  C_6
REMARK    4  A    between atoms: C_6  and  N_7
REMARK    5  A    between atoms: C_8  and  C_10
REMARK    6  A    between atoms: C_10  and  C_11
REMARK    7  A    between atoms: C_11  and  O_12
REMARK    8  A    between atoms: O_12  and  C_13
REMARK    9  A    between atoms: C_18  and  C_19
REMARK                            x       y       z     vdW  Elec       q    Type
REMARK                         _______ _______ _______ _____ _____    ______ ____
ROOT
ATOM      1  N   UNL     1       2.763   5.384  20.300  0.00  0.00    +0.000 N 
ATOM      2  C   UNL     1       2.138   4.201  20.004  0.00  0.00    +0.000 C 
ATOM      3  O   UNL     1       0.938   4.019  20.209  0.00  0.00    +0.000 OA
ATOM      4  H   UNL     1       3.648   5.575  19.844  0.00  0.00    +0.000 HD
ENDROOT
BRANCH   1   5
ATOM      5  C   UNL     1       1.996   6.519  20.741  0.00  0.00    +0.000 C 
BRANCH   5   8
ATOM      6  C   UNL     1       1.320   9.755  18.888  0.00  0.00    +0.000 A 
ATOM      7  C   UNL     1       1.315   8.797  19.896  0.00  0.00    +0.000 A 
ATOM      8  C   UNL     1       1.986   7.586  19.686  0.00  0.00    +0.000 A 
ATOM      9  C   UNL     1       2.606   7.373  18.454  0.00  0.00    +0.000 A 
ATOM     10  C   UNL     1       2.560   8.383  17.511  0.00  0.00    +0.000 A 
ATOM     11  N   UNL     1       1.936   9.563  17.702  0.00  0.00    +0.000 NA
BRANCH   6  13
ATOM     12  C   UNL     1       0.640  11.441  20.965  0.00  0.00    +0.000 C 
ATOM     13  S   UNL     1       0.476  11.303  19.164  0.00  0.00    +0.000 S 
ENDBRANCH   6  13
ENDBRANCH   5   8
ENDBRANCH   1   5
BRANCH   2  14
ATOM     14  C   UNL     1       2.992   3.106  19.389  0.00  0.00    +0.000 C 
BRANCH  14  15
ATOM     15  C   UNL     1       4.466   3.429  19.189  0.00  0.00    +0.000 C 
BRANCH  15  16
ATOM     16  O   UNL     1       4.592   4.325  18.081  0.00  0.00    +0.000 OA
BRANCH  16  17
ATOM     17  C   UNL     1       5.681   5.155  18.038  0.00  0.00    +0.000 A 
ATOM     18  C   UNL     1       6.493   5.069  19.182  0.00  0.00    +0.000 A 
ATOM     19  C   UNL     1       7.604   5.896  19.347  0.00  0.00    +0.000 A 
ATOM     20  C   UNL     1       7.908   6.838  18.374  0.00  0.00    +0.000 A 
ATOM     21  C   UNL     1       7.105   6.939  17.239  0.00  0.00    +0.000 A 
ATOM     22  C   UNL     1       5.978   6.112  17.055  0.00  0.00    +0.000 A 
ATOM     23  C   UNL     1       5.152   6.346  15.825  0.00  0.00    +0.000 C 
ENDBRANCH  16  17
ENDBRANCH  15  16
ENDBRANCH  14  15
ENDBRANCH   2  14
TORSDOF 7
ENDMDL
MODEL 8
REMARK VINA RESULT:      -6.5      5.836      6.386
REMARK  Name = 
REMARK  9 active torsions:
REMARK  status: ('A' for Active; 'I' for Inactive)
REMARK    1  A    between atoms: C_1  and  S_2
REMARK    2  A    between atoms: S_2  and  C_3
REMARK    3  A    between atoms: C_5  and  C_6
REMARK    4  A    between atoms: C_6  and  N_7
REMARK    5  A    between atoms: C_8  and  C_10
REMARK    6  A    between atoms: C_10  and  C_11
REMARK    7  A    between atoms: C_11  and  O_12
REMARK    8  A    between atoms: O_12  and  C_13
REMARK    9  A    between atoms: C_18  and  C_19
REMARK                            x       y       z     vdW  Elec       q    Type
REMARK                         _______ _______ _______ _____ _____    ______ ____
ROOT
ATOM      1  N   UNL     1       8.369   8.529  18.411  0.00  0.00    +0.000 N 
ATOM      2  C   UNL     1       7.674   7.482  17.865  0.00  0.00    +0.000 C 
ATOM      3  O   UNL     1       7.022   7.592  16.826  0.00  0.00    +0.000 OA
ATOM      4  H   UNL     1       9.106   8.309  19.070  0.00  0.00    +0.000 HD
ENDROOT
BRANCH   1   5
ATOM      5  C   UNL     1       8.474   9.777  17.703  0.00  0.00    +0.000 C 
BRANCH   5   8
ATOM      6  C   UNL     1      10.575  12.772  18.692  0.00  0.00    +0.000 A 
ATOM      7  C   UNL     1       9.860  11.876  17.905  0.00  0.00    +0.000 A 
ATOM      8  C   UNL     1       9.244  10.776  18.515  0.00  0.00    +0.000 A 
ATOM      9  C   UNL     1       9.403  10.603  19.890  0.00  0.00    +0.000 A 
ATOM     10  C   UNL     1      10.130  11.546  20.593  0.00  0.00    +0.000 A 
ATOM     11  N   UNL     1      10.714  12.621  20.026  0.00  0.00    +0.000 NA
BRANCH   6  13
ATOM     12  C   UNL     1      11.448  15.312  19.326  0.00  0.00    +0.000 C 
ATOM     13  S   UNL     1      11.346  14.181  17.913  0.00  0.00    +0.000 S 
ENDBRANCH   6  13
ENDBRANCH   5   8
ENDBRANCH   1   5
BRANCH   2  14
ATOM     14  C   UNL     1       7.749   6.151  18.592  0.00  0.00    +0.000 C 
BRANCH  14  15
ATOM     15  C   UNL     1       6.883   5.027  18.038  0.00  0.00    +0.000 C 
BRANCH  15  16
ATOM     16  O   UNL     1       6.094   4.491  19.102  0.00  0.00    +0.000 OA
BRANCH  16  17
ATOM     17  C   UNL     1       4.791   4.157  18.841  0.00  0.00    +0.000 A 
ATOM     18  C   UNL     1       4.138   5.079  18.003  0.00  0.00    +0.000 A 
ATOM     19  C   UNL     1       2.785   4.943  17.690  0.00  0.00    +0.000 A 
ATOM     20  C   UNL     1       2.060   3.890  18.229  0.00  0.00    +0.000 A 
ATOM     21  C   UNL     1       2.694   2.974  19.068  0.00  0.00    +0.000 A 
ATOM     22  C   UNL     1       4.060   3.096  19.395  0.00  0.00    +0.000 A 
ATOM     23  C   UNL     1       4.625   2.089  20.353  0.00  0.00    +0.000 C 
ENDBRANCH  16  17
ENDBRANCH  15  16
ENDBRANCH  14  15
ENDBRANCH   2  14
TORSDOF 7
ENDMDL
MODEL 9
REMARK VINA RESULT:      -6.5      2.982      5.961
REMARK  Name = 
REMARK  9 active torsions:
REMARK  status: ('A' for Active; 'I' for Inactive)
REMARK    1  A    between atoms: C_1  and  S_2
REMARK    2  A    between atoms: S_2  and  C_3
REMARK    3  A    between atoms: C_5  and  C_6
REMARK    4  A    between atoms: C_6  and  N_7
REMARK    5  A    between atoms: C_8  and  C_10
REMARK    6  A    between atoms: C_10  and  C_11
REMARK    7  A    between atoms: C_11  and  O_12
REMARK    8  A    between atoms: O_12  and  C_13
REMARK    9  A    between atoms: C_18  and  C_19
REMARK                            x       y       z     vdW  Elec       q    Type
REMARK                         _______ _______ _______ _____ _____    ______ ____
ROOT
ATOM      1  N   UNL     1       3.252   3.625  17.542  0.00  0.00    +0.000 N 
ATOM      2  C   UNL     1       2.932   3.536  18.871  0.00  0.00    +0.000 C 
ATOM      3  O   UNL     1       3.579   2.848  19.661  0.00  0.00    +0.000 OA
ATOM      4  H   UNL     1       2.886   4.414  17.023  0.00  0.00    +0.000 HD
ENDROOT
BRANCH   1   5
ATOM      5  C   UNL     1       4.456   3.015  17.043  0.00  0.00    +0.000 C 
BRANCH   5   8
ATOM      6  C   UNL     1       7.040   5.784  17.184  0.00  0.00    +0.000 A 
ATOM      7  C   UNL     1       6.140   4.810  17.601  0.00  0.00    +0.000 A 
ATOM      8  C   UNL     1       5.446   4.067  16.638  0.00  0.00    +0.000 A 
ATOM      9  C   UNL     1       5.661   4.360  15.291  0.00  0.00    +0.000 A 
ATOM     10  C   UNL     1       6.575   5.345  14.968  0.00  0.00    +0.000 A 
ATOM     11  N   UNL     1       7.267   6.057  15.881  0.00  0.00    +0.000 NA
BRANCH   6  13
ATOM     12  C   UNL     1       7.775   8.388  17.724  0.00  0.00    +0.000 C 
ATOM     13  S   UNL     1       7.933   6.719  18.414  0.00  0.00    +0.000 S 
ENDBRANCH   6  13
ENDBRANCH   5   8
ENDBRANCH   1   5
BRANCH   2  14
ATOM     14  C   UNL     1       1.737   4.342  19.348  0.00  0.00    +0.000 C 
BRANCH  14  15
ATOM     15  C   UNL     1       1.993   5.328  20.479  0.00  0.00    +0.000 C 
BRANCH  15  16
ATOM     16  O   UNL     1       2.915   6.320  20.021  0.00  0.00    +0.000 OA
BRANCH  16  17
ATOM     17  C   UNL     1       2.413   7.486  19.506  0.00  0.00    +0.000 A 
ATOM     18  C   UNL     1       1.518   8.137  20.373  0.00  0.00    +0.000 A 
ATOM     19  C   UNL     1       0.849   9.299  19.986  0.00  0.00    +0.000 A 
ATOM     20  C   UNL     1       1.054   9.817  18.715  0.00  0.00    +0.000 A 
ATOM     21  C   UNL     1       1.932   9.174  17.842  0.00  0.00    +0.000 A 
ATOM     22  C   UNL     1       2.616   7.999  18.216  0.00  0.00    +0.000 A 
ATOM     23  C   UNL     1       3.491   7.360  17.179  0.00  0.00    +0.000 C 
ENDBRANCH  16  17
ENDBRANCH  15  16
ENDBRANCH  14  15
ENDBRANCH   2  14
TORSDOF 7
ENDMDL
