MODEL 1
REMARK VINA RESULT:      -8.1      0.000      0.000
REMARK  Name = 
REMARK  3 active torsions:
REMARK  status: ('A' for Active; 'I' for Inactive)
REMARK    1  A    between atoms: C_1  and  C_2
REMARK    2  A    between atoms: C_2  and  C_3
REMARK    3  A    between atoms: C_3  and  C_4
REMARK                            x       y       z     vdW  Elec       q    Type
REMARK                         _______ _______ _______ _____ _____    ______ ____
ROOT
ATOM      1  C   UNL     1       4.275   6.002  17.616  0.00  0.00    +0.000 C 
ATOM      2  O   UNL     1       4.884   7.030  17.319  0.00  0.00    +0.000 OA
ATOM      3  N   UNL     1       3.032   6.012  18.232  0.00  0.00    +0.000 N 
ATOM      4  C   UNL     1       2.400   7.205  18.602  0.00  0.00    +0.000 A 
ATOM      5  C   UNL     1       2.192   8.223  17.686  0.00  0.00    +0.000 A 
ATOM      6  C   UNL     1       1.545   9.371  18.121  0.00  0.00    +0.000 A 
ATOM      7  C   UNL     1       1.200   9.489  19.470  0.00  0.00    +0.000 A 
ATOM      8  C   UNL     1       0.632  10.675  19.980  0.00  0.00    +0.000 A 
ATOM      9  C   UNL     1       0.390  10.768  21.339  0.00  0.00    +0.000 A 
ATOM     10 CL   UNL     1      -0.240  12.212  22.019  0.00  0.00    +0.000 Cl
ATOM     11  C   UNL     1       0.690   9.676  22.127  0.00  0.00    +0.000 A 
ATOM     12  N   UNL     1       1.188   8.505  21.642  0.00  0.00    +0.000 NA
ATOM     13  C   UNL     1       1.452   8.403  20.335  0.00  0.00    +0.000 A 
ATOM     14  N   UNL     1       1.976   7.266  19.878  0.00  0.00    +0.000 NA
ATOM     15  H   UNL     1       2.829   5.265  18.878  0.00  0.00    +0.000 HD
ENDROOT
BRANCH   1  16
ATOM     16  C   UNL     1       4.853   4.599  17.285  0.00  0.00    +0.000 C 
ATOM     17  C   UNL     1       5.362   4.556  15.815  0.00  0.00    +0.000 C 
ATOM     18  C   UNL     1       6.721   5.222  15.618  0.00  0.00    +0.000 C 
ATOM     19  O   UNL     1       7.683   4.723  16.544  0.00  0.00    +0.000 OA
ATOM     20  C   UNL     1       7.305   4.978  17.891  0.00  0.00    +0.000 C 
ATOM     21  C   UNL     1       6.029   4.217  18.218  0.00  0.00    +0.000 C 
BRANCH  16  23
ATOM     22  C   UNL     1       3.889   2.605  18.677  0.00  0.00    +0.000 C 
ATOM     23  C   UNL     1       3.734   3.533  17.476  0.00  0.00    +0.000 C 
ENDBRANCH  16  23
ENDBRANCH   1  16
TORSDOF 2
ENDMDL
MODEL 2
REMARK VINA RESULT:      -7.8      2.102      3.213
REMARK  Name = 
REMARK  3 active torsions:
REMARK  status: ('A' for Active; 'I' for Inactive)
REMARK    1  A    between atoms: C_1  and  C_2
REMARK    2  A    between atoms: C_2  and  C_3
REMARK    3  A    between atoms: C_3  and  C_4
REMARK                            x       y       z     vdW  Elec       q    Type
REMARK                         _______ _______ _______ _____ _____    ______ ____
ROOT
ATOM      1  C   UNL     1       2.708   5.303  18.703  0.00  0.00    +0.000 C 
ATOM      2  O   UNL     1       1.697   4.815  19.208  0.00  0.00    +0.000 OA
ATOM      3  N   UNL     1       3.024   6.650  18.796  0.00  0.00    +0.000 N 
ATOM      4  C   UNL     1       2.181   7.564  19.440  0.00  0.00    +0.000 A 
ATOM      5  C   UNL     1       1.753   7.355  20.740  0.00  0.00    +0.000 A 
ATOM      6  C   UNL     1       0.930   8.312  21.320  0.00  0.00    +0.000 A 
ATOM      7  C   UNL     1       0.506   9.401  20.552  0.00  0.00    +0.000 A 
ATOM      8  C   UNL     1      -0.407  10.345  21.063  0.00  0.00    +0.000 A 
ATOM      9  C   UNL     1      -0.860  11.353  20.230  0.00  0.00    +0.000 A 
ATOM     10 CL   UNL     1      -2.020  12.490  20.783  0.00  0.00    +0.000 Cl
ATOM     11  C   UNL     1      -0.364  11.402  18.943  0.00  0.00    +0.000 A 
ATOM     12  N   UNL     1       0.560  10.530  18.453  0.00  0.00    +0.000 NA
ATOM     13  C   UNL     1       0.990   9.534  19.233  0.00  0.00    +0.000 A 
ATOM     14  N   UNL     1       1.864   8.663  18.729  0.00  0.00    +0.000 NA
ATOM     15  H   UNL     1       3.502   7.069  18.014  0.00  0.00    +0.000 HD
ENDROOT
BRANCH   1  16
ATOM     16  C   UNL     1       3.735   4.420  17.941  0.00  0.00    +0.000 C 
ATOM     17  C   UNL     1       4.725   3.758  18.941  0.00  0.00    +0.000 C 
ATOM     18  C   UNL     1       4.143   2.548  19.669  0.00  0.00    +0.000 C 
ATOM     19  O   UNL     1       3.584   1.611  18.753  0.00  0.00    +0.000 OA
ATOM     20  C   UNL     1       2.516   2.176  18.001  0.00  0.00    +0.000 C 
ATOM     21  C   UNL     1       3.047   3.299  17.122  0.00  0.00    +0.000 C 
BRANCH  16  23
ATOM     22  C   UNL     1       5.200   4.589  15.781  0.00  0.00    +0.000 C 
ATOM     23  C   UNL     1       4.528   5.314  16.943  0.00  0.00    +0.000 C 
ENDBRANCH  16  23
ENDBRANCH   1  16
TORSDOF 2
ENDMDL
MODEL 3
REMARK VINA RESULT:      -7.7      1.052      1.913
REMARK  Name = 
REMARK  3 active torsions:
REMARK  status: ('A' for Active; 'I' for Inactive)
REMARK    1  A    between atoms: C_1  and  C_2
REMARK    2  A    between atoms: C_2  and  C_3
REMARK    3  A    between atoms: C_3  and  C_4
REMARK                            x       y       z     vdW  Elec       q    Type
REMARK                         _______ _______ _______ _____ _____    ______ ____
ROOT
ATOM      1  C   UNL     1       4.281   6.647  17.495  0.00  0.00    +0.000 C 
ATOM      2  O   UNL     1       4.705   7.762  17.190  0.00  0.00    +0.000 OA
ATOM      3  N   UNL     1       3.103   6.455  18.202  0.00  0.00    +0.000 N 
ATOM      4  C   UNL     1       2.332   7.530  18.659  0.00  0.00    +0.000 A 
ATOM      5  C   UNL     1       1.903   8.526  17.798  0.00  0.00    +0.000 A 
ATOM      6  C   UNL     1       1.129   9.553  18.320  0.00  0.00    +0.000 A 
ATOM      7  C   UNL     1       0.877   9.586  19.694  0.00  0.00    +0.000 A 
ATOM      8  C   UNL     1       0.181  10.659  20.286  0.00  0.00    +0.000 A 
ATOM      9  C   UNL     1       0.036  10.684  21.662  0.00  0.00    +0.000 A 
ATOM     10 CL   UNL     1      -0.746  11.999  22.437  0.00  0.00    +0.000 Cl
ATOM     11  C   UNL     1       0.556   9.630  22.387  0.00  0.00    +0.000 A 
ATOM     12  N   UNL     1       1.183   8.560  21.825  0.00  0.00    +0.000 NA
ATOM     13  C   UNL     1       1.355   8.530  20.500  0.00  0.00    +0.000 A 
ATOM     14  N   UNL     1       2.005   7.497  19.966  0.00  0.00    +0.000 NA
ATOM     15  H   UNL     1       3.065   5.671  18.835  0.00  0.00    +0.000 HD
ENDROOT
BRANCH   1  16
ATOM     16  C   UNL     1       5.033   5.356  17.073  0.00  0.00    +0.000 C 
ATOM     17  C   UNL     1       6.443   5.311  17.729  0.00  0.00    +0.000 C 
ATOM     18  C   UNL     1       6.424   4.885  19.195  0.00  0.00    +0.000 C 
ATOM     19  O   UNL     1       5.699   3.670  19.372  0.00  0.00    +0.000 OA
ATOM     20  C   UNL     1       4.339   3.799  18.976  0.00  0.00    +0.000 C 
ATOM     21  C   UNL     1       4.266   4.073  17.482  0.00  0.00    +0.000 C 
BRANCH  16  23
ATOM     22  C   UNL     1       6.006   4.198  14.939  0.00  0.00    +0.000 C 
ATOM     23  C   UNL     1       5.183   5.341  15.523  0.00  0.00    +0.000 C 
ENDBRANCH  16  23
ENDBRANCH   1  16
TORSDOF 2
ENDMDL
MODEL 4
REMARK VINA RESULT:      -7.6      1.203      2.367
REMARK  Name = 
REMARK  3 active torsions:
REMARK  status: ('A' for Active; 'I' for Inactive)
REMARK    1  A    between atoms: C_1  and  C_2
REMARK    2  A    between atoms: C_2  and  C_3
REMARK    3  A    between atoms: C_3  and  C_4
REMARK                            x       y       z     vdW  Elec       q    Type
REMARK                         _______ _______ _______ _____ _____    ______ ____
ROOT
ATOM      1  C   UNL     1       4.348   6.013  17.852  0.00  0.00    +0.000 C 
ATOM      2  O   UNL     1       4.906   7.047  17.487  0.00  0.00    +0.000 OA
ATOM      3  N   UNL     1       3.111   6.003  18.479  0.00  0.00    +0.000 N 
ATOM      4  C   UNL     1       2.427   7.186  18.782  0.00  0.00    +0.000 A 
ATOM      5  C   UNL     1       2.165   8.136  17.808  0.00  0.00    +0.000 A 
ATOM      6  C   UNL     1       1.468   9.277  18.179  0.00  0.00    +0.000 A 
ATOM      7  C   UNL     1       1.127   9.462  19.522  0.00  0.00    +0.000 A 
ATOM      8  C   UNL     1       0.509  10.649  19.965  0.00  0.00    +0.000 A 
ATOM      9  C   UNL     1       0.273  10.815  21.318  0.00  0.00    +0.000 A 
ATOM     10 CL   UNL     1      -0.419  12.266  21.915  0.00  0.00    +0.000 Cl
ATOM     11  C   UNL     1       0.629   9.787  22.168  0.00  0.00    +0.000 A 
ATOM     12  N   UNL     1       1.177   8.613  21.750  0.00  0.00    +0.000 NA
ATOM     13  C   UNL     1       1.436   8.444  20.449  0.00  0.00    +0.000 A 
ATOM     14  N   UNL     1       2.009   7.306  20.057  0.00  0.00    +0.000 NA
ATOM     15  H   UNL     1       2.948   5.289  19.172  0.00  0.00    +0.000 HD
ENDROOT
BRANCH   1  16
ATOM     16  C   UNL     1       4.988   4.620  17.601  0.00  0.00    +0.000 C 
ATOM     17  C   UNL     1       5.233   3.885  18.950  0.00  0.00    +0.000 C 
ATOM     18  C   UNL     1       3.974   3.260  19.546  0.00  0.00    +0.000 C 
ATOM     19  O   UNL     1       3.302   2.441  18.592  0.00  0.00    +0.000 OA
ATOM     20  C   UNL     1       2.879   3.186  17.456  0.00  0.00    +0.000 C 
ATOM     21  C   UNL     1       4.094   3.719  16.712  0.00  0.00    +0.000 C 
BRANCH  16  23
ATOM     22  C   UNL     1       7.600   4.672  17.717  0.00  0.00    +0.000 C 
ATOM     23  C   UNL     1       6.345   4.812  16.863  0.00  0.00    +0.000 C 
ENDBRANCH  16  23
ENDBRANCH   1  16
TORSDOF 2
ENDMDL
MODEL 5
REMARK VINA RESULT:      -7.4      2.363      3.634
REMARK  Name = 
REMARK  3 active torsions:
REMARK  status: ('A' for Active; 'I' for Inactive)
REMARK    1  A    between atoms: C_1  and  C_2
REMARK    2  A    between atoms: C_2  and  C_3
REMARK    3  A    between atoms: C_3  and  C_4
REMARK                            x       y       z     vdW  Elec       q    Type
REMARK                         _______ _______ _______ _____ _____    ______ ____
ROOT
ATOM      1  C   UNL     1       2.463   5.569  19.805  0.00  0.00    +0.000 C 
ATOM      2  O   UNL     1       1.467   5.176  20.413  0.00  0.00    +0.000 OA
ATOM      3  N   UNL     1       2.741   6.913  19.599  0.00  0.00    +0.000 N 
ATOM      4  C   UNL     1       1.874   7.922  20.036  0.00  0.00    +0.000 A 
ATOM      5  C   UNL     1       1.455   7.990  21.354  0.00  0.00    +0.000 A 
ATOM      6  C   UNL     1       0.608   9.027  21.718  0.00  0.00    +0.000 A 
ATOM      7  C   UNL     1       0.151   9.911  20.735  0.00  0.00    +0.000 A 
ATOM      8  C   UNL     1      -0.788  10.919  21.035  0.00  0.00    +0.000 A 
ATOM      9  C   UNL     1      -1.270  11.709  20.007  0.00  0.00    +0.000 A 
ATOM     10 CL   UNL     1      -2.461  12.907  20.308  0.00  0.00    +0.000 Cl
ATOM     11  C   UNL     1      -0.779  11.489  18.736  0.00  0.00    +0.000 A 
ATOM     12  N   UNL     1       0.167  10.556  18.440  0.00  0.00    +0.000 NA
ATOM     13  C   UNL     1       0.627   9.766  19.414  0.00  0.00    +0.000 A 
ATOM     14  N   UNL     1       1.525   8.830  19.105  0.00  0.00    +0.000 NA
ATOM     15  H   UNL     1       3.205   7.164  18.740  0.00  0.00    +0.000 HD
ENDROOT
BRANCH   1  16
ATOM     16  C   UNL     1       3.512   4.570  19.245  0.00  0.00    +0.000 C 
ATOM     17  C   UNL     1       3.393   3.198  19.969  0.00  0.00    +0.000 C 
ATOM     18  C   UNL     1       2.231   2.341  19.470  0.00  0.00    +0.000 C 
ATOM     19  O   UNL     1       2.255   2.211  18.052  0.00  0.00    +0.000 OA
ATOM     20  C   UNL     1       2.132   3.469  17.399  0.00  0.00    +0.000 C 
ATOM     21  C   UNL     1       3.340   4.334  17.724  0.00  0.00    +0.000 C 
BRANCH  16  23
ATOM     22  C   UNL     1       5.887   5.091  18.282  0.00  0.00    +0.000 C 
ATOM     23  C   UNL     1       4.938   5.153  19.474  0.00  0.00    +0.000 C 
ENDBRANCH  16  23
ENDBRANCH   1  16
TORSDOF 2
ENDMDL
MODEL 6
REMARK VINA RESULT:      -7.3      1.851      2.325
REMARK  Name = 
REMARK  3 active torsions:
REMARK  status: ('A' for Active; 'I' for Inactive)
REMARK    1  A    between atoms: C_1  and  C_2
REMARK    2  A    between atoms: C_2  and  C_3
REMARK    3  A    between atoms: C_3  and  C_4
REMARK                            x       y       z     vdW  Elec       q    Type
REMARK                         _______ _______ _______ _____ _____    ______ ____
ROOT
ATOM      1  C   UNL     1       2.752   5.512  18.654  0.00  0.00    +0.000 C 
ATOM      2  O   UNL     1       1.808   4.990  19.246  0.00  0.00    +0.000 OA
ATOM      3  N   UNL     1       2.986   6.879  18.665  0.00  0.00    +0.000 N 
ATOM      4  C   UNL     1       2.129   7.771  19.319  0.00  0.00    +0.000 A 
ATOM      5  C   UNL     1       1.795   7.602  20.653  0.00  0.00    +0.000 A 
ATOM      6  C   UNL     1       0.951   8.534  21.239  0.00  0.00    +0.000 A 
ATOM      7  C   UNL     1       0.412   9.555  20.452  0.00  0.00    +0.000 A 
ATOM      8  C   UNL     1      -0.528  10.466  20.976  0.00  0.00    +0.000 A 
ATOM      9  C   UNL     1      -1.094  11.403  20.129  0.00  0.00    +0.000 A 
ATOM     10 CL   UNL     1      -2.289  12.492  20.703  0.00  0.00    +0.000 Cl
ATOM     11  C   UNL     1      -0.683  11.417  18.812  0.00  0.00    +0.000 A 
ATOM     12  N   UNL     1       0.262  10.579  18.303  0.00  0.00    +0.000 NA
ATOM     13  C   UNL     1       0.803   9.651  19.099  0.00  0.00    +0.000 A 
ATOM     14  N   UNL     1       1.698   8.812  18.580  0.00  0.00    +0.000 NA
ATOM     15  H   UNL     1       3.388   7.287  17.835  0.00  0.00    +0.000 HD
ENDROOT
BRANCH   1  16
ATOM     16  C   UNL     1       3.785   4.657  17.870  0.00  0.00    +0.000 C 
ATOM     17  C   UNL     1       4.477   5.515  16.773  0.00  0.00    +0.000 C 
ATOM     18  C   UNL     1       5.569   6.436  17.313  0.00  0.00    +0.000 C 
ATOM     19  O   UNL     1       6.503   5.717  18.115  0.00  0.00    +0.000 OA
ATOM     20  C   UNL     1       5.883   5.124  19.250  0.00  0.00    +0.000 C 
ATOM     21  C   UNL     1       4.882   4.073  18.795  0.00  0.00    +0.000 C 
BRANCH  16  23
ATOM     22  C   UNL     1       3.281   2.091  17.830  0.00  0.00    +0.000 C 
ATOM     23  C   UNL     1       3.047   3.460  17.201  0.00  0.00    +0.000 C 
ENDBRANCH  16  23
ENDBRANCH   1  16
TORSDOF 2
ENDMDL
MODEL 7
REMARK VINA RESULT:      -7.3      2.431      3.806
REMARK  Name = 
REMARK  3 active torsions:
REMARK  status: ('A' for Active; 'I' for Inactive)
REMARK    1  A    between atoms: C_1  and  C_2
REMARK    2  A    between atoms: C_2  and  C_3
REMARK    3  A    between atoms: C_3  and  C_4
REMARK                            x       y       z     vdW  Elec       q    Type
REMARK                         _______ _______ _______ _____ _____    ______ ____
ROOT
ATOM      1  C   UNL     1       2.096   6.116  19.708  0.00  0.00    +0.000 C 
ATOM      2  O   UNL     1       1.429   5.600  20.604  0.00  0.00    +0.000 OA
ATOM      3  N   UNL     1       2.204   7.489  19.541  0.00  0.00    +0.000 N 
ATOM      4  C   UNL     1       1.516   8.389  20.364  0.00  0.00    +0.000 A 
ATOM      5  C   UNL     1       1.626   8.332  21.743  0.00  0.00    +0.000 A 
ATOM      6  C   UNL     1       0.927   9.268  22.494  0.00  0.00    +0.000 A 
ATOM      7  C   UNL     1       0.085  10.174  21.842  0.00  0.00    +0.000 A 
ATOM      8  C   UNL     1      -0.721  11.076  22.565  0.00  0.00    +0.000 A 
ATOM      9  C   UNL     1      -1.599  11.890  21.872  0.00  0.00    +0.000 A 
ATOM     10 CL   UNL     1      -2.648  12.959  22.708  0.00  0.00    +0.000 Cl
ATOM     11  C   UNL     1      -1.617  11.798  20.495  0.00  0.00    +0.000 A 
ATOM     12  N   UNL     1      -0.806  10.972  19.779  0.00  0.00    +0.000 NA
ATOM     13  C   UNL     1       0.031  10.159  20.431  0.00  0.00    +0.000 A 
ATOM     14  N   UNL     1       0.792   9.326  19.722  0.00  0.00    +0.000 NA
ATOM     15  H   UNL     1       2.293   7.836  18.599  0.00  0.00    +0.000 HD
ENDROOT
BRANCH   1  16
ATOM     16  C   UNL     1       2.906   5.249  18.705  0.00  0.00    +0.000 C 
ATOM     17  C   UNL     1       3.873   4.300  19.468  0.00  0.00    +0.000 C 
ATOM     18  C   UNL     1       3.186   3.071  20.059  0.00  0.00    +0.000 C 
ATOM     19  O   UNL     1       2.411   2.388  19.077  0.00  0.00    +0.000 OA
ATOM     20  C   UNL     1       1.376   3.210  18.550  0.00  0.00    +0.000 C 
ATOM     21  C   UNL     1       1.986   4.386  17.804  0.00  0.00    +0.000 C 
BRANCH  16  23
ATOM     22  C   UNL     1       4.640   5.500  16.763  0.00  0.00    +0.000 C 
ATOM     23  C   UNL     1       3.730   6.188  17.775  0.00  0.00    +0.000 C 
ENDBRANCH  16  23
ENDBRANCH   1  16
TORSDOF 2
ENDMDL
MODEL 8
REMARK VINA RESULT:      -7.2      3.885      7.725
REMARK  Name = 
REMARK  3 active torsions:
REMARK  status: ('A' for Active; 'I' for Inactive)
REMARK    1  A    between atoms: C_1  and  C_2
REMARK    2  A    between atoms: C_2  and  C_3
REMARK    3  A    between atoms: C_3  and  C_4
REMARK                            x       y       z     vdW  Elec       q    Type
REMARK                         _______ _______ _______ _____ _____    ______ ____
ROOT
ATOM      1  C   UNL     1       0.523   9.864  19.447  0.00  0.00    +0.000 C 
ATOM      2  O   UNL     1       0.157   9.625  18.296  0.00  0.00    +0.000 OA
ATOM      3  N   UNL     1       1.428   9.067  20.132  0.00  0.00    +0.000 N 
ATOM      4  C   UNL     1       1.957   7.899  19.570  0.00  0.00    +0.000 A 
ATOM      5  C   UNL     1       2.579   7.913  18.333  0.00  0.00    +0.000 A 
ATOM      6  C   UNL     1       3.093   6.719  17.846  0.00  0.00    +0.000 A 
ATOM      7  C   UNL     1       2.898   5.544  18.578  0.00  0.00    +0.000 A 
ATOM      8  C   UNL     1       3.312   4.292  18.080  0.00  0.00    +0.000 A 
ATOM      9  C   UNL     1       3.016   3.153  18.806  0.00  0.00    +0.000 A 
ATOM     10 CL   UNL     1       3.442   1.600  18.212  0.00  0.00    +0.000 Cl
ATOM     11  C   UNL     1       2.353   3.304  20.007  0.00  0.00    +0.000 A 
ATOM     12  N   UNL     1       1.994   4.510  20.528  0.00  0.00    +0.000 NA
ATOM     13  C   UNL     1       2.249   5.621  19.830  0.00  0.00    +0.000 A 
ATOM     14  N   UNL     1       1.858   6.792  20.331  0.00  0.00    +0.000 NA
ATOM     15  H   UNL     1       1.309   8.982  21.129  0.00  0.00    +0.000 HD
ENDROOT
BRANCH   1  16
ATOM     16  C   UNL     1       0.014  11.117  20.211  0.00  0.00    +0.000 C 
ATOM     17  C   UNL     1       0.993  12.310  20.009  0.00  0.00    +0.000 C 
ATOM     18  C   UNL     1       0.840  13.005  18.658  0.00  0.00    +0.000 C 
ATOM     19  O   UNL     1      -0.516  13.363  18.409  0.00  0.00    +0.000 OA
ATOM     20  C   UNL     1      -1.368  12.225  18.370  0.00  0.00    +0.000 C 
ATOM     21  C   UNL     1      -1.394  11.558  19.737  0.00  0.00    +0.000 C 
BRANCH  16  23
ATOM     22  C   UNL     1      -1.128  11.556  22.523  0.00  0.00    +0.000 C 
ATOM     23  C   UNL     1      -0.083  10.780  21.728  0.00  0.00    +0.000 C 
ENDBRANCH  16  23
ENDBRANCH   1  16
TORSDOF 2
ENDMDL
MODEL 9
REMARK VINA RESULT:      -7.2      1.048      1.868
REMARK  Name = 
REMARK  3 active torsions:
REMARK  status: ('A' for Active; 'I' for Inactive)
REMARK    1  A    between atoms: C_1  and  C_2
REMARK    2  A    between atoms: C_2  and  C_3
REMARK    3  A    between atoms: C_3  and  C_4
REMARK                            x       y       z     vdW  Elec       q    Type
REMARK                         _______ _______ _______ _____ _____    ______ ____
ROOT
ATOM      1  C   UNL     1       4.907   6.487  17.839  0.00  0.00    +0.000 C 
ATOM      2  O   UNL     1       5.285   7.592  17.450  0.00  0.00    +0.000 OA
ATOM      3  N   UNL     1       3.655   6.271  18.395  0.00  0.00    +0.000 N 
ATOM      4  C   UNL     1       2.744   7.315  18.594  0.00  0.00    +0.000 A 
ATOM      5  C   UNL     1       2.374   8.155  17.557  0.00  0.00    +0.000 A 
ATOM      6  C   UNL     1       1.454   9.159  17.825  0.00  0.00    +0.000 A 
ATOM      7  C   UNL     1       0.998   9.333  19.135  0.00  0.00    +0.000 A 
ATOM      8  C   UNL     1       0.141  10.399  19.476  0.00  0.00    +0.000 A 
ATOM      9  C   UNL     1      -0.209  10.575  20.803  0.00  0.00    +0.000 A 
ATOM     10 CL   UNL     1      -1.197  11.894  21.280  0.00  0.00    +0.000 Cl
ATOM     11  C   UNL     1       0.276   9.671  21.727  0.00  0.00    +0.000 A 
ATOM     12  N   UNL     1       1.059   8.605  21.404  0.00  0.00    +0.000 NA
ATOM     13  C   UNL     1       1.430   8.432  20.132  0.00  0.00    +0.000 A 
ATOM     14  N   UNL     1       2.229   7.408  19.835  0.00  0.00    +0.000 NA
ATOM     15  H   UNL     1       3.582   5.569  19.115  0.00  0.00    +0.000 HD
ENDROOT
BRANCH   1  16
ATOM     16  C   UNL     1       5.810   5.231  17.701  0.00  0.00    +0.000 C 
ATOM     17  C   UNL     1       4.946   3.973  17.403  0.00  0.00    +0.000 C 
ATOM     18  C   UNL     1       4.490   3.872  15.949  0.00  0.00    +0.000 C 
ATOM     19  O   UNL     1       5.589   4.006  15.051  0.00  0.00    +0.000 OA
ATOM     20  C   UNL     1       6.232   5.268  15.182  0.00  0.00    +0.000 C 
ATOM     21  C   UNL     1       6.853   5.385  16.565  0.00  0.00    +0.000 C 
BRANCH  16  23
ATOM     22  C   UNL     1       7.834   5.881  19.225  0.00  0.00    +0.000 C 
ATOM     23  C   UNL     1       6.590   5.019  19.032  0.00  0.00    +0.000 C 
ENDBRANCH  16  23
ENDBRANCH   1  16
TORSDOF 2
ENDMDL
