MODEL 1
REMARK VINA RESULT:      -5.2      0.000      0.000
REMARK  Name = 
REMARK  10 active torsions:
REMARK  status: ('A' for Active; 'I' for Inactive)
REMARK    1  A    between atoms: C_1  and  C_2
REMARK    2  A    between atoms: C_2  and  C_3
REMARK    3  A    between atoms: C_3  and  O_5
REMARK    4  A    between atoms: O_5  and  C_6
REMARK    5  A    between atoms: C_6  and  O_7
REMARK    6  A    between atoms: O_7  and  C_8
REMARK    7  A    between atoms: C_8  and  C_10
REMARK    8  A    between atoms: C_10  and  C_11
REMARK    9  A    between atoms: C_10  and  C_12
REMARK   10  A    between atoms: C_10  and  C_13
REMARK                            x       y       z     vdW  Elec       q    Type
REMARK                         _______ _______ _______ _____ _____    ______ ____
ROOT
ATOM      1  O   UNL     1       4.990   5.185  19.259  0.00  0.00    +0.000 OA
ENDROOT
BRANCH   1   2
ATOM      2  C   UNL     1       6.309   5.461  19.086  0.00  0.00    +0.000 C 
ATOM      3  O   UNL     1       7.163   5.326  19.953  0.00  0.00    +0.000 OA
BRANCH   2   4
ATOM      4  C   UNL     1       6.587   5.971  17.668  0.00  0.00    +0.000 C 
ATOM      5  C   UNL     1       7.139   4.829  16.809  0.00  0.00    +0.000 C 
ATOM      6  C   UNL     1       5.272   6.479  17.056  0.00  0.00    +0.000 C 
ATOM      7  C   UNL     1       7.594   7.127  17.716  0.00  0.00    +0.000 C 
ENDBRANCH   2   4
ENDBRANCH   1   2
BRANCH   1   8
ATOM      8  C   UNL     1       4.679   3.791  19.343  0.00  0.00    +0.000 C 
BRANCH   8   9
ATOM      9  O   UNL     1       3.819   3.367  18.284  0.00  0.00    +0.000 OA
BRANCH   9  10
ATOM     10  C   UNL     1       2.615   2.896  18.697  0.00  0.00    +0.000 C 
ATOM     11  O   UNL     1       2.350   1.720  18.906  0.00  0.00    +0.000 OA
BRANCH  10  13
ATOM     12  C   UNL     1       0.995   4.026  20.229  0.00  0.00    +0.000 C 
ATOM     13  C   UNL     1       1.646   4.042  18.858  0.00  0.00    +0.000 C 
ENDBRANCH  10  13
ENDBRANCH   9  10
ENDBRANCH   8   9
ENDBRANCH   1   8
TORSDOF 6
ENDMDL
MODEL 2
REMARK VINA RESULT:      -5.2      1.685      4.942
REMARK  Name = 
REMARK  10 active torsions:
REMARK  status: ('A' for Active; 'I' for Inactive)
REMARK    1  A    between atoms: C_1  and  C_2
REMARK    2  A    between atoms: C_2  and  C_3
REMARK    3  A    between atoms: C_3  and  O_5
REMARK    4  A    between atoms: O_5  and  C_6
REMARK    5  A    between atoms: C_6  and  O_7
REMARK    6  A    between atoms: O_7  and  C_8
REMARK    7  A    between atoms: C_8  and  C_10
REMARK    8  A    between atoms: C_10  and  C_11
REMARK    9  A    between atoms: C_10  and  C_12
REMARK   10  A    between atoms: C_10  and  C_13
REMARK                            x       y       z     vdW  Elec       q    Type
REMARK                         _______ _______ _______ _____ _____    ______ ____
ROOT
ATOM      1  O   UNL     1       4.376   4.337  19.787  0.00  0.00    +0.000 OA
ENDROOT
BRANCH   1   2
ATOM      2  C   UNL     1       3.106   4.817  19.728  0.00  0.00    +0.000 C 
ATOM      3  O   UNL     1       2.764   5.919  20.136  0.00  0.00    +0.000 OA
BRANCH   2   4
ATOM      4  C   UNL     1       2.156   3.797  19.091  0.00  0.00    +0.000 C 
ATOM      5  C   UNL     1       1.763   4.266  17.686  0.00  0.00    +0.000 C 
ATOM      6  C   UNL     1       2.876   2.443  18.993  0.00  0.00    +0.000 C 
ATOM      7  C   UNL     1       0.903   3.634  19.961  0.00  0.00    +0.000 C 
ENDBRANCH   2   4
ENDBRANCH   1   2
BRANCH   1   8
ATOM      8  C   UNL     1       5.347   5.133  19.101  0.00  0.00    +0.000 C 
BRANCH   8   9
ATOM      9  O   UNL     1       6.447   4.352  18.633  0.00  0.00    +0.000 OA
BRANCH   9  10
ATOM     10  C   UNL     1       6.791   4.591  17.341  0.00  0.00    +0.000 C 
ATOM     11  O   UNL     1       7.905   4.420  16.863  0.00  0.00    +0.000 OA
BRANCH  10  13
ATOM     12  C   UNL     1       5.429   4.380  15.256  0.00  0.00    +0.000 C 
ATOM     13  C   UNL     1       5.593   5.104  16.580  0.00  0.00    +0.000 C 
ENDBRANCH  10  13
ENDBRANCH   9  10
ENDBRANCH   8   9
ENDBRANCH   1   8
TORSDOF 6
ENDMDL
MODEL 3
REMARK VINA RESULT:      -5.2      1.575      5.302
REMARK  Name = 
REMARK  10 active torsions:
REMARK  status: ('A' for Active; 'I' for Inactive)
REMARK    1  A    between atoms: C_1  and  C_2
REMARK    2  A    between atoms: C_2  and  C_3
REMARK    3  A    between atoms: C_3  and  O_5
REMARK    4  A    between atoms: O_5  and  C_6
REMARK    5  A    between atoms: C_6  and  O_7
REMARK    6  A    between atoms: O_7  and  C_8
REMARK    7  A    between atoms: C_8  and  C_10
REMARK    8  A    between atoms: C_10  and  C_11
REMARK    9  A    between atoms: C_10  and  C_12
REMARK   10  A    between atoms: C_10  and  C_13
REMARK                            x       y       z     vdW  Elec       q    Type
REMARK                         _______ _______ _______ _____ _____    ______ ____
ROOT
ATOM      1  O   UNL     1       3.987   4.675  19.412  0.00  0.00    +0.000 OA
ENDROOT
BRANCH   1   2
ATOM      2  C   UNL     1       3.274   3.520  19.341  0.00  0.00    +0.000 C 
ATOM      3  O   UNL     1       3.573   2.566  18.635  0.00  0.00    +0.000 OA
BRANCH   2   4
ATOM      4  C   UNL     1       2.045   3.570  20.254  0.00  0.00    +0.000 C 
ATOM      5  C   UNL     1       2.353   2.853  21.573  0.00  0.00    +0.000 C 
ATOM      6  C   UNL     1       1.700   5.040  20.542  0.00  0.00    +0.000 C 
ATOM      7  C   UNL     1       0.850   2.904  19.561  0.00  0.00    +0.000 C 
ENDBRANCH   2   4
ENDBRANCH   1   2
BRANCH   1   8
ATOM      8  C   UNL     1       5.378   4.536  19.111  0.00  0.00    +0.000 C 
BRANCH   8   9
ATOM      9  O   UNL     1       5.691   4.991  17.794  0.00  0.00    +0.000 OA
BRANCH   9  10
ATOM     10  C   UNL     1       6.931   4.643  17.363  0.00  0.00    +0.000 C 
ATOM     11  O   UNL     1       7.890   4.408  18.087  0.00  0.00    +0.000 OA
BRANCH  10  13
ATOM     12  C   UNL     1       5.548   4.579  15.283  0.00  0.00    +0.000 C 
ATOM     13  C   UNL     1       6.954   4.594  15.855  0.00  0.00    +0.000 C 
ENDBRANCH  10  13
ENDBRANCH   9  10
ENDBRANCH   8   9
ENDBRANCH   1   8
TORSDOF 6
ENDMDL
MODEL 4
REMARK VINA RESULT:      -5.1      1.243      1.607
REMARK  Name = 
REMARK  10 active torsions:
REMARK  status: ('A' for Active; 'I' for Inactive)
REMARK    1  A    between atoms: C_1  and  C_2
REMARK    2  A    between atoms: C_2  and  C_3
REMARK    3  A    between atoms: C_3  and  O_5
REMARK    4  A    between atoms: O_5  and  C_6
REMARK    5  A    between atoms: C_6  and  O_7
REMARK    6  A    between atoms: O_7  and  C_8
REMARK    7  A    between atoms: C_8  and  C_10
REMARK    8  A    between atoms: C_10  and  C_11
REMARK    9  A    between atoms: C_10  and  C_12
REMARK   10  A    between atoms: C_10  and  C_13
REMARK                            x       y       z     vdW  Elec       q    Type
REMARK                         _______ _______ _______ _____ _____    ______ ____
ROOT
ATOM      1  O   UNL     1       5.549   3.909  19.042  0.00  0.00    +0.000 OA
ENDROOT
BRANCH   1   2
ATOM      2  C   UNL     1       5.572   5.182  18.568  0.00  0.00    +0.000 C 
ATOM      3  O   UNL     1       4.589   5.907  18.487  0.00  0.00    +0.000 OA
BRANCH   2   4
ATOM      4  C   UNL     1       6.986   5.590  18.143  0.00  0.00    +0.000 C 
ATOM      5  C   UNL     1       7.558   4.542  17.182  0.00  0.00    +0.000 C 
ATOM      6  C   UNL     1       6.916   6.951  17.431  0.00  0.00    +0.000 C 
ATOM      7  C   UNL     1       7.887   5.720  19.377  0.00  0.00    +0.000 C 
ENDBRANCH   2   4
ENDBRANCH   1   2
BRANCH   1   8
ATOM      8  C   UNL     1       4.251   3.434  19.412  0.00  0.00    +0.000 C 
BRANCH   8   9
ATOM      9  O   UNL     1       3.734   2.495  18.468  0.00  0.00    +0.000 OA
BRANCH   9  10
ATOM     10  C   UNL     1       2.472   2.765  18.047  0.00  0.00    +0.000 C 
ATOM     11  O   UNL     1       2.182   3.448  17.074  0.00  0.00    +0.000 OA
BRANCH  10  13
ATOM     12  C   UNL     1       0.821   3.104  19.893  0.00  0.00    +0.000 C 
ATOM     13  C   UNL     1       1.474   2.098  18.962  0.00  0.00    +0.000 C 
ENDBRANCH  10  13
ENDBRANCH   9  10
ENDBRANCH   8   9
ENDBRANCH   1   8
TORSDOF 6
ENDMDL
MODEL 5
REMARK VINA RESULT:      -5.1      1.362      2.008
REMARK  Name = 
REMARK  10 active torsions:
REMARK  status: ('A' for Active; 'I' for Inactive)
REMARK    1  A    between atoms: C_1  and  C_2
REMARK    2  A    between atoms: C_2  and  C_3
REMARK    3  A    between atoms: C_3  and  O_5
REMARK    4  A    between atoms: O_5  and  C_6
REMARK    5  A    between atoms: C_6  and  O_7
REMARK    6  A    between atoms: O_7  and  C_8
REMARK    7  A    between atoms: C_8  and  C_10
REMARK    8  A    between atoms: C_10  and  C_11
REMARK    9  A    between atoms: C_10  and  C_12
REMARK   10  A    between atoms: C_10  and  C_13
REMARK                            x       y       z     vdW  Elec       q    Type
REMARK                         _______ _______ _______ _____ _____    ______ ____
ROOT
ATOM      1  O   UNL     1       4.486   3.866  17.414  0.00  0.00    +0.000 OA
ENDROOT
BRANCH   1   2
ATOM      2  C   UNL     1       5.374   4.135  18.407  0.00  0.00    +0.000 C 
ATOM      3  O   UNL     1       5.366   3.595  19.505  0.00  0.00    +0.000 OA
BRANCH   2   4
ATOM      4  C   UNL     1       6.380   5.207  17.976  0.00  0.00    +0.000 C 
ATOM      5  C   UNL     1       7.210   5.651  19.185  0.00  0.00    +0.000 C 
ATOM      6  C   UNL     1       7.314   4.610  16.910  0.00  0.00    +0.000 C 
ATOM      7  C   UNL     1       5.641   6.409  17.375  0.00  0.00    +0.000 C 
ENDBRANCH   2   4
ENDBRANCH   1   2
BRANCH   1   8
ATOM      8  C   UNL     1       3.336   3.122  17.827  0.00  0.00    +0.000 C 
BRANCH   8   9
ATOM      9  O   UNL     1       2.327   3.963  18.390  0.00  0.00    +0.000 OA
BRANCH   9  10
ATOM     10  C   UNL     1       1.284   3.290  18.939  0.00  0.00    +0.000 C 
ATOM     11  O   UNL     1       0.655   2.393  18.393  0.00  0.00    +0.000 OA
BRANCH  10  13
ATOM     12  C   UNL     1       1.422   2.812  21.389  0.00  0.00    +0.000 C 
ATOM     13  C   UNL     1       1.010   3.816  20.327  0.00  0.00    +0.000 C 
ENDBRANCH  10  13
ENDBRANCH   9  10
ENDBRANCH   8   9
ENDBRANCH   1   8
TORSDOF 6
ENDMDL
MODEL 6
REMARK VINA RESULT:      -5.1      1.529      5.005
REMARK  Name = 
REMARK  10 active torsions:
REMARK  status: ('A' for Active; 'I' for Inactive)
REMARK    1  A    between atoms: C_1  and  C_2
REMARK    2  A    between atoms: C_2  and  C_3
REMARK    3  A    between atoms: C_3  and  O_5
REMARK    4  A    between atoms: O_5  and  C_6
REMARK    5  A    between atoms: C_6  and  O_7
REMARK    6  A    between atoms: O_7  and  C_8
REMARK    7  A    between atoms: C_8  and  C_10
REMARK    8  A    between atoms: C_10  and  C_11
REMARK    9  A    between atoms: C_10  and  C_12
REMARK   10  A    between atoms: C_10  and  C_13
REMARK                            x       y       z     vdW  Elec       q    Type
REMARK                         _______ _______ _______ _____ _____    ______ ____
ROOT
ATOM      1  O   UNL     1       3.534   4.877  19.017  0.00  0.00    +0.000 OA
ENDROOT
BRANCH   1   2
ATOM      2  C   UNL     1       3.021   3.740  19.555  0.00  0.00    +0.000 C 
ATOM      3  O   UNL     1       2.948   3.515  20.756  0.00  0.00    +0.000 OA
BRANCH   2   4
ATOM      4  C   UNL     1       2.550   2.773  18.464  0.00  0.00    +0.000 C 
ATOM      5  C   UNL     1       3.463   1.542  18.437  0.00  0.00    +0.000 C 
ATOM      6  C   UNL     1       1.111   2.334  18.777  0.00  0.00    +0.000 C 
ATOM      7  C   UNL     1       2.571   3.473  17.099  0.00  0.00    +0.000 C 
ENDBRANCH   2   4
ENDBRANCH   1   2
BRANCH   1   8
ATOM      8  C   UNL     1       4.888   5.153  19.386  0.00  0.00    +0.000 C 
BRANCH   8   9
ATOM      9  O   UNL     1       5.807   4.243  18.777  0.00  0.00    +0.000 OA
BRANCH   9  10
ATOM     10  C   UNL     1       6.857   4.841  18.159  0.00  0.00    +0.000 C 
ATOM     11  O   UNL     1       7.991   4.386  18.094  0.00  0.00    +0.000 OA
BRANCH  10  13
ATOM     12  C   UNL     1       7.538   7.182  17.608  0.00  0.00    +0.000 C 
ATOM     13  C   UNL     1       6.419   6.157  17.565  0.00  0.00    +0.000 C 
ENDBRANCH  10  13
ENDBRANCH   9  10
ENDBRANCH   8   9
ENDBRANCH   1   8
TORSDOF 6
ENDMDL
MODEL 7
REMARK VINA RESULT:      -5.1      1.639      2.493
REMARK  Name = 
REMARK  10 active torsions:
REMARK  status: ('A' for Active; 'I' for Inactive)
REMARK    1  A    between atoms: C_1  and  C_2
REMARK    2  A    between atoms: C_2  and  C_3
REMARK    3  A    between atoms: C_3  and  O_5
REMARK    4  A    between atoms: O_5  and  C_6
REMARK    5  A    between atoms: C_6  and  O_7
REMARK    6  A    between atoms: O_7  and  C_8
REMARK    7  A    between atoms: C_8  and  C_10
REMARK    8  A    between atoms: C_10  and  C_11
REMARK    9  A    between atoms: C_10  and  C_12
REMARK   10  A    between atoms: C_10  and  C_13
REMARK                            x       y       z     vdW  Elec       q    Type
REMARK                         _______ _______ _______ _____ _____    ______ ____
ROOT
ATOM      1  O   UNL     1       3.910   5.644  19.672  0.00  0.00    +0.000 OA
ENDROOT
BRANCH   1   2
ATOM      2  C   UNL     1       4.938   5.129  18.948  0.00  0.00    +0.000 C 
ATOM      3  O   UNL     1       5.677   4.234  19.338  0.00  0.00    +0.000 OA
BRANCH   2   4
ATOM      4  C   UNL     1       5.056   5.818  17.585  0.00  0.00    +0.000 C 
ATOM      5  C   UNL     1       3.993   6.915  17.467  0.00  0.00    +0.000 C 
ATOM      6  C   UNL     1       6.453   6.448  17.467  0.00  0.00    +0.000 C 
ATOM      7  C   UNL     1       4.877   4.789  16.461  0.00  0.00    +0.000 C 
ENDBRANCH   2   4
ENDBRANCH   1   2
BRANCH   1   8
ATOM      8  C   UNL     1       2.980   4.673  20.161  0.00  0.00    +0.000 C 
BRANCH   8   9
ATOM      9  O   UNL     1       1.727   4.738  19.477  0.00  0.00    +0.000 OA
BRANCH   9  10
ATOM     10  C   UNL     1       1.609   3.864  18.445  0.00  0.00    +0.000 C 
ATOM     11  O   UNL     1       1.207   4.145  17.324  0.00  0.00    +0.000 OA
BRANCH  10  13
ATOM     12  C   UNL     1       3.068   1.900  17.934  0.00  0.00    +0.000 C 
ATOM     13  C   UNL     1       2.044   2.489  18.888  0.00  0.00    +0.000 C 
ENDBRANCH  10  13
ENDBRANCH   9  10
ENDBRANCH   8   9
ENDBRANCH   1   8
TORSDOF 6
ENDMDL
MODEL 8
REMARK VINA RESULT:      -5.1      1.568      5.472
REMARK  Name = 
REMARK  10 active torsions:
REMARK  status: ('A' for Active; 'I' for Inactive)
REMARK    1  A    between atoms: C_1  and  C_2
REMARK    2  A    between atoms: C_2  and  C_3
REMARK    3  A    between atoms: C_3  and  O_5
REMARK    4  A    between atoms: O_5  and  C_6
REMARK    5  A    between atoms: C_6  and  O_7
REMARK    6  A    between atoms: O_7  and  C_8
REMARK    7  A    between atoms: C_8  and  C_10
REMARK    8  A    between atoms: C_10  and  C_11
REMARK    9  A    between atoms: C_10  and  C_12
REMARK   10  A    between atoms: C_10  and  C_13
REMARK                            x       y       z     vdW  Elec       q    Type
REMARK                         _______ _______ _______ _____ _____    ______ ____
ROOT
ATOM      1  O   UNL     1       3.829   4.465  19.737  0.00  0.00    +0.000 OA
ENDROOT
BRANCH   1   2
ATOM      2  C   UNL     1       3.208   3.257  19.768  0.00  0.00    +0.000 C 
ATOM      3  O   UNL     1       3.719   2.207  19.400  0.00  0.00    +0.000 OA
BRANCH   2   4
ATOM      4  C   UNL     1       1.782   3.380  20.316  0.00  0.00    +0.000 C 
ATOM      5  C   UNL     1       1.695   2.693  21.684  0.00  0.00    +0.000 C 
ATOM      6  C   UNL     1       1.438   4.870  20.472  0.00  0.00    +0.000 C 
ATOM      7  C   UNL     1       0.789   2.738  19.340  0.00  0.00    +0.000 C 
ENDBRANCH   2   4
ENDBRANCH   1   2
BRANCH   1   8
ATOM      8  C   UNL     1       5.190   4.425  19.296  0.00  0.00    +0.000 C 
BRANCH   8   9
ATOM      9  O   UNL     1       5.333   4.890  17.953  0.00  0.00    +0.000 OA
BRANCH   9  10
ATOM     10  C   UNL     1       6.615   4.925  17.508  0.00  0.00    +0.000 C 
ATOM     11  O   UNL     1       7.044   4.315  16.538  0.00  0.00    +0.000 OA
BRANCH  10  13
ATOM     12  C   UNL     1       7.631   7.195  17.762  0.00  0.00    +0.000 C 
ATOM     13  C   UNL     1       7.438   5.828  18.394  0.00  0.00    +0.000 C 
ENDBRANCH  10  13
ENDBRANCH   9  10
ENDBRANCH   8   9
ENDBRANCH   1   8
TORSDOF 6
ENDMDL
MODEL 9
REMARK VINA RESULT:      -5.1      1.606      4.759
REMARK  Name = 
REMARK  10 active torsions:
REMARK  status: ('A' for Active; 'I' for Inactive)
REMARK    1  A    between atoms: C_1  and  C_2
REMARK    2  A    between atoms: C_2  and  C_3
REMARK    3  A    between atoms: C_3  and  O_5
REMARK    4  A    between atoms: O_5  and  C_6
REMARK    5  A    between atoms: C_6  and  O_7
REMARK    6  A    between atoms: O_7  and  C_8
REMARK    7  A    between atoms: C_8  and  C_10
REMARK    8  A    between atoms: C_10  and  C_11
REMARK    9  A    between atoms: C_10  and  C_12
REMARK   10  A    between atoms: C_10  and  C_13
REMARK                            x       y       z     vdW  Elec       q    Type
REMARK                         _______ _______ _______ _____ _____    ______ ____
ROOT
ATOM      1  O   UNL     1       5.230   4.041  19.470  0.00  0.00    +0.000 OA
ENDROOT
BRANCH   1   2
ATOM      2  C   UNL     1       3.955   4.490  19.339  0.00  0.00    +0.000 C 
ATOM      3  O   UNL     1       3.546   5.550  19.795  0.00  0.00    +0.000 OA
BRANCH   2   4
ATOM      4  C   UNL     1       3.094   3.495  18.554  0.00  0.00    +0.000 C 
ATOM      5  C   UNL     1       1.613   3.860  18.709  0.00  0.00    +0.000 C 
ATOM      6  C   UNL     1       3.483   3.567  17.069  0.00  0.00    +0.000 C 
ATOM      7  C   UNL     1       3.340   2.071  19.066  0.00  0.00    +0.000 C 
ENDBRANCH   2   4
ENDBRANCH   1   2
BRANCH   1   8
ATOM      8  C   UNL     1       6.238   5.003  19.145  0.00  0.00    +0.000 C 
BRANCH   8   9
ATOM      9  O   UNL     1       7.158   4.509  18.171  0.00  0.00    +0.000 OA
BRANCH   9  10
ATOM     10  C   UNL     1       7.078   5.126  16.964  0.00  0.00    +0.000 C 
ATOM     11  O   UNL     1       7.594   4.724  15.930  0.00  0.00    +0.000 OA
BRANCH  10  13
ATOM     12  C   UNL     1       5.244   6.499  15.964  0.00  0.00    +0.000 C 
ATOM     13  C   UNL     1       6.258   6.387  17.089  0.00  0.00    +0.000 C 
ENDBRANCH  10  13
ENDBRANCH   9  10
ENDBRANCH   8   9
ENDBRANCH   1   8
TORSDOF 6
ENDMDL
