MODEL 1
REMARK VINA RESULT:      -8.6      0.000      0.000
REMARK  Name = 
REMARK  9 active torsions:
REMARK  status: ('A' for Active; 'I' for Inactive)
REMARK    1  A    between atoms: C_1  and  C_2
REMARK    2  A    between atoms: C_2  and  C_3
REMARK    3  A    between atoms: C_6  and  N_7
REMARK    4  A    between atoms: C_8  and  C_10
REMARK    5  A    between atoms: N_13  and  S_14
REMARK    6  A    between atoms: S_14  and  C_17
REMARK    7  A    between atoms: N_19  and  C_20
REMARK    8  A    between atoms: C_20  and  C_21
REMARK    9  A    between atoms: C_20  and  C_22
REMARK                            x       y       z     vdW  Elec       q    Type
REMARK                         _______ _______ _______ _____ _____    ______ ____
ROOT
ATOM      1  C   UNL     1       3.726   3.912  19.195  0.00  0.00    +0.000 C 
ATOM      2  C   UNL     1       5.076   4.542  19.567  0.00  0.00    +0.000 C 
ATOM      3  C   UNL     1       5.584   5.502  18.488  0.00  0.00    +0.000 C 
ATOM      4  N   UNL     1       5.646   4.824  17.162  0.00  0.00    +0.000 NA
ATOM      5  C   UNL     1       4.354   4.205  16.761  0.00  0.00    +0.000 C 
ATOM      6  C   UNL     1       3.865   3.232  17.832  0.00  0.00    +0.000 C 
ENDROOT
BRANCH   1   8
ATOM      7  N   UNL     1       3.024   6.230  19.617  0.00  0.00    +0.000 N 
ATOM      8  C   UNL     1       2.613   4.964  19.238  0.00  0.00    +0.000 C 
ATOM      9  O   UNL     1       1.467   4.679  18.899  0.00  0.00    +0.000 OA
ATOM     10  H   UNL     1       4.014   6.437  19.570  0.00  0.00    +0.000 HD
BRANCH   7  14
ATOM     11  C   UNL     1       0.478   9.540  20.325  0.00  0.00    +0.000 A 
ATOM     12  C   UNL     1       0.632   8.557  21.305  0.00  0.00    +0.000 A 
ATOM     13  C   UNL     1       1.464   7.459  21.081  0.00  0.00    +0.000 A 
ATOM     14  C   UNL     1       2.156   7.316  19.874  0.00  0.00    +0.000 A 
ATOM     15  C   UNL     1       2.015   8.306  18.897  0.00  0.00    +0.000 A 
ATOM     16  C   UNL     1       1.172   9.404  19.117  0.00  0.00    +0.000 A 
BRANCH  11  18
ATOM     17  C   UNL     1      -0.659  10.868  22.097  0.00  0.00    +0.000 C 
ATOM     18  C   UNL     1      -0.357  10.761  20.609  0.00  0.00    +0.000 C 
ENDBRANCH  11  18
ENDBRANCH   7  14
ENDBRANCH   1   8
BRANCH   4  19
ATOM     19  S   UNL     1       6.265   5.846  15.916  0.00  0.00    +0.000 S 
ATOM     20  O   UNL     1       5.272   6.862  15.628  0.00  0.00    +0.000 OA
ATOM     21  O   UNL     1       7.626   6.211  16.256  0.00  0.00    +0.000 OA
BRANCH  19  22
ATOM     22  C   UNL     1       6.414   4.982  14.406  0.00  0.00    +0.000 A 
ATOM     23  C   UNL     1       5.523   4.034  13.938  0.00  0.00    +0.000 A 
ATOM     24  N   UNL     1       6.078   3.563  12.781  0.00  0.00    +0.000 N 
ATOM     25  C   UNL     1       7.234   4.262  12.562  0.00  0.00    +0.000 A 
ATOM     26  N   UNL     1       7.472   5.127  13.522  0.00  0.00    +0.000 NA
BRANCH  24  27
ATOM     27  C   UNL     1       5.575   2.475  11.950  0.00  0.00    +0.000 C 
ATOM     28  C   UNL     1       4.367   2.915  11.120  0.00  0.00    +0.000 C 
ATOM     29  C   UNL     1       6.668   1.880  11.065  0.00  0.00    +0.000 C 
ENDBRANCH  24  27
ENDBRANCH  19  22
ENDBRANCH   4  19
TORSDOF 6
ENDMDL
MODEL 2
REMARK VINA RESULT:      -8.4      1.974      8.923
REMARK  Name = 
REMARK  9 active torsions:
REMARK  status: ('A' for Active; 'I' for Inactive)
REMARK    1  A    between atoms: C_1  and  C_2
REMARK    2  A    between atoms: C_2  and  C_3
REMARK    3  A    between atoms: C_6  and  N_7
REMARK    4  A    between atoms: C_8  and  C_10
REMARK    5  A    between atoms: N_13  and  S_14
REMARK    6  A    between atoms: S_14  and  C_17
REMARK    7  A    between atoms: N_19  and  C_20
REMARK    8  A    between atoms: C_20  and  C_21
REMARK    9  A    between atoms: C_20  and  C_22
REMARK                            x       y       z     vdW  Elec       q    Type
REMARK                         _______ _______ _______ _____ _____    ______ ____
ROOT
ATOM      1  C   UNL     1       7.431   6.319  17.686  0.00  0.00    +0.000 C 
ATOM      2  C   UNL     1       7.185   5.657  19.050  0.00  0.00    +0.000 C 
ATOM      3  C   UNL     1       5.743   5.166  19.204  0.00  0.00    +0.000 C 
ATOM      4  N   UNL     1       4.777   6.274  18.953  0.00  0.00    +0.000 NA
ATOM      5  C   UNL     1       4.978   6.938  17.637  0.00  0.00    +0.000 C 
ATOM      6  C   UNL     1       6.413   7.444  17.500  0.00  0.00    +0.000 C 
ENDROOT
BRANCH   1   8
ATOM      7  N   UNL     1       6.795   5.700  15.393  0.00  0.00    +0.000 N 
ATOM      8  C   UNL     1       7.391   5.272  16.567  0.00  0.00    +0.000 C 
ATOM      9  O   UNL     1       7.909   4.169  16.721  0.00  0.00    +0.000 OA
ATOM     10  H   UNL     1       6.687   6.697  15.256  0.00  0.00    +0.000 HD
BRANCH   7  14
ATOM     11  C   UNL     1       5.876   3.158  12.133  0.00  0.00    +0.000 A 
ATOM     12  C   UNL     1       7.103   3.823  12.173  0.00  0.00    +0.000 A 
ATOM     13  C   UNL     1       7.414   4.668  13.240  0.00  0.00    +0.000 A 
ATOM     14  C   UNL     1       6.509   4.869  14.286  0.00  0.00    +0.000 A 
ATOM     15  C   UNL     1       5.285   4.193  14.255  0.00  0.00    +0.000 A 
ATOM     16  C   UNL     1       4.967   3.352  13.179  0.00  0.00    +0.000 A 
BRANCH  11  18
ATOM     17  C   UNL     1       6.661   1.114  10.948  0.00  0.00    +0.000 C 
ATOM     18  C   UNL     1       5.583   2.187  11.019  0.00  0.00    +0.000 C 
ENDBRANCH  11  18
ENDBRANCH   7  14
ENDBRANCH   1   8
BRANCH   4  19
ATOM     19  S   UNL     1       3.135   5.790  19.167  0.00  0.00    +0.000 S 
ATOM     20  O   UNL     1       2.567   5.521  17.860  0.00  0.00    +0.000 OA
ATOM     21  O   UNL     1       3.083   4.794  20.219  0.00  0.00    +0.000 OA
BRANCH  19  22
ATOM     22  C   UNL     1       2.160   7.107  19.772  0.00  0.00    +0.000 A 
ATOM     23  C   UNL     1       1.948   8.307  19.118  0.00  0.00    +0.000 A 
ATOM     24  N   UNL     1       1.212   9.062  19.988  0.00  0.00    +0.000 N 
ATOM     25  C   UNL     1       0.962   8.294  21.094  0.00  0.00    +0.000 A 
ATOM     26  N   UNL     1       1.520   7.108  21.001  0.00  0.00    +0.000 NA
BRANCH  24  27
ATOM     27  C   UNL     1       0.807  10.451  19.813  0.00  0.00    +0.000 C 
ATOM     28  C   UNL     1       1.371  11.041  18.518  0.00  0.00    +0.000 C 
ATOM     29  C   UNL     1      -0.710  10.618  19.883  0.00  0.00    +0.000 C 
ENDBRANCH  24  27
ENDBRANCH  19  22
ENDBRANCH   4  19
TORSDOF 6
ENDMDL
MODEL 3
REMARK VINA RESULT:      -8.3      1.377      1.803
REMARK  Name = 
REMARK  9 active torsions:
REMARK  status: ('A' for Active; 'I' for Inactive)
REMARK    1  A    between atoms: C_1  and  C_2
REMARK    2  A    between atoms: C_2  and  C_3
REMARK    3  A    between atoms: C_6  and  N_7
REMARK    4  A    between atoms: C_8  and  C_10
REMARK    5  A    between atoms: N_13  and  S_14
REMARK    6  A    between atoms: S_14  and  C_17
REMARK    7  A    between atoms: N_19  and  C_20
REMARK    8  A    between atoms: C_20  and  C_21
REMARK    9  A    between atoms: C_20  and  C_22
REMARK                            x       y       z     vdW  Elec       q    Type
REMARK                         _______ _______ _______ _____ _____    ______ ____
ROOT
ATOM      1  C   UNL     1       3.077   4.126  18.760  0.00  0.00    +0.000 C 
ATOM      2  C   UNL     1       4.392   3.563  19.318  0.00  0.00    +0.000 C 
ATOM      3  C   UNL     1       5.619   4.272  18.737  0.00  0.00    +0.000 C 
ATOM      4  N   UNL     1       5.597   4.233  17.247  0.00  0.00    +0.000 NA
ATOM      5  C   UNL     1       4.339   4.777  16.666  0.00  0.00    +0.000 C 
ATOM      6  C   UNL     1       3.122   4.050  17.233  0.00  0.00    +0.000 C 
ENDROOT
BRANCH   1   8
ATOM      7  N   UNL     1       2.089   6.357  18.454  0.00  0.00    +0.000 N 
ATOM      8  C   UNL     1       2.833   5.544  19.290  0.00  0.00    +0.000 C 
ATOM      9  O   UNL     1       3.237   5.875  20.402  0.00  0.00    +0.000 OA
ATOM     10  H   UNL     1       1.546   5.911  17.725  0.00  0.00    +0.000 HD
BRANCH   7  14
ATOM     11  C   UNL     1       1.507  10.515  19.010  0.00  0.00    +0.000 A 
ATOM     12  C   UNL     1       1.073   9.614  19.985  0.00  0.00    +0.000 A 
ATOM     13  C   UNL     1       1.254   8.241  19.809  0.00  0.00    +0.000 A 
ATOM     14  C   UNL     1       1.868   7.738  18.658  0.00  0.00    +0.000 A 
ATOM     15  C   UNL     1       2.317   8.639  17.688  0.00  0.00    +0.000 A 
ATOM     16  C   UNL     1       2.127  10.017  17.858  0.00  0.00    +0.000 A 
BRANCH  11  18
ATOM     17  C   UNL     1       2.273  12.771  18.287  0.00  0.00    +0.000 C 
ATOM     18  C   UNL     1       1.380  11.997  19.247  0.00  0.00    +0.000 C 
ENDBRANCH  11  18
ENDBRANCH   7  14
ENDBRANCH   1   8
BRANCH   4  19
ATOM     19  S   UNL     1       6.986   4.972  16.538  0.00  0.00    +0.000 S 
ATOM     20  O   UNL     1       6.882   6.406  16.724  0.00  0.00    +0.000 OA
ATOM     21  O   UNL     1       8.164   4.250  16.976  0.00  0.00    +0.000 OA
BRANCH  19  22
ATOM     22  C   UNL     1       6.986   4.785  14.802  0.00  0.00    +0.000 A 
ATOM     23  C   UNL     1       6.152   3.941  14.091  0.00  0.00    +0.000 A 
ATOM     24  N   UNL     1       6.559   4.048  12.791  0.00  0.00    +0.000 N 
ATOM     25  C   UNL     1       7.569   4.971  12.749  0.00  0.00    +0.000 A 
ATOM     26  N   UNL     1       7.857   5.437  13.943  0.00  0.00    +0.000 NA
BRANCH  24  27
ATOM     27  C   UNL     1       6.061   3.284  11.654  0.00  0.00    +0.000 C 
ATOM     28  C   UNL     1       6.705   1.898  11.583  0.00  0.00    +0.000 C 
ATOM     29  C   UNL     1       4.537   3.187  11.654  0.00  0.00    +0.000 C 
ENDBRANCH  24  27
ENDBRANCH  19  22
ENDBRANCH   4  19
TORSDOF 6
ENDMDL
MODEL 4
REMARK VINA RESULT:      -8.3      1.228      1.414
REMARK  Name = 
REMARK  9 active torsions:
REMARK  status: ('A' for Active; 'I' for Inactive)
REMARK    1  A    between atoms: C_1  and  C_2
REMARK    2  A    between atoms: C_2  and  C_3
REMARK    3  A    between atoms: C_6  and  N_7
REMARK    4  A    between atoms: C_8  and  C_10
REMARK    5  A    between atoms: N_13  and  S_14
REMARK    6  A    between atoms: S_14  and  C_17
REMARK    7  A    between atoms: N_19  and  C_20
REMARK    8  A    between atoms: C_20  and  C_21
REMARK    9  A    between atoms: C_20  and  C_22
REMARK                            x       y       z     vdW  Elec       q    Type
REMARK                         _______ _______ _______ _____ _____    ______ ____
ROOT
ATOM      1  C   UNL     1       2.784   5.106  19.089  0.00  0.00    +0.000 C 
ATOM      2  C   UNL     1       4.080   4.733  19.826  0.00  0.00    +0.000 C 
ATOM      3  C   UNL     1       5.323   5.295  19.132  0.00  0.00    +0.000 C 
ATOM      4  N   UNL     1       5.369   4.873  17.703  0.00  0.00    +0.000 NA
ATOM      5  C   UNL     1       4.133   5.222  16.951  0.00  0.00    +0.000 C 
ATOM      6  C   UNL     1       2.899   4.640  17.637  0.00  0.00    +0.000 C 
ENDROOT
BRANCH   1   8
ATOM      7  N   UNL     1       1.862   6.974  20.395  0.00  0.00    +0.000 N 
ATOM      8  C   UNL     1       2.503   6.606  19.224  0.00  0.00    +0.000 C 
ATOM      9  O   UNL     1       2.882   7.396  18.363  0.00  0.00    +0.000 OA
ATOM     10  H   UNL     1       1.874   6.317  21.165  0.00  0.00    +0.000 HD
BRANCH   7  14
ATOM     11  C   UNL     1       0.427  10.888  21.140  0.00  0.00    +0.000 A 
ATOM     12  C   UNL     1       0.570   9.986  22.197  0.00  0.00    +0.000 A 
ATOM     13  C   UNL     1       1.037   8.691  21.962  0.00  0.00    +0.000 A 
ATOM     14  C   UNL     1       1.367   8.269  20.670  0.00  0.00    +0.000 A 
ATOM     15  C   UNL     1       1.238   9.176  19.613  0.00  0.00    +0.000 A 
ATOM     16  C   UNL     1       0.760  10.472  19.846  0.00  0.00    +0.000 A 
BRANCH  11  18
ATOM     17  C   UNL     1      -0.967  12.355  22.590  0.00  0.00    +0.000 C 
ATOM     18  C   UNL     1       0.001  12.306  21.416  0.00  0.00    +0.000 C 
ENDBRANCH  11  18
ENDBRANCH   7  14
ENDBRANCH   1   8
BRANCH   4  19
ATOM     19  S   UNL     1       6.780   5.434  16.884  0.00  0.00    +0.000 S 
ATOM     20  O   UNL     1       6.716   6.880  16.809  0.00  0.00    +0.000 OA
ATOM     21  O   UNL     1       7.936   4.770  17.455  0.00  0.00    +0.000 OA
BRANCH  19  22
ATOM     22  C   UNL     1       6.781   4.938  15.210  0.00  0.00    +0.000 A 
ATOM     23  C   UNL     1       5.936   3.991  14.659  0.00  0.00    +0.000 A 
ATOM     24  N   UNL     1       6.347   3.857  13.363  0.00  0.00    +0.000 N 
ATOM     25  C   UNL     1       7.369   4.745  13.159  0.00  0.00    +0.000 A 
ATOM     26  N   UNL     1       7.660   5.414  14.251  0.00  0.00    +0.000 NA
BRANCH  24  27
ATOM     27  C   UNL     1       5.841   2.907  12.379  0.00  0.00    +0.000 C 
ATOM     28  C   UNL     1       4.582   3.434  11.686  0.00  0.00    +0.000 C 
ATOM     29  C   UNL     1       6.910   2.514  11.361  0.00  0.00    +0.000 C 
ENDBRANCH  24  27
ENDBRANCH  19  22
ENDBRANCH   4  19
TORSDOF 6
ENDMDL
MODEL 5
REMARK VINA RESULT:      -8.2      1.166      1.719
REMARK  Name = 
REMARK  9 active torsions:
REMARK  status: ('A' for Active; 'I' for Inactive)
REMARK    1  A    between atoms: C_1  and  C_2
REMARK    2  A    between atoms: C_2  and  C_3
REMARK    3  A    between atoms: C_6  and  N_7
REMARK    4  A    between atoms: C_8  and  C_10
REMARK    5  A    between atoms: N_13  and  S_14
REMARK    6  A    between atoms: S_14  and  C_17
REMARK    7  A    between atoms: N_19  and  C_20
REMARK    8  A    between atoms: C_20  and  C_21
REMARK    9  A    between atoms: C_20  and  C_22
REMARK                            x       y       z     vdW  Elec       q    Type
REMARK                         _______ _______ _______ _____ _____    ______ ____
ROOT
ATOM      1  C   UNL     1       3.004   4.737  18.678  0.00  0.00    +0.000 C 
ATOM      2  C   UNL     1       4.263   4.367  19.476  0.00  0.00    +0.000 C 
ATOM      3  C   UNL     1       5.539   4.925  18.838  0.00  0.00    +0.000 C 
ATOM      4  N   UNL     1       5.650   4.495  17.415  0.00  0.00    +0.000 NA
ATOM      5  C   UNL     1       4.451   4.841  16.604  0.00  0.00    +0.000 C 
ATOM      6  C   UNL     1       3.186   4.262  17.235  0.00  0.00    +0.000 C 
ENDROOT
BRANCH   1   8
ATOM      7  N   UNL     1       2.188   6.639  20.006  0.00  0.00    +0.000 N 
ATOM      8  C   UNL     1       2.718   6.238  18.791  0.00  0.00    +0.000 C 
ATOM      9  O   UNL     1       3.004   7.002  17.873  0.00  0.00    +0.000 OA
ATOM     10  H   UNL     1       2.281   6.007  20.791  0.00  0.00    +0.000 HD
BRANCH   7  14
ATOM     11  C   UNL     1       0.697  10.495  20.926  0.00  0.00    +0.000 A 
ATOM     12  C   UNL     1       0.961  10.148  19.598  0.00  0.00    +0.000 A 
ATOM     13  C   UNL     1       1.457   8.882  19.284  0.00  0.00    +0.000 A 
ATOM     14  C   UNL     1       1.705   7.937  20.285  0.00  0.00    +0.000 A 
ATOM     15  C   UNL     1       1.428   8.277  21.613  0.00  0.00    +0.000 A 
ATOM     16  C   UNL     1       0.939   9.552  21.931  0.00  0.00    +0.000 A 
BRANCH  11  18
ATOM     17  C   UNL     1      -0.871  12.261  20.142  0.00  0.00    +0.000 C 
ATOM     18  C   UNL     1       0.085  11.833  21.245  0.00  0.00    +0.000 C 
ENDBRANCH  11  18
ENDBRANCH   7  14
ENDBRANCH   1   8
BRANCH   4  19
ATOM     19  S   UNL     1       7.099   5.050  16.660  0.00  0.00    +0.000 S 
ATOM     20  O   UNL     1       7.177   6.487  16.830  0.00  0.00    +0.000 OA
ATOM     21  O   UNL     1       8.191   4.192  17.076  0.00  0.00    +0.000 OA
BRANCH  19  22
ATOM     22  C   UNL     1       7.028   4.847  14.927  0.00  0.00    +0.000 A 
ATOM     23  C   UNL     1       6.177   3.984  14.260  0.00  0.00    +0.000 A 
ATOM     24  N   UNL     1       6.527   4.087  12.943  0.00  0.00    +0.000 N 
ATOM     25  C   UNL     1       7.518   5.026  12.849  0.00  0.00    +0.000 A 
ATOM     26  N   UNL     1       7.849   5.507  14.026  0.00  0.00    +0.000 NA
BRANCH  24  27
ATOM     27  C   UNL     1       5.993   3.305  11.834  0.00  0.00    +0.000 C 
ATOM     28  C   UNL     1       6.595   1.899  11.796  0.00  0.00    +0.000 C 
ATOM     29  C   UNL     1       4.466   3.253  11.854  0.00  0.00    +0.000 C 
ENDBRANCH  24  27
ENDBRANCH  19  22
ENDBRANCH   4  19
TORSDOF 6
ENDMDL
MODEL 6
REMARK VINA RESULT:      -8.1      1.043      1.426
REMARK  Name = 
REMARK  9 active torsions:
REMARK  status: ('A' for Active; 'I' for Inactive)
REMARK    1  A    between atoms: C_1  and  C_2
REMARK    2  A    between atoms: C_2  and  C_3
REMARK    3  A    between atoms: C_6  and  N_7
REMARK    4  A    between atoms: C_8  and  C_10
REMARK    5  A    between atoms: N_13  and  S_14
REMARK    6  A    between atoms: S_14  and  C_17
REMARK    7  A    between atoms: N_19  and  C_20
REMARK    8  A    between atoms: C_20  and  C_21
REMARK    9  A    between atoms: C_20  and  C_22
REMARK                            x       y       z     vdW  Elec       q    Type
REMARK                         _______ _______ _______ _____ _____    ______ ____
ROOT
ATOM      1  C   UNL     1       2.934   3.366  19.207  0.00  0.00    +0.000 C 
ATOM      2  C   UNL     1       4.324   3.413  19.860  0.00  0.00    +0.000 C 
ATOM      3  C   UNL     1       5.253   4.420  19.176  0.00  0.00    +0.000 C 
ATOM      4  N   UNL     1       5.347   4.145  17.714  0.00  0.00    +0.000 NA
ATOM      5  C   UNL     1       4.020   4.098  17.041  0.00  0.00    +0.000 C 
ATOM      6  C   UNL     1       3.107   3.076  17.715  0.00  0.00    +0.000 C 
ENDROOT
BRANCH   1   8
ATOM      7  N   UNL     1       2.620   5.770  18.793  0.00  0.00    +0.000 N 
ATOM      8  C   UNL     1       2.166   4.662  19.487  0.00  0.00    +0.000 C 
ATOM      9  O   UNL     1       1.192   4.664  20.236  0.00  0.00    +0.000 OA
ATOM     10  H   UNL     1       3.207   5.610  17.983  0.00  0.00    +0.000 HD
BRANCH   7  14
ATOM     11  C   UNL     1       1.218   9.704  19.496  0.00  0.00    +0.000 A 
ATOM     12  C   UNL     1       1.619   9.326  18.213  0.00  0.00    +0.000 A 
ATOM     13  C   UNL     1       2.088   8.034  17.970  0.00  0.00    +0.000 A 
ATOM     14  C   UNL     1       2.171   7.093  19.002  0.00  0.00    +0.000 A 
ATOM     15  C   UNL     1       1.756   7.465  20.285  0.00  0.00    +0.000 A 
ATOM     16  C   UNL     1       1.295   8.765  20.531  0.00  0.00    +0.000 A 
BRANCH  11  18
ATOM     17  C   UNL     1      -0.881  11.032  19.650  0.00  0.00    +0.000 C 
ATOM     18  C   UNL     1       0.638  11.074  19.729  0.00  0.00    +0.000 C 
ENDBRANCH  11  18
ENDBRANCH   7  14
ENDBRANCH   1   8
BRANCH   4  19
ATOM     19  S   UNL     1       6.425   5.218  16.900  0.00  0.00    +0.000 S 
ATOM     20  O   UNL     1       5.822   6.536  16.876  0.00  0.00    +0.000 OA
ATOM     21  O   UNL     1       7.758   5.020  17.433  0.00  0.00    +0.000 OA
BRANCH  19  22
ATOM     22  C   UNL     1       6.572   4.806  15.209  0.00  0.00    +0.000 A 
ATOM     23  C   UNL     1       5.822   3.845  14.555  0.00  0.00    +0.000 A 
ATOM     24  N   UNL     1       6.331   3.797  13.287  0.00  0.00    +0.000 N 
ATOM     25  C   UNL     1       7.315   4.745  13.200  0.00  0.00    +0.000 A 
ATOM     26  N   UNL     1       7.491   5.373  14.341  0.00  0.00    +0.000 NA
BRANCH  24  27
ATOM     27  C   UNL     1       5.949   2.873  12.227  0.00  0.00    +0.000 C 
ATOM     28  C   UNL     1       4.685   3.342  11.502  0.00  0.00    +0.000 C 
ATOM     29  C   UNL     1       7.092   2.626  11.244  0.00  0.00    +0.000 C 
ENDBRANCH  24  27
ENDBRANCH  19  22
ENDBRANCH   4  19
TORSDOF 6
ENDMDL
MODEL 7
REMARK VINA RESULT:      -8.1      2.034      8.822
REMARK  Name = 
REMARK  9 active torsions:
REMARK  status: ('A' for Active; 'I' for Inactive)
REMARK    1  A    between atoms: C_1  and  C_2
REMARK    2  A    between atoms: C_2  and  C_3
REMARK    3  A    between atoms: C_6  and  N_7
REMARK    4  A    between atoms: C_8  and  C_10
REMARK    5  A    between atoms: N_13  and  S_14
REMARK    6  A    between atoms: S_14  and  C_17
REMARK    7  A    between atoms: N_19  and  C_20
REMARK    8  A    between atoms: C_20  and  C_21
REMARK    9  A    between atoms: C_20  and  C_22
REMARK                            x       y       z     vdW  Elec       q    Type
REMARK                         _______ _______ _______ _____ _____    ______ ____
ROOT
ATOM      1  C   UNL     1       7.623   6.235  17.864  0.00  0.00    +0.000 C 
ATOM      2  C   UNL     1       7.134   5.621  19.184  0.00  0.00    +0.000 C 
ATOM      3  C   UNL     1       5.631   5.329  19.166  0.00  0.00    +0.000 C 
ATOM      4  N   UNL     1       4.858   6.555  18.816  0.00  0.00    +0.000 NA
ATOM      5  C   UNL     1       5.297   7.178  17.538  0.00  0.00    +0.000 C 
ATOM      6  C   UNL     1       6.793   7.486  17.572  0.00  0.00    +0.000 C 
ENDROOT
BRANCH   1   8
ATOM      7  N   UNL     1       7.010   5.647  15.556  0.00  0.00    +0.000 N 
ATOM      8  C   UNL     1       7.572   5.196  16.738  0.00  0.00    +0.000 C 
ATOM      9  O   UNL     1       8.054   4.077  16.894  0.00  0.00    +0.000 OA
ATOM     10  H   UNL     1       6.933   6.648  15.423  0.00  0.00    +0.000 HD
BRANCH   7  14
ATOM     11  C   UNL     1       6.183   3.269  12.151  0.00  0.00    +0.000 A 
ATOM     12  C   UNL     1       5.337   3.214  13.261  0.00  0.00    +0.000 A 
ATOM     13  C   UNL     1       5.603   3.989  14.391  0.00  0.00    +0.000 A 
ATOM     14  C   UNL     1       6.718   4.831  14.439  0.00  0.00    +0.000 A 
ATOM     15  C   UNL     1       7.558   4.899  13.323  0.00  0.00    +0.000 A 
ATOM     16  C   UNL     1       7.298   4.113  12.192  0.00  0.00    +0.000 A 
BRANCH  11  18
ATOM     17  C   UNL     1       6.313   1.048  11.033  0.00  0.00    +0.000 C 
ATOM     18  C   UNL     1       5.842   2.490  10.907  0.00  0.00    +0.000 C 
ENDBRANCH  11  18
ENDBRANCH   7  14
ENDBRANCH   1   8
BRANCH   4  19
ATOM     19  S   UNL     1       3.152   6.298  18.835  0.00  0.00    +0.000 S 
ATOM     20  O   UNL     1       2.784   5.605  17.616  0.00  0.00    +0.000 OA
ATOM     21  O   UNL     1       2.782   5.767  20.132  0.00  0.00    +0.000 OA
BRANCH  19  22
ATOM     22  C   UNL     1       2.283   7.809  18.724  0.00  0.00    +0.000 A 
ATOM     23  C   UNL     1       1.548   8.383  19.745  0.00  0.00    +0.000 A 
ATOM     24  N   UNL     1       0.975   9.493  19.192  0.00  0.00    +0.000 N 
ATOM     25  C   UNL     1       1.412   9.584  17.898  0.00  0.00    +0.000 A 
ATOM     26  N   UNL     1       2.202   8.584  17.578  0.00  0.00    +0.000 NA
BRANCH  24  27
ATOM     27  C   UNL     1       0.023  10.395  19.830  0.00  0.00    +0.000 C 
ATOM     28  C   UNL     1      -1.289  10.474  19.046  0.00  0.00    +0.000 C 
ATOM     29  C   UNL     1      -0.226  10.022  21.291  0.00  0.00    +0.000 C 
ENDBRANCH  24  27
ENDBRANCH  19  22
ENDBRANCH   4  19
TORSDOF 6
ENDMDL
MODEL 8
REMARK VINA RESULT:      -8.1      1.980      8.887
REMARK  Name = 
REMARK  9 active torsions:
REMARK  status: ('A' for Active; 'I' for Inactive)
REMARK    1  A    between atoms: C_1  and  C_2
REMARK    2  A    between atoms: C_2  and  C_3
REMARK    3  A    between atoms: C_6  and  N_7
REMARK    4  A    between atoms: C_8  and  C_10
REMARK    5  A    between atoms: N_13  and  S_14
REMARK    6  A    between atoms: S_14  and  C_17
REMARK    7  A    between atoms: N_19  and  C_20
REMARK    8  A    between atoms: C_20  and  C_21
REMARK    9  A    between atoms: C_20  and  C_22
REMARK                            x       y       z     vdW  Elec       q    Type
REMARK                         _______ _______ _______ _____ _____    ______ ____
ROOT
ATOM      1  C   UNL     1       7.478   6.354  17.672  0.00  0.00    +0.000 C 
ATOM      2  C   UNL     1       7.252   5.726  19.055  0.00  0.00    +0.000 C 
ATOM      3  C   UNL     1       5.815   5.230  19.238  0.00  0.00    +0.000 C 
ATOM      4  N   UNL     1       4.839   6.324  18.969  0.00  0.00    +0.000 NA
ATOM      5  C   UNL     1       5.020   6.955  17.634  0.00  0.00    +0.000 C 
ATOM      6  C   UNL     1       6.450   7.467  17.467  0.00  0.00    +0.000 C 
ENDROOT
BRANCH   1   8
ATOM      7  N   UNL     1       6.762   5.647  15.427  0.00  0.00    +0.000 N 
ATOM      8  C   UNL     1       7.433   5.278  16.581  0.00  0.00    +0.000 C 
ATOM      9  O   UNL     1       8.009   4.204  16.735  0.00  0.00    +0.000 OA
ATOM     10  H   UNL     1       6.601   6.635  15.273  0.00  0.00    +0.000 HD
BRANCH   7  14
ATOM     11  C   UNL     1       5.922   3.091  12.157  0.00  0.00    +0.000 A 
ATOM     12  C   UNL     1       4.982   3.248  13.179  0.00  0.00    +0.000 A 
ATOM     13  C   UNL     1       5.251   4.084  14.264  0.00  0.00    +0.000 A 
ATOM     14  C   UNL     1       6.462   4.777  14.356  0.00  0.00    +0.000 A 
ATOM     15  C   UNL     1       7.398   4.632  13.327  0.00  0.00    +0.000 A 
ATOM     16  C   UNL     1       7.134   3.785  12.242  0.00  0.00    +0.000 A 
BRANCH  11  18
ATOM     17  C   UNL     1       6.572   1.098  10.815  0.00  0.00    +0.000 C 
ATOM     18  C   UNL     1       5.589   2.251  10.952  0.00  0.00    +0.000 C 
ENDBRANCH  11  18
ENDBRANCH   7  14
ENDBRANCH   1   8
BRANCH   4  19
ATOM     19  S   UNL     1       3.202   5.835  19.213  0.00  0.00    +0.000 S 
ATOM     20  O   UNL     1       2.657   5.420  17.936  0.00  0.00    +0.000 OA
ATOM     21  O   UNL     1       3.153   4.954  20.364  0.00  0.00    +0.000 OA
BRANCH  19  22
ATOM     22  C   UNL     1       2.197   7.190  19.665  0.00  0.00    +0.000 A 
ATOM     23  C   UNL     1       1.914   8.277  18.858  0.00  0.00    +0.000 A 
ATOM     24  N   UNL     1       1.179   9.121  19.641  0.00  0.00    +0.000 N 
ATOM     25  C   UNL     1       0.998   8.511  20.853  0.00  0.00    +0.000 A 
ATOM     26  N   UNL     1       1.600   7.343  20.906  0.00  0.00    +0.000 NA
BRANCH  24  27
ATOM     27  C   UNL     1       0.713  10.457  19.288  0.00  0.00    +0.000 C 
ATOM     28  C   UNL     1      -0.459  10.401  18.306  0.00  0.00    +0.000 C 
ATOM     29  C   UNL     1       0.362  11.285  20.523  0.00  0.00    +0.000 C 
ENDBRANCH  24  27
ENDBRANCH  19  22
ENDBRANCH   4  19
TORSDOF 6
ENDMDL
MODEL 9
REMARK VINA RESULT:      -7.9      0.535      1.245
REMARK  Name = 
REMARK  9 active torsions:
REMARK  status: ('A' for Active; 'I' for Inactive)
REMARK    1  A    between atoms: C_1  and  C_2
REMARK    2  A    between atoms: C_2  and  C_3
REMARK    3  A    between atoms: C_6  and  N_7
REMARK    4  A    between atoms: C_8  and  C_10
REMARK    5  A    between atoms: N_13  and  S_14
REMARK    6  A    between atoms: S_14  and  C_17
REMARK    7  A    between atoms: N_19  and  C_20
REMARK    8  A    between atoms: C_20  and  C_21
REMARK    9  A    between atoms: C_20  and  C_22
REMARK                            x       y       z     vdW  Elec       q    Type
REMARK                         _______ _______ _______ _____ _____    ______ ____
ROOT
ATOM      1  C   UNL     1       3.536   3.439  18.914  0.00  0.00    +0.000 C 
ATOM      2  C   UNL     1       4.943   3.852  19.373  0.00  0.00    +0.000 C 
ATOM      3  C   UNL     1       5.548   4.938  18.480  0.00  0.00    +0.000 C 
ATOM      4  N   UNL     1       5.545   4.512  17.052  0.00  0.00    +0.000 NA
ATOM      5  C   UNL     1       4.197   4.110  16.565  0.00  0.00    +0.000 C 
ATOM      6  C   UNL     1       3.609   3.010  17.447  0.00  0.00    +0.000 C 
ENDROOT
BRANCH   1   8
ATOM      7  N   UNL     1       3.038   5.846  18.971  0.00  0.00    +0.000 N 
ATOM      8  C   UNL     1       2.535   4.572  19.166  0.00  0.00    +0.000 C 
ATOM      9  O   UNL     1       1.369   4.324  19.463  0.00  0.00    +0.000 OA
ATOM     10  H   UNL     1       3.892   5.938  18.434  0.00  0.00    +0.000 HD
BRANCH   7  14
ATOM     11  C   UNL     1       0.934   9.377  19.990  0.00  0.00    +0.000 A 
ATOM     12  C   UNL     1       1.435   9.214  18.697  0.00  0.00    +0.000 A 
ATOM     13  C   UNL     1       2.135   8.056  18.351  0.00  0.00    +0.000 A 
ATOM     14  C   UNL     1       2.353   7.041  19.288  0.00  0.00    +0.000 A 
ATOM     15  C   UNL     1       1.839   7.196  20.579  0.00  0.00    +0.000 A 
ATOM     16  C   UNL     1       1.145   8.362  20.930  0.00  0.00    +0.000 A 
BRANCH  11  18
ATOM     17  C   UNL     1      -0.028  10.741  21.837  0.00  0.00    +0.000 C 
ATOM     18  C   UNL     1       0.110  10.592  20.329  0.00  0.00    +0.000 C 
ENDBRANCH  11  18
ENDBRANCH   7  14
ENDBRANCH   1   8
BRANCH   4  19
ATOM     19  S   UNL     1       6.267   5.678  16.005  0.00  0.00    +0.000 S 
ATOM     20  O   UNL     1       5.321   6.758  15.806  0.00  0.00    +0.000 OA
ATOM     21  O   UNL     1       7.612   5.946  16.475  0.00  0.00    +0.000 OA
BRANCH  19  22
ATOM     22  C   UNL     1       6.493   5.032  14.398  0.00  0.00    +0.000 A 
ATOM     23  C   UNL     1       5.576   4.253  13.716  0.00  0.00    +0.000 A 
ATOM     24  N   UNL     1       6.201   3.902  12.552  0.00  0.00    +0.000 N 
ATOM     25  C   UNL     1       7.428   4.509  12.542  0.00  0.00    +0.000 A 
ATOM     26  N   UNL     1       7.642   5.199  13.641  0.00  0.00    +0.000 NA
BRANCH  24  27
ATOM     27  C   UNL     1       5.693   3.001  11.525  0.00  0.00    +0.000 C 
ATOM     28  C   UNL     1       6.200   1.572  11.730  0.00  0.00    +0.000 C 
ATOM     29  C   UNL     1       4.169   3.040  11.434  0.00  0.00    +0.000 C 
ENDBRANCH  24  27
ENDBRANCH  19  22
ENDBRANCH   4  19
TORSDOF 6
ENDMDL
