MODEL 1
REMARK VINA RESULT:      -7.6      0.000      0.000
REMARK  Name = 
REMARK  7 active torsions:
REMARK  status: ('A' for Active; 'I' for Inactive)
REMARK    1  A    between atoms: C_1  and  C_2
REMARK    2  A    between atoms: C_2  and  C_3
REMARK    3  A    between atoms: N_14  and  C_15
REMARK    4  A    between atoms: C_15  and  C_16
REMARK    5  A    between atoms: C_16  and  C_17
REMARK    6  A    between atoms: C_17  and  C_18
REMARK    7  A    between atoms: C_18  and  N_19
REMARK                            x       y       z     vdW  Elec       q    Type
REMARK                         _______ _______ _______ _____ _____    ______ ____
ROOT
ATOM      1  C   UNL     1       6.924   5.856  16.994  0.00  0.00    +0.000 A 
ATOM      2  N   UNL     1       7.445   5.912  15.810  0.00  0.00    +0.000 NA
ATOM      3  C   UNL     1       6.894   5.157  14.778  0.00  0.00    +0.000 A 
ATOM      4  C   UNL     1       7.549   5.125  13.544  0.00  0.00    +0.000 A 
ATOM      5  C   UNL     1       7.104   4.273  12.529  0.00  0.00    +0.000 A 
ATOM      6  C   UNL     1       5.997   3.455  12.751  0.00  0.00    +0.000 A 
ATOM      7 CL   UNL     1       5.489   2.363  11.523  0.00  0.00    +0.000 Cl
ATOM      8  C   UNL     1       5.319   3.497  13.964  0.00  0.00    +0.000 A 
ATOM      9  C   UNL     1       5.775   4.357  14.972  0.00  0.00    +0.000 A 
ATOM     10  C   UNL     1       5.124   4.411  16.291  0.00  0.00    +0.000 A 
ATOM     11  O   UNL     1       4.095   3.760  16.465  0.00  0.00    +0.000 OA
ATOM     12  N   UNL     1       5.749   5.179  17.281  0.00  0.00    +0.000 N 
ENDROOT
BRANCH   1  14
ATOM     13  C   UNL     1       7.873   8.031  17.739  0.00  0.00    +0.000 C 
ATOM     14  C   UNL     1       7.712   6.557  18.090  0.00  0.00    +0.000 C 
ENDBRANCH   1  14
BRANCH  12  15
ATOM     15  C   UNL     1       5.160   5.088  18.624  0.00  0.00    +0.000 C 
BRANCH  15  16
ATOM     16  C   UNL     1       4.278   6.266  19.067  0.00  0.00    +0.000 C 
BRANCH  16  17
ATOM     17  C   UNL     1       2.787   6.144  18.745  0.00  0.00    +0.000 C 
BRANCH  17  18
ATOM     18  C   UNL     1       2.008   5.882  20.040  0.00  0.00    +0.000 C 
BRANCH  18  19
ATOM     19  N   UNL     1       1.816   4.479  20.337  0.00  0.00    +0.000 N 
ATOM     20  C   UNL     1       1.355   3.525  19.474  0.00  0.00    +0.000 A 
ATOM     21  C   UNL     1       1.444   2.343  20.172  0.00  0.00    +0.000 A 
ATOM     22  N   UNL     1       1.953   2.557  21.427  0.00  0.00    +0.000 NA
ATOM     23  C   UNL     1       2.174   3.851  21.495  0.00  0.00    +0.000 A 
ENDBRANCH  18  19
ENDBRANCH  17  18
ENDBRANCH  16  17
ENDBRANCH  15  16
ENDBRANCH  12  15
TORSDOF 6
ENDMDL
MODEL 2
REMARK VINA RESULT:      -7.5      0.843      1.110
REMARK  Name = 
REMARK  7 active torsions:
REMARK  status: ('A' for Active; 'I' for Inactive)
REMARK    1  A    between atoms: C_1  and  C_2
REMARK    2  A    between atoms: C_2  and  C_3
REMARK    3  A    between atoms: N_14  and  C_15
REMARK    4  A    between atoms: C_15  and  C_16
REMARK    5  A    between atoms: C_16  and  C_17
REMARK    6  A    between atoms: C_17  and  C_18
REMARK    7  A    between atoms: C_18  and  N_19
REMARK                            x       y       z     vdW  Elec       q    Type
REMARK                         _______ _______ _______ _____ _____    ______ ____
ROOT
ATOM      1  C   UNL     1       7.062   5.803  17.053  0.00  0.00    +0.000 A 
ATOM      2  N   UNL     1       7.495   5.958  15.842  0.00  0.00    +0.000 NA
ATOM      3  C   UNL     1       6.965   5.179  14.817  0.00  0.00    +0.000 A 
ATOM      4  C   UNL     1       7.537   5.264  13.545  0.00  0.00    +0.000 A 
ATOM      5  C   UNL     1       7.124   4.402  12.525  0.00  0.00    +0.000 A 
ATOM      6  C   UNL     1       6.132   3.455  12.781  0.00  0.00    +0.000 A 
ATOM      7 CL   UNL     1       5.670   2.355  11.542  0.00  0.00    +0.000 Cl
ATOM      8  C   UNL     1       5.535   3.380  14.034  0.00  0.00    +0.000 A 
ATOM      9  C   UNL     1       5.957   4.251  15.046  0.00  0.00    +0.000 A 
ATOM     10  C   UNL     1       5.393   4.187  16.404  0.00  0.00    +0.000 A 
ATOM     11  O   UNL     1       4.456   3.417  16.614  0.00  0.00    +0.000 OA
ATOM     12  N   UNL     1       5.991   4.987  17.384  0.00  0.00    +0.000 N 
ENDROOT
BRANCH   1  14
ATOM     13  C   UNL     1       7.863   8.039  17.793  0.00  0.00    +0.000 C 
ATOM     14  C   UNL     1       7.837   6.551  18.126  0.00  0.00    +0.000 C 
ENDBRANCH   1  14
BRANCH  12  15
ATOM     15  C   UNL     1       5.506   4.785  18.756  0.00  0.00    +0.000 C 
BRANCH  15  16
ATOM     16  C   UNL     1       4.664   5.920  19.360  0.00  0.00    +0.000 C 
BRANCH  16  17
ATOM     17  C   UNL     1       3.354   6.241  18.637  0.00  0.00    +0.000 C 
BRANCH  17  18
ATOM     18  C   UNL     1       2.180   5.660  19.435  0.00  0.00    +0.000 C 
BRANCH  18  19
ATOM     19  N   UNL     1       1.950   4.250  19.201  0.00  0.00    +0.000 N 
ATOM     20  C   UNL     1       2.194   3.234  20.081  0.00  0.00    +0.000 A 
ATOM     21  C   UNL     1       1.725   2.103  19.454  0.00  0.00    +0.000 A 
ATOM     22  N   UNL     1       1.199   2.411  18.226  0.00  0.00    +0.000 NA
ATOM     23  C   UNL     1       1.342   3.712  18.104  0.00  0.00    +0.000 A 
ENDBRANCH  18  19
ENDBRANCH  17  18
ENDBRANCH  16  17
ENDBRANCH  15  16
ENDBRANCH  12  15
TORSDOF 6
ENDMDL
MODEL 3
REMARK VINA RESULT:      -7.5      3.598      7.218
REMARK  Name = 
REMARK  7 active torsions:
REMARK  status: ('A' for Active; 'I' for Inactive)
REMARK    1  A    between atoms: C_1  and  C_2
REMARK    2  A    between atoms: C_2  and  C_3
REMARK    3  A    between atoms: N_14  and  C_15
REMARK    4  A    between atoms: C_15  and  C_16
REMARK    5  A    between atoms: C_16  and  C_17
REMARK    6  A    between atoms: C_17  and  C_18
REMARK    7  A    between atoms: C_18  and  N_19
REMARK                            x       y       z     vdW  Elec       q    Type
REMARK                         _______ _______ _______ _____ _____    ______ ____
ROOT
ATOM      1  C   UNL     1       5.703   4.403  16.431  0.00  0.00    +0.000 A 
ATOM      2  N   UNL     1       4.576   3.773  16.323  0.00  0.00    +0.000 NA
ATOM      3  C   UNL     1       3.759   3.628  17.441  0.00  0.00    +0.000 A 
ATOM      4  C   UNL     1       2.615   2.832  17.338  0.00  0.00    +0.000 A 
ATOM      5  C   UNL     1       1.844   2.552  18.470  0.00  0.00    +0.000 A 
ATOM      6  C   UNL     1       2.219   3.076  19.707  0.00  0.00    +0.000 A 
ATOM      7 CL   UNL     1       1.305   2.680  21.109  0.00  0.00    +0.000 Cl
ATOM      8  C   UNL     1       3.339   3.893  19.818  0.00  0.00    +0.000 A 
ATOM      9  C   UNL     1       4.101   4.167  18.674  0.00  0.00    +0.000 A 
ATOM     10  C   UNL     1       5.320   4.988  18.740  0.00  0.00    +0.000 A 
ATOM     11  O   UNL     1       5.608   5.528  19.808  0.00  0.00    +0.000 OA
ATOM     12  N   UNL     1       6.099   5.070  17.579  0.00  0.00    +0.000 N 
ENDROOT
BRANCH   1  14
ATOM     13  C   UNL     1       5.779   4.015  13.975  0.00  0.00    +0.000 C 
ATOM     14  C   UNL     1       6.610   4.335  15.212  0.00  0.00    +0.000 C 
ENDBRANCH   1  14
BRANCH  12  15
ATOM     15  C   UNL     1       7.384   5.769  17.722  0.00  0.00    +0.000 C 
BRANCH  15  16
ATOM     16  C   UNL     1       7.397   7.262  17.360  0.00  0.00    +0.000 C 
BRANCH  16  17
ATOM     17  C   UNL     1       8.245   8.163  18.261  0.00  0.00    +0.000 C 
BRANCH  17  18
ATOM     18  C   UNL     1       8.284   9.578  17.670  0.00  0.00    +0.000 C 
BRANCH  18  19
ATOM     19  N   UNL     1       9.007  10.534  18.481  0.00  0.00    +0.000 N 
ATOM     20  C   UNL     1       9.294  11.827  18.145  0.00  0.00    +0.000 A 
ATOM     21  C   UNL     1       9.894  12.358  19.262  0.00  0.00    +0.000 A 
ATOM     22  N   UNL     1       9.969  11.425  20.264  0.00  0.00    +0.000 NA
ATOM     23  C   UNL     1       9.421  10.338  19.767  0.00  0.00    +0.000 A 
ENDBRANCH  18  19
ENDBRANCH  17  18
ENDBRANCH  16  17
ENDBRANCH  15  16
ENDBRANCH  12  15
TORSDOF 6
ENDMDL
MODEL 4
REMARK VINA RESULT:      -7.0      3.606      7.208
REMARK  Name = 
REMARK  7 active torsions:
REMARK  status: ('A' for Active; 'I' for Inactive)
REMARK    1  A    between atoms: C_1  and  C_2
REMARK    2  A    between atoms: C_2  and  C_3
REMARK    3  A    between atoms: N_14  and  C_15
REMARK    4  A    between atoms: C_15  and  C_16
REMARK    5  A    between atoms: C_16  and  C_17
REMARK    6  A    between atoms: C_17  and  C_18
REMARK    7  A    between atoms: C_18  and  N_19
REMARK                            x       y       z     vdW  Elec       q    Type
REMARK                         _______ _______ _______ _____ _____    ______ ____
ROOT
ATOM      1  C   UNL     1       5.600   4.507  16.432  0.00  0.00    +0.000 A 
ATOM      2  N   UNL     1       4.969   3.398  16.654  0.00  0.00    +0.000 NA
ATOM      3  C   UNL     1       3.960   3.359  17.613  0.00  0.00    +0.000 A 
ATOM      4  C   UNL     1       3.385   2.127  17.934  0.00  0.00    +0.000 A 
ATOM      5  C   UNL     1       2.468   2.026  18.984  0.00  0.00    +0.000 A 
ATOM      6  C   UNL     1       2.124   3.166  19.711  0.00  0.00    +0.000 A 
ATOM      7 CL   UNL     1       1.043   3.029  21.042  0.00  0.00    +0.000 Cl
ATOM      8  C   UNL     1       2.668   4.403  19.383  0.00  0.00    +0.000 A 
ATOM      9  C   UNL     1       3.584   4.489  18.327  0.00  0.00    +0.000 A 
ATOM     10  C   UNL     1       4.224   5.764  17.965  0.00  0.00    +0.000 A 
ATOM     11  O   UNL     1       3.860   6.788  18.541  0.00  0.00    +0.000 OA
ATOM     12  N   UNL     1       5.243   5.718  17.006  0.00  0.00    +0.000 N 
ENDROOT
BRANCH   1  14
ATOM     13  C   UNL     1       6.346   4.241  14.074  0.00  0.00    +0.000 C 
ATOM     14  C   UNL     1       6.810   4.401  15.518  0.00  0.00    +0.000 C 
ENDBRANCH   1  14
BRANCH  12  15
ATOM     15  C   UNL     1       5.963   6.978  16.780  0.00  0.00    +0.000 C 
BRANCH  15  16
ATOM     16  C   UNL     1       7.185   7.239  17.676  0.00  0.00    +0.000 C 
BRANCH  16  17
ATOM     17  C   UNL     1       7.804   8.635  17.574  0.00  0.00    +0.000 C 
BRANCH  17  18
ATOM     18  C   UNL     1       8.768   8.849  18.748  0.00  0.00    +0.000 C 
BRANCH  18  19
ATOM     19  N   UNL     1       9.080  10.237  19.008  0.00  0.00    +0.000 N 
ATOM     20  C   UNL     1       9.359  10.790  20.226  0.00  0.00    +0.000 A 
ATOM     21  C   UNL     1       9.688  12.097  19.955  0.00  0.00    +0.000 A 
ATOM     22  N   UNL     1       9.625  12.345  18.608  0.00  0.00    +0.000 NA
ATOM     23  C   UNL     1       9.262  11.205  18.063  0.00  0.00    +0.000 A 
ENDBRANCH  18  19
ENDBRANCH  17  18
ENDBRANCH  16  17
ENDBRANCH  15  16
ENDBRANCH  12  15
TORSDOF 6
ENDMDL
MODEL 5
REMARK VINA RESULT:      -6.9      2.022      3.048
REMARK  Name = 
REMARK  7 active torsions:
REMARK  status: ('A' for Active; 'I' for Inactive)
REMARK    1  A    between atoms: C_1  and  C_2
REMARK    2  A    between atoms: C_2  and  C_3
REMARK    3  A    between atoms: N_14  and  C_15
REMARK    4  A    between atoms: C_15  and  C_16
REMARK    5  A    between atoms: C_16  and  C_17
REMARK    6  A    between atoms: C_17  and  C_18
REMARK    7  A    between atoms: C_18  and  N_19
REMARK                            x       y       z     vdW  Elec       q    Type
REMARK                         _______ _______ _______ _____ _____    ______ ____
ROOT
ATOM      1  C   UNL     1       6.998   5.617  17.177  0.00  0.00    +0.000 A 
ATOM      2  N   UNL     1       7.475   5.757  15.981  0.00  0.00    +0.000 NA
ATOM      3  C   UNL     1       6.900   5.057  14.924  0.00  0.00    +0.000 A 
ATOM      4  C   UNL     1       7.511   5.114  13.669  0.00  0.00    +0.000 A 
ATOM      5  C   UNL     1       7.043   4.319  12.618  0.00  0.00    +0.000 A 
ATOM      6  C   UNL     1       5.958   3.468  12.826  0.00  0.00    +0.000 A 
ATOM      7 CL   UNL     1       5.424   2.446  11.550  0.00  0.00    +0.000 Cl
ATOM      8  C   UNL     1       5.323   3.423  14.063  0.00  0.00    +0.000 A 
ATOM      9  C   UNL     1       5.801   4.226  15.106  0.00  0.00    +0.000 A 
ATOM     10  C   UNL     1       5.197   4.187  16.447  0.00  0.00    +0.000 A 
ATOM     11  O   UNL     1       4.185   3.508  16.615  0.00  0.00    +0.000 OA
ATOM     12  N   UNL     1       5.845   4.903  17.461  0.00  0.00    +0.000 N 
ENDROOT
BRANCH   1  14
ATOM     13  C   UNL     1       7.917   7.763  18.037  0.00  0.00    +0.000 C 
ATOM     14  C   UNL     1       7.813   6.262  18.287  0.00  0.00    +0.000 C 
ENDBRANCH   1  14
BRANCH  12  15
ATOM     15  C   UNL     1       5.306   4.718  18.815  0.00  0.00    +0.000 C 
BRANCH  15  16
ATOM     16  C   UNL     1       4.490   5.885  19.394  0.00  0.00    +0.000 C 
BRANCH  16  17
ATOM     17  C   UNL     1       3.012   5.929  19.001  0.00  0.00    +0.000 C 
BRANCH  17  18
ATOM     18  C   UNL     1       2.798   7.034  17.959  0.00  0.00    +0.000 C 
BRANCH  18  19
ATOM     19  N   UNL     1       2.101   8.196  18.467  0.00  0.00    +0.000 N 
ATOM     20  C   UNL     1       1.510   8.312  19.694  0.00  0.00    +0.000 A 
ATOM     21  C   UNL     1       1.076   9.615  19.756  0.00  0.00    +0.000 A 
ATOM     22  N   UNL     1       1.397  10.289  18.605  0.00  0.00    +0.000 NA
ATOM     23  C   UNL     1       2.019   9.411  17.851  0.00  0.00    +0.000 A 
ENDBRANCH  18  19
ENDBRANCH  17  18
ENDBRANCH  16  17
ENDBRANCH  15  16
ENDBRANCH  12  15
TORSDOF 6
ENDMDL
MODEL 6
REMARK VINA RESULT:      -6.8      1.142      1.486
REMARK  Name = 
REMARK  7 active torsions:
REMARK  status: ('A' for Active; 'I' for Inactive)
REMARK    1  A    between atoms: C_1  and  C_2
REMARK    2  A    between atoms: C_2  and  C_3
REMARK    3  A    between atoms: N_14  and  C_15
REMARK    4  A    between atoms: C_15  and  C_16
REMARK    5  A    between atoms: C_16  and  C_17
REMARK    6  A    between atoms: C_17  and  C_18
REMARK    7  A    between atoms: C_18  and  N_19
REMARK                            x       y       z     vdW  Elec       q    Type
REMARK                         _______ _______ _______ _____ _____    ______ ____
ROOT
ATOM      1  C   UNL     1       6.943   5.959  16.701  0.00  0.00    +0.000 A 
ATOM      2  N   UNL     1       7.516   5.899  15.541  0.00  0.00    +0.000 NA
ATOM      3  C   UNL     1       6.945   5.131  14.529  0.00  0.00    +0.000 A 
ATOM      4  C   UNL     1       7.646   4.969  13.332  0.00  0.00    +0.000 A 
ATOM      5  C   UNL     1       7.172   4.098  12.346  0.00  0.00    +0.000 A 
ATOM      6  C   UNL     1       5.989   3.391  12.562  0.00  0.00    +0.000 A 
ATOM      7 CL   UNL     1       5.439   2.274  11.376  0.00  0.00    +0.000 Cl
ATOM      8  C   UNL     1       5.267   3.565  13.738  0.00  0.00    +0.000 A 
ATOM      9  C   UNL     1       5.753   4.443  14.715  0.00  0.00    +0.000 A 
ATOM     10  C   UNL     1       5.055   4.632  15.997  0.00  0.00    +0.000 A 
ATOM     11  O   UNL     1       3.966   4.083  16.158  0.00  0.00    +0.000 OA
ATOM     12  N   UNL     1       5.702   5.403  16.970  0.00  0.00    +0.000 N 
ENDROOT
BRANCH   1  14
ATOM     13  C   UNL     1       7.709   8.163  17.564  0.00  0.00    +0.000 C 
ATOM     14  C   UNL     1       7.742   6.656  17.791  0.00  0.00    +0.000 C 
ENDBRANCH   1  14
BRANCH  12  15
ATOM     15  C   UNL     1       5.051   5.445  18.286  0.00  0.00    +0.000 C 
BRANCH  15  16
ATOM     16  C   UNL     1       5.701   4.609  19.400  0.00  0.00    +0.000 C 
BRANCH  16  17
ATOM     17  C   UNL     1       4.752   3.734  20.222  0.00  0.00    +0.000 C 
BRANCH  17  18
ATOM     18  C   UNL     1       4.119   2.676  19.308  0.00  0.00    +0.000 C 
BRANCH  18  19
ATOM     19  N   UNL     1       2.674   2.718  19.273  0.00  0.00    +0.000 N 
ATOM     20  C   UNL     1       1.874   2.238  18.274  0.00  0.00    +0.000 A 
ATOM     21  C   UNL     1       0.590   2.410  18.736  0.00  0.00    +0.000 A 
ATOM     22  N   UNL     1       0.594   2.970  19.987  0.00  0.00    +0.000 NA
ATOM     23  C   UNL     1       1.862   3.138  20.287  0.00  0.00    +0.000 A 
ENDBRANCH  18  19
ENDBRANCH  17  18
ENDBRANCH  16  17
ENDBRANCH  15  16
ENDBRANCH  12  15
TORSDOF 6
ENDMDL
MODEL 7
REMARK VINA RESULT:      -6.7      4.066      7.927
REMARK  Name = 
REMARK  7 active torsions:
REMARK  status: ('A' for Active; 'I' for Inactive)
REMARK    1  A    between atoms: C_1  and  C_2
REMARK    2  A    between atoms: C_2  and  C_3
REMARK    3  A    between atoms: N_14  and  C_15
REMARK    4  A    between atoms: C_15  and  C_16
REMARK    5  A    between atoms: C_16  and  C_17
REMARK    6  A    between atoms: C_17  and  C_18
REMARK    7  A    between atoms: C_18  and  N_19
REMARK                            x       y       z     vdW  Elec       q    Type
REMARK                         _______ _______ _______ _____ _____    ______ ____
ROOT
ATOM      1  C   UNL     1       2.138   6.432  20.091  0.00  0.00    +0.000 A 
ATOM      2  N   UNL     1       1.415   7.121  20.916  0.00  0.00    +0.000 NA
ATOM      3  C   UNL     1       1.052   8.425  20.590  0.00  0.00    +0.000 A 
ATOM      4  C   UNL     1       0.389   9.197  21.547  0.00  0.00    +0.000 A 
ATOM      5  C   UNL     1       0.130  10.550  21.308  0.00  0.00    +0.000 A 
ATOM      6  C   UNL     1       0.533  11.128  20.105  0.00  0.00    +0.000 A 
ATOM      7 CL   UNL     1       0.268  12.807  19.839  0.00  0.00    +0.000 Cl
ATOM      8  C   UNL     1       1.168  10.364  19.132  0.00  0.00    +0.000 A 
ATOM      9  C   UNL     1       1.420   9.009  19.384  0.00  0.00    +0.000 A 
ATOM     10  C   UNL     1       2.128   8.163  18.410  0.00  0.00    +0.000 A 
ATOM     11  O   UNL     1       2.407   8.641  17.311  0.00  0.00    +0.000 OA
ATOM     12  N   UNL     1       2.474   6.870  18.819  0.00  0.00    +0.000 N 
ENDROOT
BRANCH   1  14
ATOM     13  C   UNL     1       1.473   4.146  20.813  0.00  0.00    +0.000 C 
ATOM     14  C   UNL     1       2.646   5.100  20.620  0.00  0.00    +0.000 C 
ENDBRANCH   1  14
BRANCH  12  15
ATOM     15  C   UNL     1       3.312   6.108  17.883  0.00  0.00    +0.000 C 
BRANCH  15  16
ATOM     16  C   UNL     1       2.764   4.749  17.422  0.00  0.00    +0.000 C 
BRANCH  16  17
ATOM     17  C   UNL     1       3.783   3.610  17.335  0.00  0.00    +0.000 C 
BRANCH  17  18
ATOM     18  C   UNL     1       5.173   4.143  17.705  0.00  0.00    +0.000 C 
BRANCH  18  19
ATOM     19  N   UNL     1       6.018   4.422  16.565  0.00  0.00    +0.000 N 
ATOM     20  C   UNL     1       5.891   3.888  15.314  0.00  0.00    +0.000 A 
ATOM     21  C   UNL     1       6.846   4.525  14.558  0.00  0.00    +0.000 A 
ATOM     22  N   UNL     1       7.539   5.434  15.316  0.00  0.00    +0.000 NA
ATOM     23  C   UNL     1       7.014   5.355  16.518  0.00  0.00    +0.000 A 
ENDBRANCH  18  19
ENDBRANCH  17  18
ENDBRANCH  16  17
ENDBRANCH  15  16
ENDBRANCH  12  15
TORSDOF 6
ENDMDL
MODEL 8
REMARK VINA RESULT:      -6.6      3.503      7.252
REMARK  Name = 
REMARK  7 active torsions:
REMARK  status: ('A' for Active; 'I' for Inactive)
REMARK    1  A    between atoms: C_1  and  C_2
REMARK    2  A    between atoms: C_2  and  C_3
REMARK    3  A    between atoms: N_14  and  C_15
REMARK    4  A    between atoms: C_15  and  C_16
REMARK    5  A    between atoms: C_16  and  C_17
REMARK    6  A    between atoms: C_17  and  C_18
REMARK    7  A    between atoms: C_18  and  N_19
REMARK                            x       y       z     vdW  Elec       q    Type
REMARK                         _______ _______ _______ _____ _____    ______ ____
ROOT
ATOM      1  C   UNL     1       5.807   4.817  16.336  0.00  0.00    +0.000 A 
ATOM      2  N   UNL     1       4.672   4.213  16.181  0.00  0.00    +0.000 NA
ATOM      3  C   UNL     1       3.849   3.999  17.283  0.00  0.00    +0.000 A 
ATOM      4  C   UNL     1       2.694   3.229  17.120  0.00  0.00    +0.000 A 
ATOM      5  C   UNL     1       1.916   2.878  18.227  0.00  0.00    +0.000 A 
ATOM      6  C   UNL     1       2.295   3.304  19.500  0.00  0.00    +0.000 A 
ATOM      7 CL   UNL     1       1.370   2.820  20.867  0.00  0.00    +0.000 Cl
ATOM      8  C   UNL     1       3.426   4.095  19.672  0.00  0.00    +0.000 A 
ATOM      9  C   UNL     1       4.195   4.441  18.553  0.00  0.00    +0.000 A 
ATOM     10  C   UNL     1       5.425   5.237  18.681  0.00  0.00    +0.000 A 
ATOM     11  O   UNL     1       5.718   5.693  19.786  0.00  0.00    +0.000 OA
ATOM     12  N   UNL     1       6.209   5.393  17.531  0.00  0.00    +0.000 N 
ENDROOT
BRANCH   1  14
ATOM     13  C   UNL     1       6.141   3.910  14.044  0.00  0.00    +0.000 C 
ATOM     14  C   UNL     1       6.717   4.826  15.118  0.00  0.00    +0.000 C 
ENDBRANCH   1  14
BRANCH  12  15
ATOM     15  C   UNL     1       7.503   6.060  17.727  0.00  0.00    +0.000 C 
BRANCH  15  16
ATOM     16  C   UNL     1       7.703   7.398  16.996  0.00  0.00    +0.000 C 
BRANCH  16  17
ATOM     17  C   UNL     1       7.407   8.658  17.812  0.00  0.00    +0.000 C 
BRANCH  17  18
ATOM     18  C   UNL     1       8.702   9.153  18.469  0.00  0.00    +0.000 C 
BRANCH  18  19
ATOM     19  N   UNL     1       8.986  10.551  18.228  0.00  0.00    +0.000 N 
ATOM     20  C   UNL     1      10.198  11.166  18.372  0.00  0.00    +0.000 A 
ATOM     21  C   UNL     1       9.994  12.454  17.934  0.00  0.00    +0.000 A 
ATOM     22  N   UNL     1       8.698  12.628  17.522  0.00  0.00    +0.000 NA
ATOM     23  C   UNL     1       8.117  11.464  17.705  0.00  0.00    +0.000 A 
ENDBRANCH  18  19
ENDBRANCH  17  18
ENDBRANCH  16  17
ENDBRANCH  15  16
ENDBRANCH  12  15
TORSDOF 6
ENDMDL
MODEL 9
REMARK VINA RESULT:      -6.5      2.148      3.120
REMARK  Name = 
REMARK  7 active torsions:
REMARK  status: ('A' for Active; 'I' for Inactive)
REMARK    1  A    between atoms: C_1  and  C_2
REMARK    2  A    between atoms: C_2  and  C_3
REMARK    3  A    between atoms: N_14  and  C_15
REMARK    4  A    between atoms: C_15  and  C_16
REMARK    5  A    between atoms: C_16  and  C_17
REMARK    6  A    between atoms: C_17  and  C_18
REMARK    7  A    between atoms: C_18  and  N_19
REMARK                            x       y       z     vdW  Elec       q    Type
REMARK                         _______ _______ _______ _____ _____    ______ ____
ROOT
ATOM      1  C   UNL     1       6.732   5.831  17.202  0.00  0.00    +0.000 A 
ATOM      2  N   UNL     1       7.288   5.945  16.037  0.00  0.00    +0.000 NA
ATOM      3  C   UNL     1       6.804   5.197  14.967  0.00  0.00    +0.000 A 
ATOM      4  C   UNL     1       7.499   5.231  13.755  0.00  0.00    +0.000 A 
ATOM      5  C   UNL     1       7.124   4.391  12.702  0.00  0.00    +0.000 A 
ATOM      6  C   UNL     1       6.048   3.519  12.864  0.00  0.00    +0.000 A 
ATOM      7 CL   UNL     1       5.628   2.444  11.588  0.00  0.00    +0.000 Cl
ATOM      8  C   UNL     1       5.331   3.496  14.054  0.00  0.00    +0.000 A 
ATOM      9  C   UNL     1       5.716   4.344  15.101  0.00  0.00    +0.000 A 
ATOM     10  C   UNL     1       5.021   4.331  16.398  0.00  0.00    +0.000 A 
ATOM     11  O   UNL     1       4.017   3.631  16.519  0.00  0.00    +0.000 OA
ATOM     12  N   UNL     1       5.580   5.095  17.430  0.00  0.00    +0.000 N 
ENDROOT
BRANCH   1  14
ATOM     13  C   UNL     1       8.184   5.500  19.194  0.00  0.00    +0.000 C 
ATOM     14  C   UNL     1       7.453   6.532  18.343  0.00  0.00    +0.000 C 
ENDBRANCH   1  14
BRANCH  12  15
ATOM     15  C   UNL     1       4.953   4.939  18.749  0.00  0.00    +0.000 C 
BRANCH  15  16
ATOM     16  C   UNL     1       4.063   6.098  19.228  0.00  0.00    +0.000 C 
BRANCH  16  17
ATOM     17  C   UNL     1       2.716   6.246  18.517  0.00  0.00    +0.000 C 
BRANCH  17  18
ATOM     18  C   UNL     1       2.659   7.611  17.819  0.00  0.00    +0.000 C 
BRANCH  18  19
ATOM     19  N   UNL     1       1.983   8.635  18.585  0.00  0.00    +0.000 N 
ATOM     20  C   UNL     1       1.637   9.880  18.141  0.00  0.00    +0.000 A 
ATOM     21  C   UNL     1       0.933  10.443  19.180  0.00  0.00    +0.000 A 
ATOM     22  N   UNL     1       0.837   9.568  20.232  0.00  0.00    +0.000 NA
ATOM     23  C   UNL     1       1.473   8.486  19.842  0.00  0.00    +0.000 A 
ENDBRANCH  18  19
ENDBRANCH  17  18
ENDBRANCH  16  17
ENDBRANCH  15  16
ENDBRANCH  12  15
TORSDOF 6
ENDMDL
