MODEL 1
REMARK VINA RESULT:      -8.5      0.000      0.000
REMARK  Name = 
REMARK  2 active torsions:
REMARK  status: ('A' for Active; 'I' for Inactive)
REMARK    1  A    between atoms: C_7  and  C_8
REMARK    2  A    between atoms: N_12  and  C_13
REMARK                            x       y       z     vdW  Elec       q    Type
REMARK                         _______ _______ _______ _____ _____    ______ ____
ROOT
ATOM      1  C   UNL     1       1.757   8.794  18.852  0.00  0.00    +0.000 C 
ATOM      2  N   UNL     1       0.887   8.900  19.808  0.00  0.00    +0.000 NA
ATOM      3  N   UNL     1       0.045  10.000  19.879  0.00  0.00    +0.000 NA
ATOM      4  C   UNL     1       0.352  11.174  19.409  0.00  0.00    +0.000 C 
ATOM      5  N   UNL     1      -0.435  12.293  19.529  0.00  0.00    +0.000 N 
ATOM      6  S   UNL     1       1.839  11.490  18.541  0.00  0.00    +0.000 S 
ATOM      7  C   UNL     1       1.990   9.854  17.807  0.00  0.00    +0.000 C 
ATOM      8  H   UNL     1      -0.062  13.142  19.120  0.00  0.00    +0.000 HD
ENDROOT
BRANCH   1  15
ATOM      9  O   UNL     1       4.161   2.110  19.970  0.00  0.00    +0.000 OA
ATOM     10  C   UNL     1       3.953   3.257  19.620  0.00  0.00    +0.000 A 
ATOM     11  N   UNL     1       4.499   3.909  18.505  0.00  0.00    +0.000 N 
ATOM     12  C   UNL     1       3.980   5.196  18.440  0.00  0.00    +0.000 A 
ATOM     13  C   UNL     1       4.201   6.190  17.520  0.00  0.00    +0.000 A 
ATOM     14  C   UNL     1       3.477   7.376  17.694  0.00  0.00    +0.000 A 
ATOM     15  C   UNL     1       2.556   7.532  18.767  0.00  0.00    +0.000 A 
ATOM     16  C   UNL     1       2.397   6.516  19.722  0.00  0.00    +0.000 A 
ATOM     17  C   UNL     1       3.111   5.360  19.517  0.00  0.00    +0.000 A 
ATOM     18  N   UNL     1       3.104   4.179  20.249  0.00  0.00    +0.000 N 
ATOM     19  H   UNL     1       5.135   3.472  17.858  0.00  0.00    +0.000 HD
ATOM     20  H   UNL     1       2.568   3.967  21.074  0.00  0.00    +0.000 HD
ENDBRANCH   1  15
BRANCH   5  21
ATOM     21  C   UNL     1      -1.849  12.295  19.635  0.00  0.00    +0.000 A 
ATOM     22  C   UNL     1      -2.468  12.747  20.814  0.00  0.00    +0.000 A 
ATOM     23  C   UNL     1      -3.850  12.748  20.952  0.00  0.00    +0.000 A 
ATOM     24  C   UNL     1      -4.646  12.305  19.905  0.00  0.00    +0.000 A 
ATOM     25  C   UNL     1      -4.074  11.865  18.704  0.00  0.00    +0.000 A 
ATOM     26  C   UNL     1      -4.905  11.446  17.653  0.00  0.00    +0.000 A 
ATOM     27  C   UNL     1      -4.369  11.025  16.439  0.00  0.00    +0.000 A 
ATOM     28  C   UNL     1      -2.991  11.023  16.260  0.00  0.00    +0.000 A 
ATOM     29  C   UNL     1      -2.149  11.434  17.299  0.00  0.00    +0.000 A 
ATOM     30  C   UNL     1      -2.663  11.856  18.549  0.00  0.00    +0.000 A 
ENDBRANCH   5  21
TORSDOF 2
ENDMDL
MODEL 2
REMARK VINA RESULT:      -8.3      3.886      9.144
REMARK  Name = 
REMARK  2 active torsions:
REMARK  status: ('A' for Active; 'I' for Inactive)
REMARK    1  A    between atoms: C_7  and  C_8
REMARK    2  A    between atoms: N_12  and  C_13
REMARK                            x       y       z     vdW  Elec       q    Type
REMARK                         _______ _______ _______ _____ _____    ______ ____
ROOT
ATOM      1  C   UNL     1       0.897   9.865  19.590  0.00  0.00    +0.000 C 
ATOM      2  N   UNL     1       1.782   9.342  18.799  0.00  0.00    +0.000 NA
ATOM      3  N   UNL     1       2.156   8.014  18.937  0.00  0.00    +0.000 NA
ATOM      4  C   UNL     1       2.112   7.366  20.064  0.00  0.00    +0.000 C 
ATOM      5  N   UNL     1       2.542   6.073  20.240  0.00  0.00    +0.000 N 
ATOM      6  S   UNL     1       1.483   8.069  21.540  0.00  0.00    +0.000 S 
ATOM      7  C   UNL     1       0.268   9.134  20.747  0.00  0.00    +0.000 C 
ATOM      8  H   UNL     1       2.454   5.702  21.178  0.00  0.00    +0.000 HD
ENDROOT
BRANCH   1  15
ATOM      9  O   UNL     1       0.790  17.031  18.999  0.00  0.00    +0.000 OA
ATOM     10  C   UNL     1       0.565  15.835  19.020  0.00  0.00    +0.000 A 
ATOM     11  N   UNL     1      -0.511  15.170  18.416  0.00  0.00    +0.000 N 
ATOM     12  C   UNL     1      -0.382  13.806  18.647  0.00  0.00    +0.000 A 
ATOM     13  C   UNL     1      -1.176  12.764  18.236  0.00  0.00    +0.000 A 
ATOM     14  C   UNL     1      -0.746  11.477  18.584  0.00  0.00    +0.000 A 
ATOM     15  C   UNL     1       0.454  11.268  19.318  0.00  0.00    +0.000 A 
ATOM     16  C   UNL     1       1.211  12.360  19.770  0.00  0.00    +0.000 A 
ATOM     17  C   UNL     1       0.772  13.608  19.402  0.00  0.00    +0.000 A 
ATOM     18  N   UNL     1       1.345  14.851  19.645  0.00  0.00    +0.000 N 
ATOM     19  H   UNL     1      -1.225  15.635  17.879  0.00  0.00    +0.000 HD
ATOM     20  H   UNL     1       2.195  15.051  20.146  0.00  0.00    +0.000 HD
ENDBRANCH   1  15
BRANCH   5  21
ATOM     21  C   UNL     1       2.559   5.071  19.236  0.00  0.00    +0.000 A 
ATOM     22  C   UNL     1       1.450   4.223  19.066  0.00  0.00    +0.000 A 
ATOM     23  C   UNL     1       1.443   3.226  18.100  0.00  0.00    +0.000 A 
ATOM     24  C   UNL     1       2.545   3.060  17.274  0.00  0.00    +0.000 A 
ATOM     25  C   UNL     1       3.664   3.895  17.393  0.00  0.00    +0.000 A 
ATOM     26  C   UNL     1       4.755   3.720  16.527  0.00  0.00    +0.000 A 
ATOM     27  C   UNL     1       5.872   4.548  16.604  0.00  0.00    +0.000 A 
ATOM     28  C   UNL     1       5.909   5.566  17.549  0.00  0.00    +0.000 A 
ATOM     29  C   UNL     1       4.833   5.750  18.422  0.00  0.00    +0.000 A 
ATOM     30  C   UNL     1       3.687   4.918  18.377  0.00  0.00    +0.000 A 
ENDBRANCH   5  21
TORSDOF 2
ENDMDL
MODEL 3
REMARK VINA RESULT:      -8.3      1.142      1.688
REMARK  Name = 
REMARK  2 active torsions:
REMARK  status: ('A' for Active; 'I' for Inactive)
REMARK    1  A    between atoms: C_7  and  C_8
REMARK    2  A    between atoms: N_12  and  C_13
REMARK                            x       y       z     vdW  Elec       q    Type
REMARK                         _______ _______ _______ _____ _____    ______ ____
ROOT
ATOM      1  C   UNL     1       1.682   8.944  18.839  0.00  0.00    +0.000 C 
ATOM      2  N   UNL     1       0.777   8.983  19.766  0.00  0.00    +0.000 NA
ATOM      3  N   UNL     1      -0.088  10.063  19.864  0.00  0.00    +0.000 NA
ATOM      4  C   UNL     1       0.214  11.266  19.468  0.00  0.00    +0.000 C 
ATOM      5  N   UNL     1      -0.598  12.364  19.618  0.00  0.00    +0.000 N 
ATOM      6  S   UNL     1       1.725  11.654  18.674  0.00  0.00    +0.000 S 
ATOM      7  C   UNL     1       1.933  10.061  17.860  0.00  0.00    +0.000 C 
ATOM      8  H   UNL     1      -0.227  13.239  19.269  0.00  0.00    +0.000 HD
ENDROOT
BRANCH   1  15
ATOM      9  O   UNL     1       6.639   4.183  16.723  0.00  0.00    +0.000 OA
ATOM     10  C   UNL     1       5.721   4.798  17.233  0.00  0.00    +0.000 A 
ATOM     11  N   UNL     1       5.023   4.455  18.400  0.00  0.00    +0.000 N 
ATOM     12  C   UNL     1       4.076   5.437  18.661  0.00  0.00    +0.000 A 
ATOM     13  C   UNL     1       3.181   5.545  19.697  0.00  0.00    +0.000 A 
ATOM     14  C   UNL     1       2.385   6.697  19.716  0.00  0.00    +0.000 A 
ATOM     15  C   UNL     1       2.508   7.702  18.717  0.00  0.00    +0.000 A 
ATOM     16  C   UNL     1       3.394   7.532  17.642  0.00  0.00    +0.000 A 
ATOM     17  C   UNL     1       4.170   6.399  17.657  0.00  0.00    +0.000 A 
ATOM     18  N   UNL     1       5.167   6.001  16.773  0.00  0.00    +0.000 N 
ATOM     19  H   UNL     1       5.227   3.638  18.953  0.00  0.00    +0.000 HD
ATOM     20  H   UNL     1       5.492   6.485  15.953  0.00  0.00    +0.000 HD
ENDBRANCH   1  15
BRANCH   5  21
ATOM     21  C   UNL     1      -2.015  12.335  19.672  0.00  0.00    +0.000 A 
ATOM     22  C   UNL     1      -2.687  12.770  20.829  0.00  0.00    +0.000 A 
ATOM     23  C   UNL     1      -4.073  12.742  20.915  0.00  0.00    +0.000 A 
ATOM     24  C   UNL     1      -4.820  12.286  19.838  0.00  0.00    +0.000 A 
ATOM     25  C   UNL     1      -4.194  11.863  18.658  0.00  0.00    +0.000 A 
ATOM     26  C   UNL     1      -4.977  11.430  17.576  0.00  0.00    +0.000 A 
ATOM     27  C   UNL     1      -4.388  11.025  16.381  0.00  0.00    +0.000 A 
ATOM     28  C   UNL     1      -3.005  11.052  16.254  0.00  0.00    +0.000 A 
ATOM     29  C   UNL     1      -2.211  11.476  17.324  0.00  0.00    +0.000 A 
ATOM     30  C   UNL     1      -2.779  11.884  18.555  0.00  0.00    +0.000 A 
ENDBRANCH   5  21
TORSDOF 2
ENDMDL
MODEL 4
REMARK VINA RESULT:      -8.2      3.665      9.085
REMARK  Name = 
REMARK  2 active torsions:
REMARK  status: ('A' for Active; 'I' for Inactive)
REMARK    1  A    between atoms: C_7  and  C_8
REMARK    2  A    between atoms: N_12  and  C_13
REMARK                            x       y       z     vdW  Elec       q    Type
REMARK                         _______ _______ _______ _____ _____    ______ ____
ROOT
ATOM      1  C   UNL     1      -0.486   9.641  19.419  0.00  0.00    +0.000 C 
ATOM      2  N   UNL     1       0.328   9.448  18.428  0.00  0.00    +0.000 NA
ATOM      3  N   UNL     1       1.338   8.501  18.518  0.00  0.00    +0.000 NA
ATOM      4  C   UNL     1       1.890   8.142  19.640  0.00  0.00    +0.000 C 
ATOM      5  N   UNL     1       2.938   7.260  19.748  0.00  0.00    +0.000 N 
ATOM      6  S   UNL     1       1.360   8.744  21.196  0.00  0.00    +0.000 S 
ATOM      7  C   UNL     1      -0.372   8.944  20.749  0.00  0.00    +0.000 C 
ATOM      8  H   UNL     1       3.271   7.081  20.687  0.00  0.00    +0.000 HD
ENDROOT
BRANCH   1  15
ATOM      9  O   UNL     1      -6.601  12.631  17.099  0.00  0.00    +0.000 OA
ATOM     10  C   UNL     1      -5.539  12.345  17.621  0.00  0.00    +0.000 A 
ATOM     11  N   UNL     1      -4.936  12.988  18.711  0.00  0.00    +0.000 N 
ATOM     12  C   UNL     1      -3.751  12.332  19.019  0.00  0.00    +0.000 A 
ATOM     13  C   UNL     1      -2.838  12.582  20.014  0.00  0.00    +0.000 A 
ATOM     14  C   UNL     1      -1.757  11.696  20.106  0.00  0.00    +0.000 A 
ATOM     15  C   UNL     1      -1.623  10.594  19.218  0.00  0.00    +0.000 A 
ATOM     16  C   UNL     1      -2.545  10.401  18.178  0.00  0.00    +0.000 A 
ATOM     17  C   UNL     1      -3.601  11.278  18.120  0.00  0.00    +0.000 A 
ATOM     18  N   UNL     1      -4.687  11.293  17.254  0.00  0.00    +0.000 N 
ATOM     19  H   UNL     1      -5.343  13.774  19.191  0.00  0.00    +0.000 HD
ATOM     20  H   UNL     1      -4.886  10.654  16.502  0.00  0.00    +0.000 HD
ENDBRANCH   1  15
BRANCH   5  21
ATOM     21  C   UNL     1       3.220   6.207  18.841  0.00  0.00    +0.000 A 
ATOM     22  C   UNL     1       4.198   6.375  17.844  0.00  0.00    +0.000 A 
ATOM     23  C   UNL     1       4.487   5.366  16.935  0.00  0.00    +0.000 A 
ATOM     24  C   UNL     1       3.808   4.158  17.009  0.00  0.00    +0.000 A 
ATOM     25  C   UNL     1       2.840   3.938  17.998  0.00  0.00    +0.000 A 
ATOM     26  C   UNL     1       2.187   2.697  18.064  0.00  0.00    +0.000 A 
ATOM     27  C   UNL     1       1.238   2.438  19.049  0.00  0.00    +0.000 A 
ATOM     28  C   UNL     1       0.932   3.419  19.984  0.00  0.00    +0.000 A 
ATOM     29  C   UNL     1       1.571   4.662  19.929  0.00  0.00    +0.000 A 
ATOM     30  C   UNL     1       2.533   4.960  18.934  0.00  0.00    +0.000 A 
ENDBRANCH   5  21
TORSDOF 2
ENDMDL
MODEL 5
REMARK VINA RESULT:      -8.2      1.501      2.416
REMARK  Name = 
REMARK  2 active torsions:
REMARK  status: ('A' for Active; 'I' for Inactive)
REMARK    1  A    between atoms: C_7  and  C_8
REMARK    2  A    between atoms: N_12  and  C_13
REMARK                            x       y       z     vdW  Elec       q    Type
REMARK                         _______ _______ _______ _____ _____    ______ ____
ROOT
ATOM      1  C   UNL     1       1.912   6.947  19.513  0.00  0.00    +0.000 C 
ATOM      2  N   UNL     1       1.547   7.780  20.439  0.00  0.00    +0.000 NA
ATOM      3  N   UNL     1       1.084   9.045  20.108  0.00  0.00    +0.000 NA
ATOM      4  C   UNL     1       1.442   9.685  19.033  0.00  0.00    +0.000 C 
ATOM      5  N   UNL     1       1.052  10.964  18.719  0.00  0.00    +0.000 N 
ATOM      6  S   UNL     1       2.487   8.986  17.814  0.00  0.00    +0.000 S 
ATOM      7  C   UNL     1       1.947   7.284  18.046  0.00  0.00    +0.000 C 
ATOM      8  H   UNL     1       1.416  11.337  17.851  0.00  0.00    +0.000 HD
ENDROOT
BRANCH   1  15
ATOM      9  O   UNL     1       5.620   0.874  20.550  0.00  0.00    +0.000 OA
ATOM     10  C   UNL     1       4.802   1.773  20.486  0.00  0.00    +0.000 A 
ATOM     11  N   UNL     1       3.591   1.860  21.188  0.00  0.00    +0.000 N 
ATOM     12  C   UNL     1       2.968   3.057  20.859  0.00  0.00    +0.000 A 
ATOM     13  C   UNL     1       1.784   3.587  21.308  0.00  0.00    +0.000 A 
ATOM     14  C   UNL     1       1.446   4.858  20.828  0.00  0.00    +0.000 A 
ATOM     15  C   UNL     1       2.294   5.561  19.928  0.00  0.00    +0.000 A 
ATOM     16  C   UNL     1       3.469   4.966  19.446  0.00  0.00    +0.000 A 
ATOM     17  C   UNL     1       3.781   3.724  19.944  0.00  0.00    +0.000 A 
ATOM     18  N   UNL     1       4.897   2.932  19.703  0.00  0.00    +0.000 N 
ATOM     19  H   UNL     1       3.274   1.165  21.843  0.00  0.00    +0.000 HD
ATOM     20  H   UNL     1       5.680   3.136  19.105  0.00  0.00    +0.000 HD
ENDBRANCH   1  15
BRANCH   5  21
ATOM     21  C   UNL     1      -0.159  11.577  19.131  0.00  0.00    +0.000 A 
ATOM     22  C   UNL     1      -0.147  12.566  20.131  0.00  0.00    +0.000 A 
ATOM     23  C   UNL     1      -1.318  13.174  20.563  0.00  0.00    +0.000 A 
ATOM     24  C   UNL     1      -2.531  12.812  19.994  0.00  0.00    +0.000 A 
ATOM     25  C   UNL     1      -2.589  11.848  18.980  0.00  0.00    +0.000 A 
ATOM     26  C   UNL     1      -3.828  11.520  18.405  0.00  0.00    +0.000 A 
ATOM     27  C   UNL     1      -3.917  10.582  17.380  0.00  0.00    +0.000 A 
ATOM     28  C   UNL     1      -2.765   9.962  16.913  0.00  0.00    +0.000 A 
ATOM     29  C   UNL     1      -1.524  10.275  17.477  0.00  0.00    +0.000 A 
ATOM     30  C   UNL     1      -1.401  11.215  18.529  0.00  0.00    +0.000 A 
ENDBRANCH   5  21
TORSDOF 2
ENDMDL
MODEL 6
REMARK VINA RESULT:      -8.1      2.189      3.434
REMARK  Name = 
REMARK  2 active torsions:
REMARK  status: ('A' for Active; 'I' for Inactive)
REMARK    1  A    between atoms: C_7  and  C_8
REMARK    2  A    between atoms: N_12  and  C_13
REMARK                            x       y       z     vdW  Elec       q    Type
REMARK                         _______ _______ _______ _____ _____    ______ ____
ROOT
ATOM      1  C   UNL     1       0.060  10.405  20.117  0.00  0.00    +0.000 C 
ATOM      2  N   UNL     1      -0.287  10.388  21.367  0.00  0.00    +0.000 NA
ATOM      3  N   UNL     1      -1.226  11.287  21.851  0.00  0.00    +0.000 NA
ATOM      4  C   UNL     1      -1.428  12.464  21.337  0.00  0.00    +0.000 C 
ATOM      5  N   UNL     1      -2.301  13.398  21.841  0.00  0.00    +0.000 N 
ATOM      6  S   UNL     1      -0.599  13.030  19.902  0.00  0.00    +0.000 S 
ATOM      7  C   UNL     1      -0.440  11.416  19.119  0.00  0.00    +0.000 C 
ATOM      8  H   UNL     1      -2.347  14.276  21.339  0.00  0.00    +0.000 HD
ENDROOT
BRANCH   1  15
ATOM      9  O   UNL     1       3.866   4.322  19.640  0.00  0.00    +0.000 OA
ATOM     10  C   UNL     1       3.344   5.413  19.505  0.00  0.00    +0.000 A 
ATOM     11  N   UNL     1       3.333   6.203  18.346  0.00  0.00    +0.000 N 
ATOM     12  C   UNL     1       2.603   7.357  18.597  0.00  0.00    +0.000 A 
ATOM     13  C   UNL     1       2.301   8.408  17.767  0.00  0.00    +0.000 A 
ATOM     14  C   UNL     1       1.484   9.412  18.301  0.00  0.00    +0.000 A 
ATOM     15  C   UNL     1       0.991   9.337  19.633  0.00  0.00    +0.000 A 
ATOM     16  C   UNL     1       1.365   8.277  20.472  0.00  0.00    +0.000 A 
ATOM     17  C   UNL     1       2.156   7.301  19.916  0.00  0.00    +0.000 A 
ATOM     18  N   UNL     1       2.622   6.118  20.478  0.00  0.00    +0.000 N 
ATOM     19  H   UNL     1       3.767   5.930  17.480  0.00  0.00    +0.000 HD
ATOM     20  H   UNL     1       2.459   5.771  21.409  0.00  0.00    +0.000 HD
ENDBRANCH   1  15
BRANCH   5  21
ATOM     21  C   UNL     1      -3.478  13.106  22.576  0.00  0.00    +0.000 A 
ATOM     22  C   UNL     1      -3.416  12.932  23.971  0.00  0.00    +0.000 A 
ATOM     23  C   UNL     1      -4.550  12.634  24.715  0.00  0.00    +0.000 A 
ATOM     24  C   UNL     1      -5.778  12.514  24.079  0.00  0.00    +0.000 A 
ATOM     25  C   UNL     1      -5.891  12.700  22.695  0.00  0.00    +0.000 A 
ATOM     26  C   UNL     1      -7.150  12.597  22.084  0.00  0.00    +0.000 A 
ATOM     27  C   UNL     1      -7.301  12.799  20.714  0.00  0.00    +0.000 A 
ATOM     28  C   UNL     1      -6.191  13.111  19.939  0.00  0.00    +0.000 A 
ATOM     29  C   UNL     1      -4.929  13.214  20.533  0.00  0.00    +0.000 A 
ATOM     30  C   UNL     1      -4.741  13.003  21.921  0.00  0.00    +0.000 A 
ENDBRANCH   5  21
TORSDOF 2
ENDMDL
MODEL 7
REMARK VINA RESULT:      -8.1      1.747      3.330
REMARK  Name = 
REMARK  2 active torsions:
REMARK  status: ('A' for Active; 'I' for Inactive)
REMARK    1  A    between atoms: C_7  and  C_8
REMARK    2  A    between atoms: N_12  and  C_13
REMARK                            x       y       z     vdW  Elec       q    Type
REMARK                         _______ _______ _______ _____ _____    ______ ____
ROOT
ATOM      1  C   UNL     1       0.874   9.770  19.657  0.00  0.00    +0.000 C 
ATOM      2  N   UNL     1      -0.110   9.550  20.473  0.00  0.00    +0.000 NA
ATOM      3  N   UNL     1      -1.015  10.556  20.775  0.00  0.00    +0.000 NA
ATOM      4  C   UNL     1      -0.721  11.823  20.746  0.00  0.00    +0.000 C 
ATOM      5  N   UNL     1      -1.579  12.833  21.108  0.00  0.00    +0.000 N 
ATOM      6  S   UNL     1       0.840  12.425  20.228  0.00  0.00    +0.000 S 
ATOM      7  C   UNL     1       1.171  11.112  19.041  0.00  0.00    +0.000 C 
ATOM      8  H   UNL     1      -1.209  13.773  21.042  0.00  0.00    +0.000 HD
ENDROOT
BRANCH   1  15
ATOM      9  O   UNL     1       4.105   3.346  19.619  0.00  0.00    +0.000 OA
ATOM     10  C   UNL     1       3.711   4.481  19.426  0.00  0.00    +0.000 A 
ATOM     11  N   UNL     1       3.915   5.259  18.277  0.00  0.00    +0.000 N 
ATOM     12  C   UNL     1       3.274   6.480  18.442  0.00  0.00    +0.000 A 
ATOM     13  C   UNL     1       3.177   7.548  17.585  0.00  0.00    +0.000 A 
ATOM     14  C   UNL     1       2.402   8.630  18.021  0.00  0.00    +0.000 A 
ATOM     15  C   UNL     1       1.749   8.614  19.284  0.00  0.00    +0.000 A 
ATOM     16  C   UNL     1       1.916   7.530  20.159  0.00  0.00    +0.000 A 
ATOM     17  C   UNL     1       2.670   6.478  19.698  0.00  0.00    +0.000 A 
ATOM     18  N   UNL     1       2.950   5.261  20.308  0.00  0.00    +0.000 N 
ATOM     19  H   UNL     1       4.420   4.938  17.467  0.00  0.00    +0.000 HD
ATOM     20  H   UNL     1       2.644   4.939  21.212  0.00  0.00    +0.000 HD
ENDBRANCH   1  15
BRANCH   5  21
ATOM     21  C   UNL     1      -2.993  12.778  21.021  0.00  0.00    +0.000 A 
ATOM     22  C   UNL     1      -3.623  12.742  19.763  0.00  0.00    +0.000 A 
ATOM     23  C   UNL     1      -5.006  12.701  19.646  0.00  0.00    +0.000 A 
ATOM     24  C   UNL     1      -5.793  12.683  20.789  0.00  0.00    +0.000 A 
ATOM     25  C   UNL     1      -5.209  12.696  22.063  0.00  0.00    +0.000 A 
ATOM     26  C   UNL     1      -6.029  12.651  23.201  0.00  0.00    +0.000 A 
ATOM     27  C   UNL     1      -5.480  12.639  24.481  0.00  0.00    +0.000 A 
ATOM     28  C   UNL     1      -4.100  12.667  24.637  0.00  0.00    +0.000 A 
ATOM     29  C   UNL     1      -3.269  12.715  23.513  0.00  0.00    +0.000 A 
ATOM     30  C   UNL     1      -3.797  12.740  22.199  0.00  0.00    +0.000 A 
ENDBRANCH   5  21
TORSDOF 2
ENDMDL
MODEL 8
REMARK VINA RESULT:      -8.0      0.958      2.726
REMARK  Name = 
REMARK  2 active torsions:
REMARK  status: ('A' for Active; 'I' for Inactive)
REMARK    1  A    between atoms: C_7  and  C_8
REMARK    2  A    between atoms: N_12  and  C_13
REMARK                            x       y       z     vdW  Elec       q    Type
REMARK                         _______ _______ _______ _____ _____    ______ ____
ROOT
ATOM      1  C   UNL     1       1.689   8.916  18.945  0.00  0.00    +0.000 C 
ATOM      2  N   UNL     1       0.896   9.027  19.965  0.00  0.00    +0.000 NA
ATOM      3  N   UNL     1       0.052  10.121  20.088  0.00  0.00    +0.000 NA
ATOM      4  C   UNL     1       0.310  11.291  19.580  0.00  0.00    +0.000 C 
ATOM      5  N   UNL     1      -0.476  12.405  19.748  0.00  0.00    +0.000 N 
ATOM      6  S   UNL     1       1.721  11.608  18.594  0.00  0.00    +0.000 S 
ATOM      7  C   UNL     1       1.830   9.963  17.872  0.00  0.00    +0.000 C 
ATOM      8  H   UNL     1      -0.144  13.251  19.300  0.00  0.00    +0.000 HD
ENDROOT
BRANCH   1  15
ATOM      9  O   UNL     1       4.137   2.215  19.849  0.00  0.00    +0.000 OA
ATOM     10  C   UNL     1       3.919   3.370  19.532  0.00  0.00    +0.000 A 
ATOM     11  N   UNL     1       4.442   4.053  18.425  0.00  0.00    +0.000 N 
ATOM     12  C   UNL     1       3.918   5.339  18.402  0.00  0.00    +0.000 A 
ATOM     13  C   UNL     1       4.119   6.357  17.503  0.00  0.00    +0.000 A 
ATOM     14  C   UNL     1       3.393   7.535  17.721  0.00  0.00    +0.000 A 
ATOM     15  C   UNL     1       2.491   7.660  18.814  0.00  0.00    +0.000 A 
ATOM     16  C   UNL     1       2.353   6.619  19.745  0.00  0.00    +0.000 A 
ATOM     17  C   UNL     1       3.067   5.472  19.498  0.00  0.00    +0.000 A 
ATOM     18  N   UNL     1       3.078   4.273  20.199  0.00  0.00    +0.000 N 
ATOM     19  H   UNL     1       5.068   3.635  17.756  0.00  0.00    +0.000 HD
ATOM     20  H   UNL     1       2.557   4.037  21.028  0.00  0.00    +0.000 HD
ENDBRANCH   1  15
BRANCH   5  21
ATOM     21  C   UNL     1      -1.877  12.396  19.965  0.00  0.00    +0.000 A 
ATOM     22  C   UNL     1      -2.753  12.084  18.909  0.00  0.00    +0.000 A 
ATOM     23  C   UNL     1      -4.130  12.078  19.089  0.00  0.00    +0.000 A 
ATOM     24  C   UNL     1      -4.663  12.376  20.335  0.00  0.00    +0.000 A 
ATOM     25  C   UNL     1      -3.828  12.672  21.421  0.00  0.00    +0.000 A 
ATOM     26  C   UNL     1      -4.394  12.944  22.676  0.00  0.00    +0.000 A 
ATOM     27  C   UNL     1      -3.591  13.219  23.780  0.00  0.00    +0.000 A 
ATOM     28  C   UNL     1      -2.209  13.220  23.642  0.00  0.00    +0.000 A 
ATOM     29  C   UNL     1      -1.629  12.955  22.397  0.00  0.00    +0.000 A 
ATOM     30  C   UNL     1      -2.418  12.683  21.253  0.00  0.00    +0.000 A 
ENDBRANCH   5  21
TORSDOF 2
ENDMDL
MODEL 9
REMARK VINA RESULT:      -8.0      1.815      2.657
REMARK  Name = 
REMARK  2 active torsions:
REMARK  status: ('A' for Active; 'I' for Inactive)
REMARK    1  A    between atoms: C_7  and  C_8
REMARK    2  A    between atoms: N_12  and  C_13
REMARK                            x       y       z     vdW  Elec       q    Type
REMARK                         _______ _______ _______ _____ _____    ______ ____
ROOT
ATOM      1  C   UNL     1       0.689   9.827  19.939  0.00  0.00    +0.000 C 
ATOM      2  N   UNL     1       0.375  10.002  21.185  0.00  0.00    +0.000 NA
ATOM      3  N   UNL     1      -0.462  11.041  21.565  0.00  0.00    +0.000 NA
ATOM      4  C   UNL     1      -0.566  12.158  20.906  0.00  0.00    +0.000 C 
ATOM      5  N   UNL     1      -1.334  13.228  21.300  0.00  0.00    +0.000 N 
ATOM      6  S   UNL     1       0.273  12.456  19.398  0.00  0.00    +0.000 S 
ATOM      7  C   UNL     1       0.259  10.749  18.827  0.00  0.00    +0.000 C 
ATOM      8  H   UNL     1      -1.311  14.036  20.690  0.00  0.00    +0.000 HD
ENDROOT
BRANCH   1  15
ATOM      9  O   UNL     1       3.645   3.273  20.035  0.00  0.00    +0.000 OA
ATOM     10  C   UNL     1       3.293   4.417  19.813  0.00  0.00    +0.000 A 
ATOM     11  N   UNL     1       3.493   5.145  18.631  0.00  0.00    +0.000 N 
ATOM     12  C   UNL     1       2.909   6.397  18.772  0.00  0.00    +0.000 A 
ATOM     13  C   UNL     1       2.829   7.438  17.880  0.00  0.00    +0.000 A 
ATOM     14  C   UNL     1       2.115   8.567  18.300  0.00  0.00    +0.000 A 
ATOM     15  C   UNL     1       1.502   8.623  19.582  0.00  0.00    +0.000 A 
ATOM     16  C   UNL     1       1.651   7.563  20.489  0.00  0.00    +0.000 A 
ATOM     17  C   UNL     1       2.345   6.464  20.045  0.00  0.00    +0.000 A 
ATOM     18  N   UNL     1       2.593   5.258  20.689  0.00  0.00    +0.000 N 
ATOM     19  H   UNL     1       3.958   4.774  17.819  0.00  0.00    +0.000 HD
ATOM     20  H   UNL     1       2.303   4.981  21.612  0.00  0.00    +0.000 HD
ENDBRANCH   1  15
BRANCH   5  21
ATOM     21  C   UNL     1      -2.513  13.146  22.083  0.00  0.00    +0.000 A 
ATOM     22  C   UNL     1      -2.453  13.351  23.474  0.00  0.00    +0.000 A 
ATOM     23  C   UNL     1      -3.588  13.265  24.268  0.00  0.00    +0.000 A 
ATOM     24  C   UNL     1      -4.816  12.983  23.686  0.00  0.00    +0.000 A 
ATOM     25  C   UNL     1      -4.927  12.793  22.302  0.00  0.00    +0.000 A 
ATOM     26  C   UNL     1      -6.186  12.533  21.737  0.00  0.00    +0.000 A 
ATOM     27  C   UNL     1      -6.334  12.363  20.363  0.00  0.00    +0.000 A 
ATOM     28  C   UNL     1      -5.223  12.454  19.535  0.00  0.00    +0.000 A 
ATOM     29  C   UNL     1      -3.961  12.708  20.083  0.00  0.00    +0.000 A 
ATOM     30  C   UNL     1      -3.775  12.875  21.477  0.00  0.00    +0.000 A 
ENDBRANCH   5  21
TORSDOF 2
ENDMDL
