MODEL 1
REMARK VINA RESULT:      -6.3      0.000      0.000
REMARK  Name = 
REMARK  14 active torsions:
REMARK  status: ('A' for Active; 'I' for Inactive)
REMARK    1  A    between atoms: C_1  and  O_2
REMARK    2  A    between atoms: O_2  and  C_3
REMARK    3  A    between atoms: C_6  and  O_7
REMARK    4  A    between atoms: O_7  and  S_8
REMARK    5  A    between atoms: S_8  and  C_9
REMARK    6  A    between atoms: C_13  and  C_14
REMARK    7  A    between atoms: C_19  and  O_20
REMARK    8  A    between atoms: O_20  and  C_21
REMARK    9  A    between atoms: C_23  and  C_24
REMARK   10  A    between atoms: C_24  and  O_25
REMARK   11  A    between atoms: C_26  and  O_27
REMARK   12  A    between atoms: C_28  and  O_29
REMARK   13  A    between atoms: C_30  and  N_31
REMARK   14  A    between atoms: C_32  and  C_33
REMARK                            x       y       z     vdW  Elec       q    Type
REMARK                         _______ _______ _______ _____ _____    ______ ____
ROOT
ATOM      1  C   UNL     1      10.136  12.970  20.235  0.00  0.00    +0.000 A 
ATOM      2  C   UNL     1      11.426  12.376  20.299  0.00  0.00    +0.000 A 
ATOM      3  C   UNL     1      12.046  11.764  19.208  0.00  0.00    +0.000 A 
ATOM      4  C   UNL     1      11.371  11.668  18.009  0.00  0.00    +0.000 A 
ATOM      5  C   UNL     1      10.088  12.197  17.903  0.00  0.00    +0.000 A 
ATOM      6  C   UNL     1       9.464  12.875  18.976  0.00  0.00    +0.000 A 
ENDROOT
BRANCH   1  12
ATOM      7  C   UNL     1       9.908  14.870  21.997  0.00  0.00    +0.000 A 
ATOM      8  C   UNL     1       9.530  15.275  23.289  0.00  0.00    +0.000 A 
ATOM      9  C   UNL     1       8.774  14.442  24.100  0.00  0.00    +0.000 A 
ATOM     10  C   UNL     1       8.386  13.191  23.635  0.00  0.00    +0.000 A 
ATOM     11  C   UNL     1       8.801  12.751  22.373  0.00  0.00    +0.000 A 
ATOM     12  C   UNL     1       9.580  13.560  21.515  0.00  0.00    +0.000 A 
BRANCH   7  14
ATOM     13  C   UNL     1      11.497  16.660  21.774  0.00  0.00    +0.000 C 
ATOM     14  O   UNL     1      10.626  15.708  21.170  0.00  0.00    +0.000 OA
ENDBRANCH   7  14
BRANCH  10  15
ATOM     15  O   UNL     1       7.677  12.448  24.542  0.00  0.00    +0.000 OA
BRANCH  15  16
ATOM     16  S   UNL     1       6.106  12.702  24.888  0.00  0.00    +0.000 S 
ATOM     17  C   UNL     1       5.684  11.057  25.455  0.00  0.00    +0.000 C 
ATOM     18  O   UNL     1       5.998  13.679  25.949  0.00  0.00    +0.000 OA
ATOM     19  O   UNL     1       5.423  12.917  23.623  0.00  0.00    +0.000 OA
ENDBRANCH  15  16
ENDBRANCH  10  15
ENDBRANCH   1  12
BRANCH   6  20
ATOM     20  O   UNL     1       8.200  13.424  18.818  0.00  0.00    +0.000 OA
BRANCH  20  21
ATOM     21  C   UNL     1       8.103  14.706  18.126  0.00  0.00    +0.000 C 
ATOM     22  O   UNL     1       9.328  15.430  18.326  0.00  0.00    +0.000 OA
ATOM     23  C   UNL     1       9.329  16.787  17.881  0.00  0.00    +0.000 C 
ATOM     24  C   UNL     1       8.297  17.575  18.687  0.00  0.00    +0.000 C 
ATOM     25  C   UNL     1       6.920  17.001  18.367  0.00  0.00    +0.000 C 
ATOM     26  C   UNL     1       6.843  15.480  18.639  0.00  0.00    +0.000 C 
BRANCH  26  27
ATOM     27  N   UNL     1       5.575  14.972  18.049  0.00  0.00    +0.000 N 
ATOM     28  C   UNL     1       4.463  14.810  18.832  0.00  0.00    +0.000 C 
ATOM     29  C   UNL     1       3.210  14.391  18.113  0.00  0.00    +0.000 C 
ATOM     30  O   UNL     1       4.462  15.017  20.048  0.00  0.00    +0.000 OA
ATOM     31  H   UNL     1       5.395  15.173  17.069  0.00  0.00    +0.000 HD
ENDBRANCH  26  27
BRANCH  24  32
ATOM     32  O   UNL     1       8.493  17.449  20.103  0.00  0.00    +0.000 OA
ATOM     33  H   UNL     1       7.638  17.562  20.553  0.00  0.00    +0.000 HD
ENDBRANCH  24  32
BRANCH  25  34
ATOM     34  O   UNL     1       5.934  17.701  19.141  0.00  0.00    +0.000 OA
ATOM     35  H   UNL     1       6.345  18.558  19.377  0.00  0.00    +0.000 HD
ENDBRANCH  25  34
BRANCH  23  36
ATOM     36  C   UNL     1      10.747  17.325  18.085  0.00  0.00    +0.000 C 
BRANCH  36  37
ATOM     37  O   UNL     1      11.219  17.918  16.875  0.00  0.00    +0.000 OA
ATOM     38  H   UNL     1      10.468  18.436  16.526  0.00  0.00    +0.000 HD
ENDBRANCH  36  37
ENDBRANCH  23  36
ENDBRANCH  20  21
ENDBRANCH   6  20
TORSDOF 11
ENDMDL
MODEL 2
REMARK VINA RESULT:      -6.1      8.942     11.815
REMARK  Name = 
REMARK  14 active torsions:
REMARK  status: ('A' for Active; 'I' for Inactive)
REMARK    1  A    between atoms: C_1  and  O_2
REMARK    2  A    between atoms: O_2  and  C_3
REMARK    3  A    between atoms: C_6  and  O_7
REMARK    4  A    between atoms: O_7  and  S_8
REMARK    5  A    between atoms: S_8  and  C_9
REMARK    6  A    between atoms: C_13  and  C_14
REMARK    7  A    between atoms: C_19  and  O_20
REMARK    8  A    between atoms: O_20  and  C_21
REMARK    9  A    between atoms: C_23  and  C_24
REMARK   10  A    between atoms: C_24  and  O_25
REMARK   11  A    between atoms: C_26  and  O_27
REMARK   12  A    between atoms: C_28  and  O_29
REMARK   13  A    between atoms: C_30  and  N_31
REMARK   14  A    between atoms: C_32  and  C_33
REMARK                            x       y       z     vdW  Elec       q    Type
REMARK                         _______ _______ _______ _____ _____    ______ ____
ROOT
ATOM      1  C   UNL     1      -1.256  11.363  18.326  0.00  0.00    +0.000 A 
ATOM      2  C   UNL     1      -0.704  10.060  18.199  0.00  0.00    +0.000 A 
ATOM      3  C   UNL     1       0.652   9.779  18.371  0.00  0.00    +0.000 A 
ATOM      4  C   UNL     1       1.533  10.811  18.622  0.00  0.00    +0.000 A 
ATOM      5  C   UNL     1       1.051  12.113  18.715  0.00  0.00    +0.000 A 
ATOM      6  C   UNL     1      -0.327  12.414  18.605  0.00  0.00    +0.000 A 
ENDROOT
BRANCH   1  12
ATOM      7  C   UNL     1      -3.359  11.297  16.795  0.00  0.00    +0.000 A 
ATOM      8  C   UNL     1      -4.700  11.660  16.574  0.00  0.00    +0.000 A 
ATOM      9  C   UNL     1      -5.474  12.174  17.604  0.00  0.00    +0.000 A 
ATOM     10  C   UNL     1      -4.921  12.336  18.870  0.00  0.00    +0.000 A 
ATOM     11  C   UNL     1      -3.574  12.033  19.091  0.00  0.00    +0.000 A 
ATOM     12  C   UNL     1      -2.743  11.515  18.071  0.00  0.00    +0.000 A 
BRANCH   7  14
ATOM     13  C   UNL     1      -3.271  10.170  14.675  0.00  0.00    +0.000 C 
ATOM     14  O   UNL     1      -2.595  10.749  15.788  0.00  0.00    +0.000 OA
ENDBRANCH   7  14
BRANCH  10  15
ATOM     15  O   UNL     1      -5.774  12.888  19.789  0.00  0.00    +0.000 OA
BRANCH  15  16
ATOM     16  S   UNL     1      -6.349  12.085  21.085  0.00  0.00    +0.000 S 
ATOM     17  C   UNL     1      -7.732  13.153  21.473  0.00  0.00    +0.000 C 
ATOM     18  O   UNL     1      -6.786  10.767  20.680  0.00  0.00    +0.000 OA
ATOM     19  O   UNL     1      -5.368  12.238  22.147  0.00  0.00    +0.000 OA
ENDBRANCH  15  16
ENDBRANCH  10  15
ENDBRANCH   1  12
BRANCH   6  20
ATOM     20  O   UNL     1      -0.773  13.720  18.745  0.00  0.00    +0.000 OA
BRANCH  20  21
ATOM     21  C   UNL     1      -0.273  14.485  19.883  0.00  0.00    +0.000 C 
ATOM     22  O   UNL     1      -0.839  13.943  21.086  0.00  0.00    +0.000 OA
ATOM     23  C   UNL     1      -0.610  14.697  22.277  0.00  0.00    +0.000 C 
ATOM     24  C   UNL     1      -1.278  16.064  22.137  0.00  0.00    +0.000 C 
ATOM     25  C   UNL     1      -0.585  16.806  20.998  0.00  0.00    +0.000 C 
ATOM     26  C   UNL     1      -0.606  16.000  19.677  0.00  0.00    +0.000 C 
BRANCH  26  27
ATOM     27  N   UNL     1       0.315  16.669  18.718  0.00  0.00    +0.000 N 
ATOM     28  C   UNL     1      -0.160  17.612  17.845  0.00  0.00    +0.000 C 
ATOM     29  C   UNL     1       0.874  18.296  16.993  0.00  0.00    +0.000 C 
ATOM     30  O   UNL     1      -1.352  17.915  17.767  0.00  0.00    +0.000 OA
ATOM     31  H   UNL     1       1.288  16.775  18.991  0.00  0.00    +0.000 HD
ENDBRANCH  26  27
BRANCH  24  32
ATOM     32  O   UNL     1      -2.669  15.964  21.795  0.00  0.00    +0.000 OA
ATOM     33  H   UNL     1      -2.838  15.088  21.409  0.00  0.00    +0.000 HD
ENDBRANCH  24  32
BRANCH  25  34
ATOM     34  O   UNL     1      -1.219  18.081  20.821  0.00  0.00    +0.000 OA
ATOM     35  H   UNL     1      -0.599  18.738  21.198  0.00  0.00    +0.000 HD
ENDBRANCH  25  34
BRANCH  23  36
ATOM     36  C   UNL     1      -1.195  13.891  23.439  0.00  0.00    +0.000 C 
BRANCH  36  37
ATOM     37  O   UNL     1      -1.930  14.753  24.308  0.00  0.00    +0.000 OA
ATOM     38  H   UNL     1      -1.259  15.202  24.859  0.00  0.00    +0.000 HD
ENDBRANCH  36  37
ENDBRANCH  23  36
ENDBRANCH  20  21
ENDBRANCH   6  20
TORSDOF 11
ENDMDL
MODEL 3
REMARK VINA RESULT:      -6.1      9.577     13.134
REMARK  Name = 
REMARK  14 active torsions:
REMARK  status: ('A' for Active; 'I' for Inactive)
REMARK    1  A    between atoms: C_1  and  O_2
REMARK    2  A    between atoms: O_2  and  C_3
REMARK    3  A    between atoms: C_6  and  O_7
REMARK    4  A    between atoms: O_7  and  S_8
REMARK    5  A    between atoms: S_8  and  C_9
REMARK    6  A    between atoms: C_13  and  C_14
REMARK    7  A    between atoms: C_19  and  O_20
REMARK    8  A    between atoms: O_20  and  C_21
REMARK    9  A    between atoms: C_23  and  C_24
REMARK   10  A    between atoms: C_24  and  O_25
REMARK   11  A    between atoms: C_26  and  O_27
REMARK   12  A    between atoms: C_28  and  O_29
REMARK   13  A    between atoms: C_30  and  N_31
REMARK   14  A    between atoms: C_32  and  C_33
REMARK                            x       y       z     vdW  Elec       q    Type
REMARK                         _______ _______ _______ _____ _____    ______ ____
ROOT
ATOM      1  C   UNL     1      -1.030  13.054  21.806  0.00  0.00    +0.000 A 
ATOM      2  C   UNL     1       0.062  13.953  21.940  0.00  0.00    +0.000 A 
ATOM      3  C   UNL     1       0.067  15.030  22.827  0.00  0.00    +0.000 A 
ATOM      4  C   UNL     1      -1.056  15.292  23.585  0.00  0.00    +0.000 A 
ATOM      5  C   UNL     1      -2.169  14.466  23.462  0.00  0.00    +0.000 A 
ATOM      6  C   UNL     1      -2.176  13.333  22.615  0.00  0.00    +0.000 A 
ENDROOT
BRANCH   1  12
ATOM      7  C   UNL     1      -0.039  10.819  20.916  0.00  0.00    +0.000 A 
ATOM      8  C   UNL     1       0.195   9.951  19.835  0.00  0.00    +0.000 A 
ATOM      9  C   UNL     1      -0.456  10.136  18.624  0.00  0.00    +0.000 A 
ATOM     10  C   UNL     1      -1.348  11.192  18.472  0.00  0.00    +0.000 A 
ATOM     11  C   UNL     1      -1.548  12.097  19.521  0.00  0.00    +0.000 A 
ATOM     12  C   UNL     1      -0.901  11.955  20.770  0.00  0.00    +0.000 A 
BRANCH   7  14
ATOM     13  C   UNL     1       1.010   9.300  22.455  0.00  0.00    +0.000 C 
ATOM     14  O   UNL     1       0.573  10.618  22.135  0.00  0.00    +0.000 OA
ENDBRANCH   7  14
BRANCH  10  15
ATOM     15  O   UNL     1      -1.895  11.292  17.221  0.00  0.00    +0.000 OA
BRANCH  15  16
ATOM     16  S   UNL     1      -3.371  10.725  16.832  0.00  0.00    +0.000 S 
ATOM     17  C   UNL     1      -3.111  10.472  15.079  0.00  0.00    +0.000 C 
ATOM     18  O   UNL     1      -3.607   9.478  17.525  0.00  0.00    +0.000 OA
ATOM     19  O   UNL     1      -4.302  11.832  16.980  0.00  0.00    +0.000 OA
ENDBRANCH  15  16
ENDBRANCH  10  15
ENDBRANCH   1  12
BRANCH   6  20
ATOM     20  O   UNL     1      -3.291  12.511  22.551  0.00  0.00    +0.000 OA
BRANCH  20  21
ATOM     21  C   UNL     1      -4.569  13.133  22.218  0.00  0.00    +0.000 C 
ATOM     22  O   UNL     1      -5.629  12.303  22.718  0.00  0.00    +0.000 OA
ATOM     23  C   UNL     1      -6.949  12.662  22.307  0.00  0.00    +0.000 C 
ATOM     24  C   UNL     1      -7.053  12.522  20.789  0.00  0.00    +0.000 C 
ATOM     25  C   UNL     1      -6.099  13.534  20.162  0.00  0.00    +0.000 C 
ATOM     26  C   UNL     1      -4.648  13.363  20.672  0.00  0.00    +0.000 C 
BRANCH  26  27
ATOM     27  N   UNL     1      -3.863  14.545  20.223  0.00  0.00    +0.000 N 
ATOM     28  C   UNL     1      -4.118  15.785  20.746  0.00  0.00    +0.000 C 
ATOM     29  C   UNL     1      -3.198  16.887  20.299  0.00  0.00    +0.000 C 
ATOM     30  O   UNL     1      -5.023  15.999  21.556  0.00  0.00    +0.000 OA
ATOM     31  H   UNL     1      -2.908  14.389  19.912  0.00  0.00    +0.000 HD
ENDBRANCH  26  27
BRANCH  24  32
ATOM     32  O   UNL     1      -6.658  11.221  20.329  0.00  0.00    +0.000 OA
ATOM     33  H   UNL     1      -6.639  10.610  21.084  0.00  0.00    +0.000 HD
ENDBRANCH  24  32
BRANCH  25  34
ATOM     34  O   UNL     1      -6.151  13.398  18.734  0.00  0.00    +0.000 OA
ATOM     35  H   UNL     1      -6.882  12.772  18.556  0.00  0.00    +0.000 HD
ENDBRANCH  25  34
BRANCH  23  36
ATOM     36  C   UNL     1      -7.916  11.727  23.036  0.00  0.00    +0.000 C 
BRANCH  36  37
ATOM     37  O   UNL     1      -7.249  11.094  24.129  0.00  0.00    +0.000 OA
ATOM     38  H   UNL     1      -7.268  11.744  24.858  0.00  0.00    +0.000 HD
ENDBRANCH  36  37
ENDBRANCH  23  36
ENDBRANCH  20  21
ENDBRANCH   6  20
TORSDOF 11
ENDMDL
MODEL 4
REMARK VINA RESULT:      -6.0      7.059     11.095
REMARK  Name = 
REMARK  14 active torsions:
REMARK  status: ('A' for Active; 'I' for Inactive)
REMARK    1  A    between atoms: C_1  and  O_2
REMARK    2  A    between atoms: O_2  and  C_3
REMARK    3  A    between atoms: C_6  and  O_7
REMARK    4  A    between atoms: O_7  and  S_8
REMARK    5  A    between atoms: S_8  and  C_9
REMARK    6  A    between atoms: C_13  and  C_14
REMARK    7  A    between atoms: C_19  and  O_20
REMARK    8  A    between atoms: O_20  and  C_21
REMARK    9  A    between atoms: C_23  and  C_24
REMARK   10  A    between atoms: C_24  and  O_25
REMARK   11  A    between atoms: C_26  and  O_27
REMARK   12  A    between atoms: C_28  and  O_29
REMARK   13  A    between atoms: C_30  and  N_31
REMARK   14  A    between atoms: C_32  and  C_33
REMARK                            x       y       z     vdW  Elec       q    Type
REMARK                         _______ _______ _______ _____ _____    ______ ____
ROOT
ATOM      1  C   UNL     1      -1.367  11.301  18.802  0.00  0.00    +0.000 A 
ATOM      2  C   UNL     1      -1.006  10.022  19.305  0.00  0.00    +0.000 A 
ATOM      3  C   UNL     1       0.297   9.679  19.667  0.00  0.00    +0.000 A 
ATOM      4  C   UNL     1       1.316  10.591  19.487  0.00  0.00    +0.000 A 
ATOM      5  C   UNL     1       1.024  11.845  18.960  0.00  0.00    +0.000 A 
ATOM      6  C   UNL     1      -0.298  12.238  18.642  0.00  0.00    +0.000 A 
ENDROOT
BRANCH   1  12
ATOM      7  C   UNL     1      -3.331  11.283  17.096  0.00  0.00    +0.000 A 
ATOM      8  C   UNL     1      -4.629  11.697  16.749  0.00  0.00    +0.000 A 
ATOM      9  C   UNL     1      -5.465  12.274  17.693  0.00  0.00    +0.000 A 
ATOM     10  C   UNL     1      -5.017  12.449  18.998  0.00  0.00    +0.000 A 
ATOM     11  C   UNL     1      -3.709  12.093  19.344  0.00  0.00    +0.000 A 
ATOM     12  C   UNL     1      -2.817  11.511  18.415  0.00  0.00    +0.000 A 
BRANCH   7  14
ATOM     13  C   UNL     1      -3.091  10.215  14.956  0.00  0.00    +0.000 C 
ATOM     14  O   UNL     1      -2.508  10.673  16.173  0.00  0.00    +0.000 OA
ENDBRANCH   7  14
BRANCH  10  15
ATOM     15  O   UNL     1      -5.919  13.064  19.825  0.00  0.00    +0.000 OA
BRANCH  15  16
ATOM     16  S   UNL     1      -6.616  12.335  21.104  0.00  0.00    +0.000 S 
ATOM     17  C   UNL     1      -7.130  10.817  20.305  0.00  0.00    +0.000 C 
ATOM     18  O   UNL     1      -5.619  12.093  22.123  0.00  0.00    +0.000 OA
ATOM     19  O   UNL     1      -7.817  13.090  21.420  0.00  0.00    +0.000 OA
ENDBRANCH  15  16
ENDBRANCH  10  15
ENDBRANCH   1  12
BRANCH   6  20
ATOM     20  O   UNL     1      -0.554  13.512  18.157  0.00  0.00    +0.000 OA
BRANCH  20  21
ATOM     21  C   UNL     1       0.026  14.638  18.882  0.00  0.00    +0.000 C 
ATOM     22  O   UNL     1       1.190  15.091  18.172  0.00  0.00    +0.000 OA
ATOM     23  C   UNL     1       1.993  16.061  18.846  0.00  0.00    +0.000 C 
ATOM     24  C   UNL     1       2.556  15.440  20.124  0.00  0.00    +0.000 C 
ATOM     25  C   UNL     1       1.380  15.118  21.041  0.00  0.00    +0.000 C 
ATOM     26  C   UNL     1       0.335  14.206  20.354  0.00  0.00    +0.000 C 
BRANCH  26  27
ATOM     27  N   UNL     1      -0.880  14.174  21.212  0.00  0.00    +0.000 N 
ATOM     28  C   UNL     1      -1.049  13.177  22.136  0.00  0.00    +0.000 C 
ATOM     29  C   UNL     1      -2.260  13.299  23.019  0.00  0.00    +0.000 C 
ATOM     30  O   UNL     1      -0.254  12.244  22.270  0.00  0.00    +0.000 OA
ATOM     31  H   UNL     1      -1.325  15.060  21.438  0.00  0.00    +0.000 HD
ENDBRANCH  26  27
BRANCH  24  32
ATOM     32  O   UNL     1       3.253  14.211  19.876  0.00  0.00    +0.000 OA
ATOM     33  H   UNL     1       2.666  13.465  20.088  0.00  0.00    +0.000 HD
ENDBRANCH  24  32
BRANCH  25  34
ATOM     34  O   UNL     1       1.880  14.499  22.236  0.00  0.00    +0.000 OA
ATOM     35  H   UNL     1       1.260  13.766  22.431  0.00  0.00    +0.000 HD
ENDBRANCH  25  34
BRANCH  23  36
ATOM     36  C   UNL     1       3.100  16.480  17.877  0.00  0.00    +0.000 C 
BRANCH  36  37
ATOM     37  O   UNL     1       3.530  15.351  17.114  0.00  0.00    +0.000 OA
ATOM     38  H   UNL     1       4.506  15.389  17.119  0.00  0.00    +0.000 HD
ENDBRANCH  36  37
ENDBRANCH  23  36
ENDBRANCH  20  21
ENDBRANCH   6  20
TORSDOF 11
ENDMDL
MODEL 5
REMARK VINA RESULT:      -5.9      8.440     11.581
REMARK  Name = 
REMARK  14 active torsions:
REMARK  status: ('A' for Active; 'I' for Inactive)
REMARK    1  A    between atoms: C_1  and  O_2
REMARK    2  A    between atoms: O_2  and  C_3
REMARK    3  A    between atoms: C_6  and  O_7
REMARK    4  A    between atoms: O_7  and  S_8
REMARK    5  A    between atoms: S_8  and  C_9
REMARK    6  A    between atoms: C_13  and  C_14
REMARK    7  A    between atoms: C_19  and  O_20
REMARK    8  A    between atoms: O_20  and  C_21
REMARK    9  A    between atoms: C_23  and  C_24
REMARK   10  A    between atoms: C_24  and  O_25
REMARK   11  A    between atoms: C_26  and  O_27
REMARK   12  A    between atoms: C_28  and  O_29
REMARK   13  A    between atoms: C_30  and  N_31
REMARK   14  A    between atoms: C_32  and  C_33
REMARK                            x       y       z     vdW  Elec       q    Type
REMARK                         _______ _______ _______ _____ _____    ______ ____
ROOT
ATOM      1  C   UNL     1       0.750  12.024  19.684  0.00  0.00    +0.000 A 
ATOM      2  C   UNL     1       1.922  12.796  19.462  0.00  0.00    +0.000 A 
ATOM      3  C   UNL     1       1.902  14.164  19.189  0.00  0.00    +0.000 A 
ATOM      4  C   UNL     1       0.692  14.815  19.067  0.00  0.00    +0.000 A 
ATOM      5  C   UNL     1      -0.489  14.097  19.234  0.00  0.00    +0.000 A 
ATOM      6  C   UNL     1      -0.493  12.724  19.571  0.00  0.00    +0.000 A 
ENDROOT
BRANCH   1  12
ATOM      7  C   UNL     1       0.831   9.928  21.223  0.00  0.00    +0.000 A 
ATOM      8  C   UNL     1       1.219   8.590  21.417  0.00  0.00    +0.000 A 
ATOM      9  C   UNL     1       1.644   7.814  20.349  0.00  0.00    +0.000 A 
ATOM     10  C   UNL     1       1.691   8.361  19.071  0.00  0.00    +0.000 A 
ATOM     11  C   UNL     1       1.361   9.706  18.872  0.00  0.00    +0.000 A 
ATOM     12  C   UNL     1       0.932  10.540  19.930  0.00  0.00    +0.000 A 
BRANCH   7  14
ATOM     13  C   UNL     1      -0.787  10.244  22.972  0.00  0.00    +0.000 C 
ATOM     14  O   UNL     1       0.370  10.694  22.272  0.00  0.00    +0.000 OA
ENDBRANCH   7  14
BRANCH  10  15
ATOM     15  O   UNL     1       2.164   7.507  18.111  0.00  0.00    +0.000 OA
BRANCH  15  16
ATOM     16  S   UNL     1       2.885   6.085  18.441  0.00  0.00    +0.000 S 
ATOM     17  C   UNL     1       4.186   6.150  17.212  0.00  0.00    +0.000 C 
ATOM     18  O   UNL     1       3.417   6.115  19.786  0.00  0.00    +0.000 OA
ATOM     19  O   UNL     1       1.960   5.038  18.043  0.00  0.00    +0.000 OA
ENDBRANCH  15  16
ENDBRANCH  10  15
ENDBRANCH   1  12
BRANCH   6  20
ATOM     20  O   UNL     1      -1.690  12.053  19.770  0.00  0.00    +0.000 OA
BRANCH  20  21
ATOM     21  C   UNL     1      -2.925  12.783  19.501  0.00  0.00    +0.000 C 
ATOM     22  O   UNL     1      -3.472  13.238  20.748  0.00  0.00    +0.000 OA
ATOM     23  C   UNL     1      -4.783  13.801  20.685  0.00  0.00    +0.000 C 
ATOM     24  C   UNL     1      -5.765  12.727  20.220  0.00  0.00    +0.000 C 
ATOM     25  C   UNL     1      -5.380  12.330  18.798  0.00  0.00    +0.000 C 
ATOM     26  C   UNL     1      -3.907  11.866  18.699  0.00  0.00    +0.000 C 
BRANCH  26  27
ATOM     27  N   UNL     1      -3.555  11.766  17.256  0.00  0.00    +0.000 N 
ATOM     28  C   UNL     1      -3.135  10.574  16.727  0.00  0.00    +0.000 C 
ATOM     29  C   UNL     1      -2.905  10.562  15.241  0.00  0.00    +0.000 C 
ATOM     30  O   UNL     1      -2.976   9.557  17.405  0.00  0.00    +0.000 OA
ATOM     31  H   UNL     1      -4.028  12.390  16.608  0.00  0.00    +0.000 HD
ENDBRANCH  26  27
BRANCH  24  32
ATOM     32  O   UNL     1      -5.702  11.540  21.026  0.00  0.00    +0.000 OA
ATOM     33  H   UNL     1      -6.555  11.076  20.973  0.00  0.00    +0.000 HD
ENDBRANCH  24  32
BRANCH  25  34
ATOM     34  O   UNL     1      -6.266  11.293  18.350  0.00  0.00    +0.000 OA
ATOM     35  H   UNL     1      -5.689  10.606  17.958  0.00  0.00    +0.000 HD
ENDBRANCH  25  34
BRANCH  23  36
ATOM     36  C   UNL     1      -5.119  14.315  22.088  0.00  0.00    +0.000 C 
BRANCH  36  37
ATOM     37  O   UNL     1      -6.460  14.805  22.117  0.00  0.00    +0.000 OA
ATOM     38  H   UNL     1      -6.733  14.875  21.182  0.00  0.00    +0.000 HD
ENDBRANCH  36  37
ENDBRANCH  23  36
ENDBRANCH  20  21
ENDBRANCH   6  20
TORSDOF 11
ENDMDL
MODEL 6
REMARK VINA RESULT:      -5.9      8.325     12.415
REMARK  Name = 
REMARK  14 active torsions:
REMARK  status: ('A' for Active; 'I' for Inactive)
REMARK    1  A    between atoms: C_1  and  O_2
REMARK    2  A    between atoms: O_2  and  C_3
REMARK    3  A    between atoms: C_6  and  O_7
REMARK    4  A    between atoms: O_7  and  S_8
REMARK    5  A    between atoms: S_8  and  C_9
REMARK    6  A    between atoms: C_13  and  C_14
REMARK    7  A    between atoms: C_19  and  O_20
REMARK    8  A    between atoms: O_20  and  C_21
REMARK    9  A    between atoms: C_23  and  C_24
REMARK   10  A    between atoms: C_24  and  O_25
REMARK   11  A    between atoms: C_26  and  O_27
REMARK   12  A    between atoms: C_28  and  O_29
REMARK   13  A    between atoms: C_30  and  N_31
REMARK   14  A    between atoms: C_32  and  C_33
REMARK                            x       y       z     vdW  Elec       q    Type
REMARK                         _______ _______ _______ _____ _____    ______ ____
ROOT
ATOM      1  C   UNL     1      -1.422  13.791  21.496  0.00  0.00    +0.000 A 
ATOM      2  C   UNL     1      -0.877  13.945  22.799  0.00  0.00    +0.000 A 
ATOM      3  C   UNL     1      -1.652  13.957  23.960  0.00  0.00    +0.000 A 
ATOM      4  C   UNL     1      -3.025  13.871  23.862  0.00  0.00    +0.000 A 
ATOM      5  C   UNL     1      -3.614  13.760  22.606  0.00  0.00    +0.000 A 
ATOM      6  C   UNL     1      -2.847  13.685  21.420  0.00  0.00    +0.000 A 
ENDROOT
BRANCH   1  12
ATOM      7  C   UNL     1       0.112  12.673  19.717  0.00  0.00    +0.000 A 
ATOM      8  C   UNL     1       1.159  12.790  18.785  0.00  0.00    +0.000 A 
ATOM      9  C   UNL     1       1.619  14.037  18.389  0.00  0.00    +0.000 A 
ATOM     10  C   UNL     1       1.044  15.187  18.917  0.00  0.00    +0.000 A 
ATOM     11  C   UNL     1       0.040  15.086  19.886  0.00  0.00    +0.000 A 
ATOM     12  C   UNL     1      -0.456  13.839  20.329  0.00  0.00    +0.000 A 
BRANCH   7  14
ATOM     13  C   UNL     1       0.504  10.544  20.760  0.00  0.00    +0.000 C 
ATOM     14  O   UNL     1      -0.377  11.439  20.086  0.00  0.00    +0.000 OA
ENDBRANCH   7  14
BRANCH  10  15
ATOM     15  O   UNL     1       1.611  16.353  18.477  0.00  0.00    +0.000 OA
BRANCH  15  16
ATOM     16  S   UNL     1       0.753  17.666  18.036  0.00  0.00    +0.000 S 
ATOM     17  C   UNL     1       0.597  18.440  19.643  0.00  0.00    +0.000 C 
ATOM     18  O   UNL     1       1.537  18.471  17.127  0.00  0.00    +0.000 OA
ATOM     19  O   UNL     1      -0.567  17.198  17.648  0.00  0.00    +0.000 OA
ENDBRANCH  15  16
ENDBRANCH  10  15
ENDBRANCH   1  12
BRANCH   6  20
ATOM     20  O   UNL     1      -3.469  13.533  20.190  0.00  0.00    +0.000 OA
BRANCH  20  21
ATOM     21  C   UNL     1      -3.829  12.180  19.779  0.00  0.00    +0.000 C 
ATOM     22  O   UNL     1      -3.135  11.869  18.560  0.00  0.00    +0.000 OA
ATOM     23  C   UNL     1      -3.524  10.656  17.914  0.00  0.00    +0.000 C 
ATOM     24  C   UNL     1      -4.987  10.766  17.488  0.00  0.00    +0.000 C 
ATOM     25  C   UNL     1      -5.831  10.888  18.754  0.00  0.00    +0.000 C 
ATOM     26  C   UNL     1      -5.384  12.074  19.642  0.00  0.00    +0.000 C 
BRANCH  26  27
ATOM     27  N   UNL     1      -6.072  11.946  20.956  0.00  0.00    +0.000 N 
ATOM     28  C   UNL     1      -7.235  12.627  21.198  0.00  0.00    +0.000 C 
ATOM     29  C   UNL     1      -7.897  12.345  22.519  0.00  0.00    +0.000 C 
ATOM     30  O   UNL     1      -7.738  13.407  20.386  0.00  0.00    +0.000 OA
ATOM     31  H   UNL     1      -5.961  11.074  21.466  0.00  0.00    +0.000 HD
ENDBRANCH  26  27
BRANCH  24  32
ATOM     32  O   UNL     1      -5.242  11.933  16.692  0.00  0.00    +0.000 OA
ATOM     33  H   UNL     1      -5.923  12.472  17.129  0.00  0.00    +0.000 HD
ENDBRANCH  24  32
BRANCH  25  34
ATOM     34  O   UNL     1      -7.209  11.030  18.380  0.00  0.00    +0.000 OA
ATOM     35  H   UNL     1      -7.609  10.146  18.509  0.00  0.00    +0.000 HD
ENDBRANCH  25  34
BRANCH  23  36
ATOM     36  C   UNL     1      -2.591  10.469  16.714  0.00  0.00    +0.000 C 
BRANCH  36  37
ATOM     37  O   UNL     1      -2.268  11.738  16.147  0.00  0.00    +0.000 OA
ATOM     38  H   UNL     1      -1.397  11.977  16.519  0.00  0.00    +0.000 HD
ENDBRANCH  36  37
ENDBRANCH  23  36
ENDBRANCH  20  21
ENDBRANCH   6  20
TORSDOF 11
ENDMDL
MODEL 7
REMARK VINA RESULT:      -5.9      7.905     12.326
REMARK  Name = 
REMARK  14 active torsions:
REMARK  status: ('A' for Active; 'I' for Inactive)
REMARK    1  A    between atoms: C_1  and  O_2
REMARK    2  A    between atoms: O_2  and  C_3
REMARK    3  A    between atoms: C_6  and  O_7
REMARK    4  A    between atoms: O_7  and  S_8
REMARK    5  A    between atoms: S_8  and  C_9
REMARK    6  A    between atoms: C_13  and  C_14
REMARK    7  A    between atoms: C_19  and  O_20
REMARK    8  A    between atoms: O_20  and  C_21
REMARK    9  A    between atoms: C_23  and  C_24
REMARK   10  A    between atoms: C_24  and  O_25
REMARK   11  A    between atoms: C_26  and  O_27
REMARK   12  A    between atoms: C_28  and  O_29
REMARK   13  A    between atoms: C_30  and  N_31
REMARK   14  A    between atoms: C_32  and  C_33
REMARK                            x       y       z     vdW  Elec       q    Type
REMARK                         _______ _______ _______ _____ _____    ______ ____
ROOT
ATOM      1  C   UNL     1      -2.100  11.949  18.416  0.00  0.00    +0.000 A 
ATOM      2  C   UNL     1      -2.254  11.066  17.313  0.00  0.00    +0.000 A 
ATOM      3  C   UNL     1      -3.484  10.545  16.911  0.00  0.00    +0.000 A 
ATOM      4  C   UNL     1      -4.618  10.841  17.639  0.00  0.00    +0.000 A 
ATOM      5  C   UNL     1      -4.518  11.669  18.753  0.00  0.00    +0.000 A 
ATOM      6  C   UNL     1      -3.293  12.258  19.144  0.00  0.00    +0.000 A 
ENDROOT
BRANCH   1  12
ATOM      7  C   UNL     1       0.212  11.644  19.570  0.00  0.00    +0.000 A 
ATOM      8  C   UNL     1       1.417  12.211  20.020  0.00  0.00    +0.000 A 
ATOM      9  C   UNL     1       1.789  13.489  19.629  0.00  0.00    +0.000 A 
ATOM     10  C   UNL     1       0.961  14.222  18.785  0.00  0.00    +0.000 A 
ATOM     11  C   UNL     1      -0.267  13.693  18.375  0.00  0.00    +0.000 A 
ATOM     12  C   UNL     1      -0.693  12.400  18.754  0.00  0.00    +0.000 A 
BRANCH   7  14
ATOM     13  C   UNL     1       0.892   9.395  20.075  0.00  0.00    +0.000 C 
ATOM     14  O   UNL     1      -0.146  10.360  19.922  0.00  0.00    +0.000 OA
ENDBRANCH   7  14
BRANCH  10  15
ATOM     15  O   UNL     1       1.419  15.482  18.504  0.00  0.00    +0.000 OA
BRANCH  15  16
ATOM     16  S   UNL     1       0.879  16.827  19.247  0.00  0.00    +0.000 S 
ATOM     17  C   UNL     1      -0.416  17.273  18.093  0.00  0.00    +0.000 C 
ATOM     18  O   UNL     1       0.343  16.479  20.545  0.00  0.00    +0.000 OA
ATOM     19  O   UNL     1       1.929  17.825  19.133  0.00  0.00    +0.000 OA
ENDBRANCH  15  16
ENDBRANCH  10  15
ENDBRANCH   1  12
BRANCH   6  20
ATOM     20  O   UNL     1      -3.241  13.111  20.236  0.00  0.00    +0.000 OA
BRANCH  20  21
ATOM     21  C   UNL     1      -4.204  12.889  21.311  0.00  0.00    +0.000 C 
ATOM     22  O   UNL     1      -5.229  13.891  21.223  0.00  0.00    +0.000 OA
ATOM     23  C   UNL     1      -6.146  13.941  22.318  0.00  0.00    +0.000 C 
ATOM     24  C   UNL     1      -5.382  14.303  23.590  0.00  0.00    +0.000 C 
ATOM     25  C   UNL     1      -4.401  13.172  23.881  0.00  0.00    +0.000 C 
ATOM     26  C   UNL     1      -3.457  12.894  22.686  0.00  0.00    +0.000 C 
BRANCH  26  27
ATOM     27  N   UNL     1      -2.738  11.620  22.957  0.00  0.00    +0.000 N 
ATOM     28  C   UNL     1      -1.368  11.588  22.973  0.00  0.00    +0.000 C 
ATOM     29  C   UNL     1      -0.748  10.273  23.358  0.00  0.00    +0.000 C 
ATOM     30  O   UNL     1      -0.671  12.572  22.717  0.00  0.00    +0.000 OA
ATOM     31  H   UNL     1      -3.198  10.931  23.546  0.00  0.00    +0.000 HD
ENDBRANCH  26  27
BRANCH  24  32
ATOM     32  O   UNL     1      -4.614  15.507  23.447  0.00  0.00    +0.000 OA
ATOM     33  H   UNL     1      -3.749  15.287  23.061  0.00  0.00    +0.000 HD
ENDBRANCH  24  32
BRANCH  25  34
ATOM     34  O   UNL     1      -3.643  13.505  25.054  0.00  0.00    +0.000 OA
ATOM     35  H   UNL     1      -3.834  14.448  25.232  0.00  0.00    +0.000 HD
ENDBRANCH  25  34
BRANCH  23  36
ATOM     36  C   UNL     1      -7.205  14.989  21.968  0.00  0.00    +0.000 C 
BRANCH  36  37
ATOM     37  O   UNL     1      -7.431  15.844  23.088  0.00  0.00    +0.000 OA
ATOM     38  H   UNL     1      -6.603  16.352  23.201  0.00  0.00    +0.000 HD
ENDBRANCH  36  37
ENDBRANCH  23  36
ENDBRANCH  20  21
ENDBRANCH   6  20
TORSDOF 11
ENDMDL
MODEL 8
REMARK VINA RESULT:      -5.9      8.645     11.705
REMARK  Name = 
REMARK  14 active torsions:
REMARK  status: ('A' for Active; 'I' for Inactive)
REMARK    1  A    between atoms: C_1  and  O_2
REMARK    2  A    between atoms: O_2  and  C_3
REMARK    3  A    between atoms: C_6  and  O_7
REMARK    4  A    between atoms: O_7  and  S_8
REMARK    5  A    between atoms: S_8  and  C_9
REMARK    6  A    between atoms: C_13  and  C_14
REMARK    7  A    between atoms: C_19  and  O_20
REMARK    8  A    between atoms: O_20  and  C_21
REMARK    9  A    between atoms: C_23  and  C_24
REMARK   10  A    between atoms: C_24  and  O_25
REMARK   11  A    between atoms: C_26  and  O_27
REMARK   12  A    between atoms: C_28  and  O_29
REMARK   13  A    between atoms: C_30  and  N_31
REMARK   14  A    between atoms: C_32  and  C_33
REMARK                            x       y       z     vdW  Elec       q    Type
REMARK                         _______ _______ _______ _____ _____    ______ ____
ROOT
ATOM      1  C   UNL     1      -2.792  12.022  19.113  0.00  0.00    +0.000 A 
ATOM      2  C   UNL     1      -3.416  11.787  17.858  0.00  0.00    +0.000 A 
ATOM      3  C   UNL     1      -4.789  11.922  17.646  0.00  0.00    +0.000 A 
ATOM      4  C   UNL     1      -5.612  12.246  18.704  0.00  0.00    +0.000 A 
ATOM      5  C   UNL     1      -5.057  12.447  19.964  0.00  0.00    +0.000 A 
ATOM      6  C   UNL     1      -3.663  12.375  20.191  0.00  0.00    +0.000 A 
ENDROOT
BRANCH   1  12
ATOM      7  C   UNL     1      -0.318  12.772  18.814  0.00  0.00    +0.000 A 
ATOM      8  C   UNL     1       1.041  12.426  18.714  0.00  0.00    +0.000 A 
ATOM      9  C   UNL     1       1.475  11.152  19.048  0.00  0.00    +0.000 A 
ATOM     10  C   UNL     1       0.559  10.202  19.484  0.00  0.00    +0.000 A 
ATOM     11  C   UNL     1      -0.804  10.513  19.536  0.00  0.00    +0.000 A 
ATOM     12  C   UNL     1      -1.296  11.795  19.197  0.00  0.00    +0.000 A 
BRANCH   7  14
ATOM     13  C   UNL     1       0.155  15.127  18.732  0.00  0.00    +0.000 C 
ATOM     14  O   UNL     1      -0.752  14.047  18.522  0.00  0.00    +0.000 OA
ENDBRANCH   7  14
BRANCH  10  15
ATOM     15  O   UNL     1       1.104   8.973  19.745  0.00  0.00    +0.000 OA
BRANCH  15  16
ATOM     16  S   UNL     1       1.025   8.239  21.197  0.00  0.00    +0.000 S 
ATOM     17  C   UNL     1       1.806   6.688  20.759  0.00  0.00    +0.000 C 
ATOM     18  O   UNL     1       1.812   8.982  22.156  0.00  0.00    +0.000 OA
ATOM     19  O   UNL     1      -0.378   7.963  21.457  0.00  0.00    +0.000 OA
ENDBRANCH  15  16
ENDBRANCH  10  15
ENDBRANCH   1  12
BRANCH   6  20
ATOM     20  O   UNL     1      -3.144  12.623  21.453  0.00  0.00    +0.000 OA
BRANCH  20  21
ATOM     21  C   UNL     1      -3.121  14.008  21.914  0.00  0.00    +0.000 C 
ATOM     22  O   UNL     1      -1.770  14.492  21.849  0.00  0.00    +0.000 OA
ATOM     23  C   UNL     1      -1.536  15.767  22.449  0.00  0.00    +0.000 C 
ATOM     24  C   UNL     1      -1.825  15.673  23.947  0.00  0.00    +0.000 C 
ATOM     25  C   UNL     1      -3.310  15.366  24.115  0.00  0.00    +0.000 C 
ATOM     26  C   UNL     1      -3.733  14.087  23.352  0.00  0.00    +0.000 C 
BRANCH  26  27
ATOM     27  N   UNL     1      -5.220  14.026  23.351  0.00  0.00    +0.000 N 
ATOM     28  C   UNL     1      -5.871  12.996  23.976  0.00  0.00    +0.000 C 
ATOM     29  C   UNL     1      -7.372  13.088  24.001  0.00  0.00    +0.000 C 
ATOM     30  O   UNL     1      -5.281  12.057  24.515  0.00  0.00    +0.000 OA
ATOM     31  H   UNL     1      -5.731  14.904  23.305  0.00  0.00    +0.000 HD
ENDBRANCH  26  27
BRANCH  24  32
ATOM     32  O   UNL     1      -1.095  14.612  24.581  0.00  0.00    +0.000 OA
ATOM     33  H   UNL     1      -1.519  14.400  25.430  0.00  0.00    +0.000 HD
ENDBRANCH  24  32
BRANCH  25  34
ATOM     34  O   UNL     1      -3.601  15.235  25.515  0.00  0.00    +0.000 OA
ATOM     35  H   UNL     1      -4.225  15.960  25.722  0.00  0.00    +0.000 HD
ENDBRANCH  25  34
BRANCH  23  36
ATOM     36  C   UNL     1      -0.077  16.133  22.169  0.00  0.00    +0.000 C 
BRANCH  36  37
ATOM     37  O   UNL     1       0.772  15.035  22.502  0.00  0.00    +0.000 OA
ATOM     38  H   UNL     1       1.029  14.635  21.649  0.00  0.00    +0.000 HD
ENDBRANCH  36  37
ENDBRANCH  23  36
ENDBRANCH  20  21
ENDBRANCH   6  20
TORSDOF 11
ENDMDL
MODEL 9
REMARK VINA RESULT:      -5.8      6.797     10.529
REMARK  Name = 
REMARK  14 active torsions:
REMARK  status: ('A' for Active; 'I' for Inactive)
REMARK    1  A    between atoms: C_1  and  O_2
REMARK    2  A    between atoms: O_2  and  C_3
REMARK    3  A    between atoms: C_6  and  O_7
REMARK    4  A    between atoms: O_7  and  S_8
REMARK    5  A    between atoms: S_8  and  C_9
REMARK    6  A    between atoms: C_13  and  C_14
REMARK    7  A    between atoms: C_19  and  O_20
REMARK    8  A    between atoms: O_20  and  C_21
REMARK    9  A    between atoms: C_23  and  C_24
REMARK   10  A    between atoms: C_24  and  O_25
REMARK   11  A    between atoms: C_26  and  O_27
REMARK   12  A    between atoms: C_28  and  O_29
REMARK   13  A    between atoms: C_30  and  N_31
REMARK   14  A    between atoms: C_32  and  C_33
REMARK                            x       y       z     vdW  Elec       q    Type
REMARK                         _______ _______ _______ _____ _____    ______ ____
ROOT
ATOM      1  C   UNL     1      -1.734  12.642  22.098  0.00  0.00    +0.000 A 
ATOM      2  C   UNL     1      -3.079  12.541  22.547  0.00  0.00    +0.000 A 
ATOM      3  C   UNL     1      -3.599  13.300  23.596  0.00  0.00    +0.000 A 
ATOM      4  C   UNL     1      -2.772  14.161  24.287  0.00  0.00    +0.000 A 
ATOM      5  C   UNL     1      -1.435  14.268  23.916  0.00  0.00    +0.000 A 
ATOM      6  C   UNL     1      -0.900  13.555  22.818  0.00  0.00    +0.000 A 
ENDROOT
BRANCH   1  12
ATOM      7  C   UNL     1      -0.239  10.771  21.082  0.00  0.00    +0.000 A 
ATOM      8  C   UNL     1       0.247  10.102  19.945  0.00  0.00    +0.000 A 
ATOM      9  C   UNL     1      -0.340  10.297  18.703  0.00  0.00    +0.000 A 
ATOM     10  C   UNL     1      -1.420  11.165  18.578  0.00  0.00    +0.000 A 
ATOM     11  C   UNL     1      -1.878  11.880  19.690  0.00  0.00    +0.000 A 
ATOM     12  C   UNL     1      -1.306  11.722  20.973  0.00  0.00    +0.000 A 
BRANCH   7  14
ATOM     13  C   UNL     1       0.815   9.250  22.616  0.00  0.00    +0.000 C 
ATOM     14  O   UNL     1       0.314  10.553  22.326  0.00  0.00    +0.000 OA
ENDBRANCH   7  14
BRANCH  10  15
ATOM     15  O   UNL     1      -1.885  11.302  17.297  0.00  0.00    +0.000 OA
BRANCH  15  16
ATOM     16  S   UNL     1      -3.072  10.384  16.664  0.00  0.00    +0.000 S 
ATOM     17  C   UNL     1      -4.399  11.585  16.715  0.00  0.00    +0.000 C 
ATOM     18  O   UNL     1      -2.729  10.022  15.306  0.00  0.00    +0.000 OA
ATOM     19  O   UNL     1      -3.378   9.354  17.641  0.00  0.00    +0.000 OA
ENDBRANCH  15  16
ENDBRANCH  10  15
ENDBRANCH   1  12
BRANCH   6  20
ATOM     20  O   UNL     1       0.428  13.720  22.453  0.00  0.00    +0.000 OA
BRANCH  20  21
ATOM     21  C   UNL     1       0.719  14.656  21.371  0.00  0.00    +0.000 C 
ATOM     22  O   UNL     1       1.312  13.931  20.282  0.00  0.00    +0.000 OA
ATOM     23  C   UNL     1       1.840  14.725  19.219  0.00  0.00    +0.000 C 
ATOM     24  C   UNL     1       2.982  15.584  19.759  0.00  0.00    +0.000 C 
ATOM     25  C   UNL     1       2.395  16.547  20.786  0.00  0.00    +0.000 C 
ATOM     26  C   UNL     1       1.631  15.807  21.911  0.00  0.00    +0.000 C 
BRANCH  26  27
ATOM     27  N   UNL     1       0.877  16.822  22.696  0.00  0.00    +0.000 N 
ATOM     28  C   UNL     1       1.368  17.278  23.891  0.00  0.00    +0.000 C 
ATOM     29  C   UNL     1       0.577  18.375  24.548  0.00  0.00    +0.000 C 
ATOM     30  O   UNL     1       2.406  16.848  24.399  0.00  0.00    +0.000 OA
ATOM     31  H   UNL     1       0.290  17.476  22.186  0.00  0.00    +0.000 HD
ENDBRANCH  26  27
BRANCH  24  32
ATOM     32  O   UNL     1       3.986  14.806  20.428  0.00  0.00    +0.000 OA
ATOM     33  H   UNL     1       4.259  14.075  19.848  0.00  0.00    +0.000 HD
ENDBRANCH  24  32
BRANCH  25  34
ATOM     34  O   UNL     1       3.455  17.342  21.336  0.00  0.00    +0.000 OA
ATOM     35  H   UNL     1       3.807  17.866  20.588  0.00  0.00    +0.000 HD
ENDBRANCH  25  34
BRANCH  23  36
ATOM     36  C   UNL     1       2.314  13.760  18.131  0.00  0.00    +0.000 C 
BRANCH  36  37
ATOM     37  O   UNL     1       3.505  14.260  17.523  0.00  0.00    +0.000 OA
ATOM     38  H   UNL     1       3.670  15.126  17.944  0.00  0.00    +0.000 HD
ENDBRANCH  36  37
ENDBRANCH  23  36
ENDBRANCH  20  21
ENDBRANCH   6  20
TORSDOF 11
ENDMDL
