MODEL 1
REMARK VINA RESULT:      -9.6      0.000      0.000
REMARK  Name = 
REMARK  8 active torsions:
REMARK  status: ('A' for Active; 'I' for Inactive)
REMARK    1  A    between atoms: C_1  and  N_2
REMARK    2  A    between atoms: C_6  and  N_7
REMARK    3  A    between atoms: N_10  and  C_11
REMARK    4  A    between atoms: C_14  and  C_15
REMARK    5  A    between atoms: C_23  and  C_24
REMARK    6  A    between atoms: C_23  and  C_25
REMARK    7  A    between atoms: C_28  and  C_29
REMARK    8  A    between atoms: C_28  and  C_30
REMARK                            x       y       z     vdW  Elec       q    Type
REMARK                         _______ _______ _______ _____ _____    ______ ____
ROOT
ATOM      1  C   UNL     1      -2.496  11.955  23.476  0.00  0.00    +0.000 C 
ATOM      2  N   UNL     1      -1.943  11.819  22.126  0.00  0.00    +0.000 N 
ATOM      3  C   UNL     1      -0.977  10.863  21.809  0.00  0.00    +0.000 A 
ATOM      4  C   UNL     1      -0.329  10.151  22.817  0.00  0.00    +0.000 A 
ATOM      5  C   UNL     1       0.598   9.149  22.552  0.00  0.00    +0.000 A 
ATOM      6  C   UNL     1       0.961   8.800  21.257  0.00  0.00    +0.000 A 
ATOM      7  C   UNL     1       0.367   9.528  20.218  0.00  0.00    +0.000 A 
ATOM      8  C   UNL     1      -0.603  10.554  20.470  0.00  0.00    +0.000 A 
ATOM      9  C   UNL     1      -1.261  11.293  19.288  0.00  0.00    +0.000 C 
ATOM     10  C   UNL     1      -1.844  10.287  18.267  0.00  0.00    +0.000 C 
ATOM     11  C   UNL     1      -0.255  12.171  18.512  0.00  0.00    +0.000 C 
ATOM     12  C   UNL     1      -2.402  12.206  19.774  0.00  0.00    +0.000 C 
ATOM     13  O   UNL     1      -3.420  12.386  19.098  0.00  0.00    +0.000 OA
ATOM     14  C   UNL     1      -2.194  12.893  21.141  0.00  0.00    +0.000 C 
ATOM     15  C   UNL     1      -1.013  13.880  21.138  0.00  0.00    +0.000 C 
ATOM     16  C   UNL     1      -3.452  13.725  21.474  0.00  0.00    +0.000 C 
ENDROOT
BRANCH   6  17
ATOM     17  N   UNL     1       1.893   7.751  20.984  0.00  0.00    +0.000 N 
ATOM     18  C   UNL     1       2.336   7.415  19.699  0.00  0.00    +0.000 C 
ATOM     19  O   UNL     1       1.973   7.966  18.677  0.00  0.00    +0.000 OA
ATOM     20  N   UNL     1       3.242   6.352  19.668  0.00  0.00    +0.000 N 
ATOM     21  H   UNL     1       2.298   7.276  21.777  0.00  0.00    +0.000 HD
ATOM     22  H   UNL     1       3.065   5.620  20.341  0.00  0.00    +0.000 HD
BRANCH  20  23
ATOM     23  C   UNL     1       3.695   5.932  18.376  0.00  0.00    +0.000 A 
ATOM     24  C   UNL     1       3.486   4.613  17.953  0.00  0.00    +0.000 A 
ATOM     25  C   UNL     1       4.115   4.117  16.810  0.00  0.00    +0.000 A 
ATOM     26  C   UNL     1       4.962   4.936  16.055  0.00  0.00    +0.000 A 
ATOM     27  C   UNL     1       5.088   6.287  16.420  0.00  0.00    +0.000 A 
ATOM     28  C   UNL     1       4.444   6.789  17.568  0.00  0.00    +0.000 A 
BRANCH  26  29
ATOM     29  C   UNL     1       5.744   4.336  14.908  0.00  0.00    +0.000 C 
ATOM     30  F   UNL     1       4.996   4.179  13.777  0.00  0.00    +0.000 F 
ATOM     31  F   UNL     1       6.812   5.099  14.539  0.00  0.00    +0.000 F 
ATOM     32  F   UNL     1       6.246   3.102  15.189  0.00  0.00    +0.000 F 
ENDBRANCH  26  29
ENDBRANCH  20  23
ENDBRANCH   6  17
TORSDOF 3
ENDMDL
MODEL 2
REMARK VINA RESULT:      -9.0      0.868      1.167
REMARK  Name = 
REMARK  8 active torsions:
REMARK  status: ('A' for Active; 'I' for Inactive)
REMARK    1  A    between atoms: C_1  and  N_2
REMARK    2  A    between atoms: C_6  and  N_7
REMARK    3  A    between atoms: N_10  and  C_11
REMARK    4  A    between atoms: C_14  and  C_15
REMARK    5  A    between atoms: C_23  and  C_24
REMARK    6  A    between atoms: C_23  and  C_25
REMARK    7  A    between atoms: C_28  and  C_29
REMARK    8  A    between atoms: C_28  and  C_30
REMARK                            x       y       z     vdW  Elec       q    Type
REMARK                         _______ _______ _______ _____ _____    ______ ____
ROOT
ATOM      1  C   UNL     1      -2.062  11.958  23.043  0.00  0.00    +0.000 C 
ATOM      2  N   UNL     1      -1.360  11.710  21.781  0.00  0.00    +0.000 N 
ATOM      3  C   UNL     1      -0.537  10.600  21.591  0.00  0.00    +0.000 A 
ATOM      4  C   UNL     1      -0.164   9.803  22.672  0.00  0.00    +0.000 A 
ATOM      5  C   UNL     1       0.606   8.654  22.528  0.00  0.00    +0.000 A 
ATOM      6  C   UNL     1       1.079   8.230  21.292  0.00  0.00    +0.000 A 
ATOM      7  C   UNL     1       0.766   9.034  20.188  0.00  0.00    +0.000 A 
ATOM      8  C   UNL     1      -0.040  10.213  20.313  0.00  0.00    +0.000 A 
ATOM      9  C   UNL     1      -0.394  11.036  19.060  0.00  0.00    +0.000 C 
ATOM     10  C   UNL     1      -0.993  10.130  17.958  0.00  0.00    +0.000 C 
ATOM     11  C   UNL     1       0.843  11.720  18.438  0.00  0.00    +0.000 C 
ATOM     12  C   UNL     1      -1.419  12.136  19.392  0.00  0.00    +0.000 C 
ATOM     13  O   UNL     1      -2.289  12.477  18.584  0.00  0.00    +0.000 OA
ATOM     14  C   UNL     1      -1.287  12.797  20.781  0.00  0.00    +0.000 C 
ATOM     15  C   UNL     1       0.033  13.569  20.950  0.00  0.00    +0.000 C 
ATOM     16  C   UNL     1      -2.419  13.835  20.946  0.00  0.00    +0.000 C 
ENDROOT
BRANCH   6  17
ATOM     17  N   UNL     1       1.848   7.034  21.140  0.00  0.00    +0.000 N 
ATOM     18  C   UNL     1       2.540   6.695  19.972  0.00  0.00    +0.000 C 
ATOM     19  O   UNL     1       2.557   7.367  18.959  0.00  0.00    +0.000 OA
ATOM     20  N   UNL     1       3.219   5.475  20.045  0.00  0.00    +0.000 N 
ATOM     21  H   UNL     1       1.943   6.442  21.951  0.00  0.00    +0.000 HD
ATOM     22  H   UNL     1       2.747   4.754  20.572  0.00  0.00    +0.000 HD
BRANCH  20  23
ATOM     23  C   UNL     1       3.907   5.052  18.863  0.00  0.00    +0.000 A 
ATOM     24  C   UNL     1       5.173   5.570  18.563  0.00  0.00    +0.000 A 
ATOM     25  C   UNL     1       5.759   5.358  17.314  0.00  0.00    +0.000 A 
ATOM     26  C   UNL     1       5.094   4.609  16.337  0.00  0.00    +0.000 A 
ATOM     27  C   UNL     1       3.873   4.002  16.674  0.00  0.00    +0.000 A 
ATOM     28  C   UNL     1       3.287   4.208  17.939  0.00  0.00    +0.000 A 
BRANCH  26  29
ATOM     29  C   UNL     1       5.683   4.516  14.947  0.00  0.00    +0.000 C 
ATOM     30  F   UNL     1       4.740   4.312  13.982  0.00  0.00    +0.000 F 
ATOM     31  F   UNL     1       6.348   5.647  14.577  0.00  0.00    +0.000 F 
ATOM     32  F   UNL     1       6.574   3.497  14.809  0.00  0.00    +0.000 F 
ENDBRANCH  26  29
ENDBRANCH  20  23
ENDBRANCH   6  17
TORSDOF 3
ENDMDL
MODEL 3
REMARK VINA RESULT:      -8.7      0.905      1.037
REMARK  Name = 
REMARK  8 active torsions:
REMARK  status: ('A' for Active; 'I' for Inactive)
REMARK    1  A    between atoms: C_1  and  N_2
REMARK    2  A    between atoms: C_6  and  N_7
REMARK    3  A    between atoms: N_10  and  C_11
REMARK    4  A    between atoms: C_14  and  C_15
REMARK    5  A    between atoms: C_23  and  C_24
REMARK    6  A    between atoms: C_23  and  C_25
REMARK    7  A    between atoms: C_28  and  C_29
REMARK    8  A    between atoms: C_28  and  C_30
REMARK                            x       y       z     vdW  Elec       q    Type
REMARK                         _______ _______ _______ _____ _____    ______ ____
ROOT
ATOM      1  C   UNL     1      -2.577  12.290  23.445  0.00  0.00    +0.000 C 
ATOM      2  N   UNL     1      -1.599  12.315  22.355  0.00  0.00    +0.000 N 
ATOM      3  C   UNL     1      -0.769  11.229  22.073  0.00  0.00    +0.000 A 
ATOM      4  C   UNL     1      -0.674  10.160  22.962  0.00  0.00    +0.000 A 
ATOM      5  C   UNL     1       0.092   9.030  22.700  0.00  0.00    +0.000 A 
ATOM      6  C   UNL     1       0.839   8.896  21.537  0.00  0.00    +0.000 A 
ATOM      7  C   UNL     1       0.808   9.972  20.641  0.00  0.00    +0.000 A 
ATOM      8  C   UNL     1       0.012  11.140  20.884  0.00  0.00    +0.000 A 
ATOM      9  C   UNL     1      -0.022  12.275  19.843  0.00  0.00    +0.000 C 
ATOM     10  C   UNL     1      -0.355  11.722  18.437  0.00  0.00    +0.000 C 
ATOM     11  C   UNL     1       1.336  12.998  19.718  0.00  0.00    +0.000 C 
ATOM     12  C   UNL     1      -1.082  13.330  20.212  0.00  0.00    +0.000 C 
ATOM     13  O   UNL     1      -1.730  13.928  19.346  0.00  0.00    +0.000 OA
ATOM     14  C   UNL     1      -1.275  13.609  21.718  0.00  0.00    +0.000 C 
ATOM     15  C   UNL     1      -0.022  14.213  22.377  0.00  0.00    +0.000 C 
ATOM     16  C   UNL     1      -2.399  14.655  21.888  0.00  0.00    +0.000 C 
ENDROOT
BRANCH   6  17
ATOM     17  N   UNL     1       1.605   7.722  21.254  0.00  0.00    +0.000 N 
ATOM     18  C   UNL     1       2.135   7.420  19.995  0.00  0.00    +0.000 C 
ATOM     19  O   UNL     1       1.996   8.110  19.003  0.00  0.00    +0.000 OA
ATOM     20  N   UNL     1       2.845   6.217  19.948  0.00  0.00    +0.000 N 
ATOM     21  H   UNL     1       1.827   7.119  22.033  0.00  0.00    +0.000 HD
ATOM     22  H   UNL     1       2.467   5.476  20.520  0.00  0.00    +0.000 HD
BRANCH  20  23
ATOM     23  C   UNL     1       3.371   5.831  18.673  0.00  0.00    +0.000 A 
ATOM     24  C   UNL     1       3.302   4.495  18.260  0.00  0.00    +0.000 A 
ATOM     25  C   UNL     1       4.007   4.052  17.140  0.00  0.00    +0.000 A 
ATOM     26  C   UNL     1       4.790   4.942  16.397  0.00  0.00    +0.000 A 
ATOM     27  C   UNL     1       4.776   6.302  16.750  0.00  0.00    +0.000 A 
ATOM     28  C   UNL     1       4.055   6.750  17.875  0.00  0.00    +0.000 A 
BRANCH  26  29
ATOM     29  C   UNL     1       5.658   4.410  15.278  0.00  0.00    +0.000 C 
ATOM     30  F   UNL     1       5.095   4.571  14.045  0.00  0.00    +0.000 F 
ATOM     31  F   UNL     1       6.871   5.026  15.212  0.00  0.00    +0.000 F 
ATOM     32  F   UNL     1       5.920   3.079  15.390  0.00  0.00    +0.000 F 
ENDBRANCH  26  29
ENDBRANCH  20  23
ENDBRANCH   6  17
TORSDOF 3
ENDMDL
MODEL 4
REMARK VINA RESULT:      -8.6      7.523      9.299
REMARK  Name = 
REMARK  8 active torsions:
REMARK  status: ('A' for Active; 'I' for Inactive)
REMARK    1  A    between atoms: C_1  and  N_2
REMARK    2  A    between atoms: C_6  and  N_7
REMARK    3  A    between atoms: N_10  and  C_11
REMARK    4  A    between atoms: C_14  and  C_15
REMARK    5  A    between atoms: C_23  and  C_24
REMARK    6  A    between atoms: C_23  and  C_25
REMARK    7  A    between atoms: C_28  and  C_29
REMARK    8  A    between atoms: C_28  and  C_30
REMARK                            x       y       z     vdW  Elec       q    Type
REMARK                         _______ _______ _______ _____ _____    ______ ____
ROOT
ATOM      1  C   UNL     1      11.663  15.346  17.131  0.00  0.00    +0.000 C 
ATOM      2  N   UNL     1      10.672  14.997  18.152  0.00  0.00    +0.000 N 
ATOM      3  C   UNL     1      10.301  13.678  18.410  0.00  0.00    +0.000 A 
ATOM      4  C   UNL     1      10.686  12.652  17.548  0.00  0.00    +0.000 A 
ATOM      5  C   UNL     1      10.392  11.315  17.792  0.00  0.00    +0.000 A 
ATOM      6  C   UNL     1       9.669  10.907  18.906  0.00  0.00    +0.000 A 
ATOM      7  C   UNL     1       9.221  11.915  19.770  0.00  0.00    +0.000 A 
ATOM      8  C   UNL     1       9.528  13.298  19.545  0.00  0.00    +0.000 A 
ATOM      9  C   UNL     1       9.050  14.362  20.552  0.00  0.00    +0.000 C 
ATOM     10  C   UNL     1       9.464  13.981  21.993  0.00  0.00    +0.000 C 
ATOM     11  C   UNL     1       7.513  14.511  20.564  0.00  0.00    +0.000 C 
ATOM     12  C   UNL     1       9.651  15.742  20.224  0.00  0.00    +0.000 C 
ATOM     13  O   UNL     1       9.957  16.543  21.113  0.00  0.00    +0.000 OA
ATOM     14  C   UNL     1       9.833  16.071  18.726  0.00  0.00    +0.000 C 
ATOM     15  C   UNL     1       8.497  16.148  17.967  0.00  0.00    +0.000 C 
ATOM     16  C   UNL     1      10.483  17.466  18.601  0.00  0.00    +0.000 C 
ENDROOT
BRANCH   6  17
ATOM     17  N   UNL     1       9.390   9.530  19.171  0.00  0.00    +0.000 N 
ATOM     18  C   UNL     1       8.481   8.762  18.436  0.00  0.00    +0.000 C 
ATOM     19  O   UNL     1       7.821   9.177  17.502  0.00  0.00    +0.000 OA
ATOM     20  N   UNL     1       8.363   7.441  18.877  0.00  0.00    +0.000 N 
ATOM     21  H   UNL     1       9.936   9.081  19.891  0.00  0.00    +0.000 HD
ATOM     22  H   UNL     1       8.424   7.317  19.877  0.00  0.00    +0.000 HD
BRANCH  20  23
ATOM     23  C   UNL     1       7.411   6.619  18.192  0.00  0.00    +0.000 A 
ATOM     24  C   UNL     1       6.140   7.121  17.885  0.00  0.00    +0.000 A 
ATOM     25  C   UNL     1       5.123   6.278  17.434  0.00  0.00    +0.000 A 
ATOM     26  C   UNL     1       5.359   4.909  17.268  0.00  0.00    +0.000 A 
ATOM     27  C   UNL     1       6.661   4.424  17.475  0.00  0.00    +0.000 A 
ATOM     28  C   UNL     1       7.690   5.278  17.920  0.00  0.00    +0.000 A 
BRANCH  26  29
ATOM     29  C   UNL     1       4.205   3.995  16.920  0.00  0.00    +0.000 C 
ATOM     30  F   UNL     1       2.987   4.557  17.167  0.00  0.00    +0.000 F 
ATOM     31  F   UNL     1       4.188   3.644  15.603  0.00  0.00    +0.000 F 
ATOM     32  F   UNL     1       4.218   2.827  17.618  0.00  0.00    +0.000 F 
ENDBRANCH  26  29
ENDBRANCH  20  23
ENDBRANCH   6  17
TORSDOF 3
ENDMDL
MODEL 5
REMARK VINA RESULT:      -8.4      7.379      9.119
REMARK  Name = 
REMARK  8 active torsions:
REMARK  status: ('A' for Active; 'I' for Inactive)
REMARK    1  A    between atoms: C_1  and  N_2
REMARK    2  A    between atoms: C_6  and  N_7
REMARK    3  A    between atoms: N_10  and  C_11
REMARK    4  A    between atoms: C_14  and  C_15
REMARK    5  A    between atoms: C_23  and  C_24
REMARK    6  A    between atoms: C_23  and  C_25
REMARK    7  A    between atoms: C_28  and  C_29
REMARK    8  A    between atoms: C_28  and  C_30
REMARK                            x       y       z     vdW  Elec       q    Type
REMARK                         _______ _______ _______ _____ _____    ______ ____
ROOT
ATOM      1  C   UNL     1      11.781  15.138  17.600  0.00  0.00    +0.000 C 
ATOM      2  N   UNL     1      10.692  14.820  18.528  0.00  0.00    +0.000 N 
ATOM      3  C   UNL     1      10.256  13.513  18.745  0.00  0.00    +0.000 A 
ATOM      4  C   UNL     1      10.683  12.477  17.916  0.00  0.00    +0.000 A 
ATOM      5  C   UNL     1      10.324  11.150  18.125  0.00  0.00    +0.000 A 
ATOM      6  C   UNL     1       9.492  10.764  19.169  0.00  0.00    +0.000 A 
ATOM      7  C   UNL     1       9.003  11.784  19.995  0.00  0.00    +0.000 A 
ATOM      8  C   UNL     1       9.374  13.157  19.806  0.00  0.00    +0.000 A 
ATOM      9  C   UNL     1       8.844  14.234  20.771  0.00  0.00    +0.000 C 
ATOM     10  C   UNL     1       9.116  13.836  22.242  0.00  0.00    +0.000 C 
ATOM     11  C   UNL     1       7.317  14.433  20.648  0.00  0.00    +0.000 C 
ATOM     12  C   UNL     1       9.516  15.593  20.505  0.00  0.00    +0.000 C 
ATOM     13  O   UNL     1       9.769  16.383  21.422  0.00  0.00    +0.000 OA
ATOM     14  C   UNL     1       9.841  15.919  19.031  0.00  0.00    +0.000 C 
ATOM     15  C   UNL     1       8.581  16.043  18.158  0.00  0.00    +0.000 C 
ATOM     16  C   UNL     1      10.545  17.293  18.971  0.00  0.00    +0.000 C 
ENDROOT
BRANCH   6  17
ATOM     17  N   UNL     1       9.145   9.397  19.401  0.00  0.00    +0.000 N 
ATOM     18  C   UNL     1       8.458   8.598  18.480  0.00  0.00    +0.000 C 
ATOM     19  O   UNL     1       8.071   8.975  17.391  0.00  0.00    +0.000 OA
ATOM     20  N   UNL     1       8.221   7.293  18.923  0.00  0.00    +0.000 N 
ATOM     21  H   UNL     1       9.480   8.976  20.256  0.00  0.00    +0.000 HD
ATOM     22  H   UNL     1       8.015   7.207  19.907  0.00  0.00    +0.000 HD
BRANCH  20  23
ATOM     23  C   UNL     1       7.479   6.442  18.041  0.00  0.00    +0.000 A 
ATOM     24  C   UNL     1       7.842   5.098  17.893  0.00  0.00    +0.000 A 
ATOM     25  C   UNL     1       7.293   4.313  16.877  0.00  0.00    +0.000 A 
ATOM     26  C   UNL     1       6.356   4.855  15.991  0.00  0.00    +0.000 A 
ATOM     27  C   UNL     1       5.915   6.172  16.204  0.00  0.00    +0.000 A 
ATOM     28  C   UNL     1       6.462   6.959  17.236  0.00  0.00    +0.000 A 
BRANCH  26  29
ATOM     29  C   UNL     1       5.887   4.030  14.813  0.00  0.00    +0.000 C 
ATOM     30  F   UNL     1       5.835   2.694  15.085  0.00  0.00    +0.000 F 
ATOM     31  F   UNL     1       4.635   4.369  14.396  0.00  0.00    +0.000 F 
ATOM     32  F   UNL     1       6.690   4.150  13.721  0.00  0.00    +0.000 F 
ENDBRANCH  26  29
ENDBRANCH  20  23
ENDBRANCH   6  17
TORSDOF 3
ENDMDL
MODEL 6
REMARK VINA RESULT:      -8.4      1.461      1.782
REMARK  Name = 
REMARK  8 active torsions:
REMARK  status: ('A' for Active; 'I' for Inactive)
REMARK    1  A    between atoms: C_1  and  N_2
REMARK    2  A    between atoms: C_6  and  N_7
REMARK    3  A    between atoms: N_10  and  C_11
REMARK    4  A    between atoms: C_14  and  C_15
REMARK    5  A    between atoms: C_23  and  C_24
REMARK    6  A    between atoms: C_23  and  C_25
REMARK    7  A    between atoms: C_28  and  C_29
REMARK    8  A    between atoms: C_28  and  C_30
REMARK                            x       y       z     vdW  Elec       q    Type
REMARK                         _______ _______ _______ _____ _____    ______ ____
ROOT
ATOM      1  C   UNL     1      -2.141  13.214  23.132  0.00  0.00    +0.000 C 
ATOM      2  N   UNL     1      -1.150  12.926  22.092  0.00  0.00    +0.000 N 
ATOM      3  C   UNL     1      -0.543  11.677  21.966  0.00  0.00    +0.000 A 
ATOM      4  C   UNL     1      -0.682  10.717  22.968  0.00  0.00    +0.000 A 
ATOM      5  C   UNL     1      -0.146   9.438  22.864  0.00  0.00    +0.000 A 
ATOM      6  C   UNL     1       0.589   9.032  21.757  0.00  0.00    +0.000 A 
ATOM      7  C   UNL     1       0.793   9.985  20.751  0.00  0.00    +0.000 A 
ATOM      8  C   UNL     1       0.235  11.304  20.832  0.00  0.00    +0.000 A 
ATOM      9  C   UNL     1       0.451  12.299  19.675  0.00  0.00    +0.000 C 
ATOM     10  C   UNL     1       0.051  11.665  18.322  0.00  0.00    +0.000 C 
ATOM     11  C   UNL     1       1.927  12.728  19.538  0.00  0.00    +0.000 C 
ATOM     12  C   UNL     1      -0.390  13.573  19.880  0.00  0.00    +0.000 C 
ATOM     13  O   UNL     1      -0.887  14.182  18.926  0.00  0.00    +0.000 OA
ATOM     14  C   UNL     1      -0.562  14.053  21.337  0.00  0.00    +0.000 C 
ATOM     15  C   UNL     1       0.768  14.476  21.985  0.00  0.00    +0.000 C 
ATOM     16  C   UNL     1      -1.463  15.308  21.342  0.00  0.00    +0.000 C 
ENDROOT
BRANCH   6  17
ATOM     17  N   UNL     1       1.117   7.709  21.637  0.00  0.00    +0.000 N 
ATOM     18  C   UNL     1       1.887   7.270  20.554  0.00  0.00    +0.000 C 
ATOM     19  O   UNL     1       2.183   7.956  19.594  0.00  0.00    +0.000 OA
ATOM     20  N   UNL     1       2.291   5.935  20.645  0.00  0.00    +0.000 N 
ATOM     21  H   UNL     1       0.975   7.084  22.418  0.00  0.00    +0.000 HD
ATOM     22  H   UNL     1       1.614   5.311  21.059  0.00  0.00    +0.000 HD
BRANCH  20  23
ATOM     23  C   UNL     1       3.042   5.416  19.541  0.00  0.00    +0.000 A 
ATOM     24  C   UNL     1       4.438   5.534  19.524  0.00  0.00    +0.000 A 
ATOM     25  C   UNL     1       5.169   5.253  18.369  0.00  0.00    +0.000 A 
ATOM     26  C   UNL     1       4.518   4.833  17.203  0.00  0.00    +0.000 A 
ATOM     27  C   UNL     1       3.131   4.615  17.252  0.00  0.00    +0.000 A 
ATOM     28  C   UNL     1       2.396   4.889  18.422  0.00  0.00    +0.000 A 
BRANCH  26  29
ATOM     29  C   UNL     1       5.314   4.676  15.927  0.00  0.00    +0.000 C 
ATOM     30  F   UNL     1       4.665   3.935  14.982  0.00  0.00    +0.000 F 
ATOM     31  F   UNL     1       5.597   5.867  15.329  0.00  0.00    +0.000 F 
ATOM     32  F   UNL     1       6.512   4.058  16.116  0.00  0.00    +0.000 F 
ENDBRANCH  26  29
ENDBRANCH  20  23
ENDBRANCH   6  17
TORSDOF 3
ENDMDL
MODEL 7
REMARK VINA RESULT:      -8.3      0.722      1.188
REMARK  Name = 
REMARK  8 active torsions:
REMARK  status: ('A' for Active; 'I' for Inactive)
REMARK    1  A    between atoms: C_1  and  N_2
REMARK    2  A    between atoms: C_6  and  N_7
REMARK    3  A    between atoms: N_10  and  C_11
REMARK    4  A    between atoms: C_14  and  C_15
REMARK    5  A    between atoms: C_23  and  C_24
REMARK    6  A    between atoms: C_23  and  C_25
REMARK    7  A    between atoms: C_28  and  C_29
REMARK    8  A    between atoms: C_28  and  C_30
REMARK                            x       y       z     vdW  Elec       q    Type
REMARK                         _______ _______ _______ _____ _____    ______ ____
ROOT
ATOM      1  C   UNL     1      -2.273  12.347  23.526  0.00  0.00    +0.000 C 
ATOM      2  N   UNL     1      -1.804  12.041  22.172  0.00  0.00    +0.000 N 
ATOM      3  C   UNL     1      -0.997  10.938  21.894  0.00  0.00    +0.000 A 
ATOM      4  C   UNL     1      -0.411  10.211  22.928  0.00  0.00    +0.000 A 
ATOM      5  C   UNL     1       0.353   9.071  22.706  0.00  0.00    +0.000 A 
ATOM      6  C   UNL     1       0.607   8.586  21.429  0.00  0.00    +0.000 A 
ATOM      7  C   UNL     1       0.075   9.320  20.360  0.00  0.00    +0.000 A 
ATOM      8  C   UNL     1      -0.729  10.489  20.568  0.00  0.00    +0.000 A 
ATOM      9  C   UNL     1      -1.328  11.232  19.359  0.00  0.00    +0.000 C 
ATOM     10  C   UNL     1      -2.091  10.253  18.434  0.00  0.00    +0.000 C 
ATOM     11  C   UNL     1      -0.245  11.903  18.487  0.00  0.00    +0.000 C 
ATOM     12  C   UNL     1      -2.308  12.329  19.815  0.00  0.00    +0.000 C 
ATOM     13  O   UNL     1      -3.320  12.607  19.163  0.00  0.00    +0.000 OA
ATOM     14  C   UNL     1      -1.945  13.071  21.120  0.00  0.00    +0.000 C 
ATOM     15  C   UNL     1      -0.639  13.876  21.004  0.00  0.00    +0.000 C 
ATOM     16  C   UNL     1      -3.058  14.095  21.434  0.00  0.00    +0.000 C 
ENDROOT
BRANCH   6  17
ATOM     17  N   UNL     1       1.369   7.399  21.202  0.00  0.00    +0.000 N 
ATOM     18  C   UNL     1       2.291   7.250  20.159  0.00  0.00    +0.000 C 
ATOM     19  O   UNL     1       2.538   8.103  19.329  0.00  0.00    +0.000 OA
ATOM     20  N   UNL     1       2.917   6.001  20.125  0.00  0.00    +0.000 N 
ATOM     21  H   UNL     1       1.277   6.656  21.879  0.00  0.00    +0.000 HD
ATOM     22  H   UNL     1       2.330   5.222  20.385  0.00  0.00    +0.000 HD
BRANCH  20  23
ATOM     23  C   UNL     1       3.837   5.774  19.051  0.00  0.00    +0.000 A 
ATOM     24  C   UNL     1       3.610   6.354  17.797  0.00  0.00    +0.000 A 
ATOM     25  C   UNL     1       4.351   5.965  16.680  0.00  0.00    +0.000 A 
ATOM     26  C   UNL     1       5.350   4.991  16.796  0.00  0.00    +0.000 A 
ATOM     27  C   UNL     1       5.648   4.487  18.073  0.00  0.00    +0.000 A 
ATOM     28  C   UNL     1       4.906   4.888  19.201  0.00  0.00    +0.000 A 
BRANCH  26  29
ATOM     29  C   UNL     1       6.038   4.483  15.549  0.00  0.00    +0.000 C 
ATOM     30  F   UNL     1       7.271   5.035  15.358  0.00  0.00    +0.000 F 
ATOM     31  F   UNL     1       6.237   3.135  15.567  0.00  0.00    +0.000 F 
ATOM     32  F   UNL     1       5.340   4.743  14.409  0.00  0.00    +0.000 F 
ENDBRANCH  26  29
ENDBRANCH  20  23
ENDBRANCH   6  17
TORSDOF 3
ENDMDL
MODEL 8
REMARK VINA RESULT:      -8.3      3.763      4.848
REMARK  Name = 
REMARK  8 active torsions:
REMARK  status: ('A' for Active; 'I' for Inactive)
REMARK    1  A    between atoms: C_1  and  N_2
REMARK    2  A    between atoms: C_6  and  N_7
REMARK    3  A    between atoms: N_10  and  C_11
REMARK    4  A    between atoms: C_14  and  C_15
REMARK    5  A    between atoms: C_23  and  C_24
REMARK    6  A    between atoms: C_23  and  C_25
REMARK    7  A    between atoms: C_28  and  C_29
REMARK    8  A    between atoms: C_28  and  C_30
REMARK                            x       y       z     vdW  Elec       q    Type
REMARK                         _______ _______ _______ _____ _____    ______ ____
ROOT
ATOM      1  C   UNL     1      -1.557  14.997  20.191  0.00  0.00    +0.000 C 
ATOM      2  N   UNL     1      -0.114  14.825  20.002  0.00  0.00    +0.000 N 
ATOM      3  C   UNL     1       0.436  13.645  19.503  0.00  0.00    +0.000 A 
ATOM      4  C   UNL     1      -0.343  12.495  19.381  0.00  0.00    +0.000 A 
ATOM      5  C   UNL     1       0.142  11.312  18.836  0.00  0.00    +0.000 A 
ATOM      6  C   UNL     1       1.452  11.184  18.392  0.00  0.00    +0.000 A 
ATOM      7  C   UNL     1       2.281  12.303  18.544  0.00  0.00    +0.000 A 
ATOM      8  C   UNL     1       1.796  13.538  19.089  0.00  0.00    +0.000 A 
ATOM      9  C   UNL     1       2.737  14.753  19.190  0.00  0.00    +0.000 C 
ATOM     10  C   UNL     1       3.420  15.036  17.831  0.00  0.00    +0.000 C 
ATOM     11  C   UNL     1       3.874  14.531  20.212  0.00  0.00    +0.000 C 
ATOM     12  C   UNL     1       1.965  16.016  19.616  0.00  0.00    +0.000 C 
ATOM     13  O   UNL     1       2.268  17.135  19.189  0.00  0.00    +0.000 OA
ATOM     14  C   UNL     1       0.807  15.806  20.615  0.00  0.00    +0.000 C 
ATOM     15  C   UNL     1       1.287  15.284  21.981  0.00  0.00    +0.000 C 
ATOM     16  C   UNL     1       0.132  17.169  20.885  0.00  0.00    +0.000 C 
ENDROOT
BRANCH   6  17
ATOM     17  N   UNL     1       1.944   9.976  17.806  0.00  0.00    +0.000 N 
ATOM     18  C   UNL     1       1.930   8.734  18.450  0.00  0.00    +0.000 C 
ATOM     19  O   UNL     1       1.512   8.543  19.576  0.00  0.00    +0.000 OA
ATOM     20  N   UNL     1       2.467   7.691  17.689  0.00  0.00    +0.000 N 
ATOM     21  H   UNL     1       2.255  10.024  16.847  0.00  0.00    +0.000 HD
ATOM     22  H   UNL     1       3.258   7.945  17.115  0.00  0.00    +0.000 HD
BRANCH  20  23
ATOM     23  C   UNL     1       2.523   6.404  18.315  0.00  0.00    +0.000 A 
ATOM     24  C   UNL     1       1.722   5.358  17.841  0.00  0.00    +0.000 A 
ATOM     25  C   UNL     1       1.582   4.174  18.568  0.00  0.00    +0.000 A 
ATOM     26  C   UNL     1       2.253   4.005  19.784  0.00  0.00    +0.000 A 
ATOM     27  C   UNL     1       3.139   5.012  20.206  0.00  0.00    +0.000 A 
ATOM     28  C   UNL     1       3.287   6.202  19.466  0.00  0.00    +0.000 A 
BRANCH  26  29
ATOM     29  C   UNL     1       1.972   2.778  20.622  0.00  0.00    +0.000 C 
ATOM     30  F   UNL     1       1.635   1.688  19.874  0.00  0.00    +0.000 F 
ATOM     31  F   UNL     1       3.044   2.392  21.371  0.00  0.00    +0.000 F 
ATOM     32  F   UNL     1       0.946   2.952  21.499  0.00  0.00    +0.000 F 
ENDBRANCH  26  29
ENDBRANCH  20  23
ENDBRANCH   6  17
TORSDOF 3
ENDMDL
MODEL 9
REMARK VINA RESULT:      -8.2      5.636     10.253
REMARK  Name = 
REMARK  8 active torsions:
REMARK  status: ('A' for Active; 'I' for Inactive)
REMARK    1  A    between atoms: C_1  and  N_2
REMARK    2  A    between atoms: C_6  and  N_7
REMARK    3  A    between atoms: N_10  and  C_11
REMARK    4  A    between atoms: C_14  and  C_15
REMARK    5  A    between atoms: C_23  and  C_24
REMARK    6  A    between atoms: C_23  and  C_25
REMARK    7  A    between atoms: C_28  and  C_29
REMARK    8  A    between atoms: C_28  and  C_30
REMARK                            x       y       z     vdW  Elec       q    Type
REMARK                         _______ _______ _______ _____ _____    ______ ____
ROOT
ATOM      1  C   UNL     1       2.548   2.888  21.431  0.00  0.00    +0.000 C 
ATOM      2  N   UNL     1       3.053   3.693  20.315  0.00  0.00    +0.000 N 
ATOM      3  C   UNL     1       2.654   5.014  20.109  0.00  0.00    +0.000 A 
ATOM      4  C   UNL     1       1.583   5.550  20.822  0.00  0.00    +0.000 A 
ATOM      5  C   UNL     1       1.184   6.876  20.696  0.00  0.00    +0.000 A 
ATOM      6  C   UNL     1       1.815   7.759  19.829  0.00  0.00    +0.000 A 
ATOM      7  C   UNL     1       2.866   7.244  19.058  0.00  0.00    +0.000 A 
ATOM      8  C   UNL     1       3.303   5.884  19.185  0.00  0.00    +0.000 A 
ATOM      9  C   UNL     1       4.494   5.380  18.348  0.00  0.00    +0.000 C 
ATOM     10  C   UNL     1       5.714   6.319  18.506  0.00  0.00    +0.000 C 
ATOM     11  C   UNL     1       4.172   5.334  16.838  0.00  0.00    +0.000 C 
ATOM     12  C   UNL     1       4.914   3.963  18.781  0.00  0.00    +0.000 C 
ATOM     13  O   UNL     1       6.096   3.604  18.765  0.00  0.00    +0.000 OA
ATOM     14  C   UNL     1       3.776   3.016  19.218  0.00  0.00    +0.000 C 
ATOM     15  C   UNL     1       2.798   2.692  18.074  0.00  0.00    +0.000 C 
ATOM     16  C   UNL     1       4.393   1.668  19.653  0.00  0.00    +0.000 C 
ENDROOT
BRANCH   6  17
ATOM     17  N   UNL     1       1.423   9.130  19.719  0.00  0.00    +0.000 N 
ATOM     18  C   UNL     1       0.442   9.728  20.517  0.00  0.00    +0.000 C 
ATOM     19  O   UNL     1      -0.193   9.152  21.379  0.00  0.00    +0.000 OA
ATOM     20  N   UNL     1       0.218  11.078  20.230  0.00  0.00    +0.000 N 
ATOM     21  H   UNL     1       1.940   9.705  19.070  0.00  0.00    +0.000 HD
ATOM     22  H   UNL     1       0.283  11.323  19.253  0.00  0.00    +0.000 HD
BRANCH  20  23
ATOM     23  C   UNL     1      -0.810  11.732  20.983  0.00  0.00    +0.000 A 
ATOM     24  C   UNL     1      -0.676  11.886  22.368  0.00  0.00    +0.000 A 
ATOM     25  C   UNL     1      -1.753  12.303  23.153  0.00  0.00    +0.000 A 
ATOM     26  C   UNL     1      -2.990  12.587  22.564  0.00  0.00    +0.000 A 
ATOM     27  C   UNL     1      -3.094  12.534  21.164  0.00  0.00    +0.000 A 
ATOM     28  C   UNL     1      -2.003  12.123  20.373  0.00  0.00    +0.000 A 
BRANCH  26  29
ATOM     29  C   UNL     1      -4.178  12.895  23.449  0.00  0.00    +0.000 C 
ATOM     30  F   UNL     1      -4.155  12.211  24.629  0.00  0.00    +0.000 F 
ATOM     31  F   UNL     1      -4.256  14.213  23.789  0.00  0.00    +0.000 F 
ATOM     32  F   UNL     1      -5.370  12.587  22.870  0.00  0.00    +0.000 F 
ENDBRANCH  26  29
ENDBRANCH  20  23
ENDBRANCH   6  17
TORSDOF 3
ENDMDL
