MODEL 1
REMARK VINA RESULT:      -8.1      0.000      0.000
REMARK  Name = 
REMARK  7 active torsions:
REMARK  status: ('A' for Active; 'I' for Inactive)
REMARK    1  A    between atoms: C_2  and  C_18
REMARK    2  A    between atoms: N_3  and  O_4
REMARK    3  A    between atoms: O_4  and  C_5
REMARK    4  A    between atoms: C_5  and  C_7
REMARK    5  A    between atoms: C_7  and  O_8
REMARK    6  A    between atoms: O_8  and  C_9
REMARK    7  A    between atoms: C_12  and  N_13
REMARK                            x       y       z     vdW  Elec       q    Type
REMARK                         _______ _______ _______ _____ _____    ______ ____
ROOT
ATOM      1  C   UNL     1       7.356   4.886  17.795  0.00  0.00    +0.000 C 
ATOM      2  O   UNL     1       8.307   4.155  17.539  0.00  0.00    +0.000 OA
ENDROOT
BRANCH   1   3
ATOM      3  O   UNL     1       6.686   4.947  18.990  0.00  0.00    +0.000 OA
BRANCH   3   6
ATOM      4  N   UNL     1       4.375   5.882  19.687  0.00  0.00    +0.000 N 
ATOM      5  C   UNL     1       4.489   4.583  19.244  0.00  0.00    +0.000 C 
ATOM      6  N   UNL     1       5.623   4.016  18.958  0.00  0.00    +0.000 NA
ATOM      7  H   UNL     1       5.254   6.236  20.056  0.00  0.00    +0.000 HD
ATOM      8  H   UNL     1       3.609   6.054  20.330  0.00  0.00    +0.000 HD
BRANCH   5   9
ATOM      9  C   UNL     1       3.245   3.782  19.073  0.00  0.00    +0.000 A 
ATOM     10  C   UNL     1       2.192   3.890  19.985  0.00  0.00    +0.000 A 
ATOM     11  C   UNL     1       1.032   3.145  19.786  0.00  0.00    +0.000 A 
ATOM     12  C   UNL     1       0.967   2.314  18.677  0.00  0.00    +0.000 A 
ATOM     13  N   UNL     1       1.963   2.193  17.772  0.00  0.00    +0.000 NA
ATOM     14  C   UNL     1       3.078   2.938  17.982  0.00  0.00    +0.000 A 
ENDBRANCH   5   9
ENDBRANCH   3   6
ENDBRANCH   1   3
BRANCH   1  15
ATOM     15  C   UNL     1       6.714   5.835  16.799  0.00  0.00    +0.000 C 
BRANCH  15  16
ATOM     16  O   UNL     1       7.441   5.886  15.581  0.00  0.00    +0.000 OA
BRANCH  16  17
ATOM     17  C   UNL     1       6.967   5.103  14.562  0.00  0.00    +0.000 A 
ATOM     18  C   UNL     1       5.663   4.633  14.744  0.00  0.00    +0.000 A 
ATOM     19  C   UNL     1       5.052   3.823  13.780  0.00  0.00    +0.000 A 
ATOM     20  C   UNL     1       5.750   3.496  12.615  0.00  0.00    +0.000 A 
ATOM     21  C   UNL     1       7.048   3.980  12.409  0.00  0.00    +0.000 A 
ATOM     22  C   UNL     1       7.654   4.785  13.387  0.00  0.00    +0.000 A 
BRANCH  20  23
ATOM     23  N   UNL     1       5.116   2.645  11.598  0.00  0.00    +0.000 N 
ATOM     24  O   UNL     1       4.035   3.024  11.126  0.00  0.00    +0.000 OA
ATOM     25  O   UNL     1       5.696   1.600  11.277  0.00  0.00    +0.000 OA
ENDBRANCH  20  23
ENDBRANCH  16  17
ENDBRANCH  15  16
ENDBRANCH   1  15
TORSDOF 7
ENDMDL
MODEL 2
REMARK VINA RESULT:      -7.9      0.665      1.579
REMARK  Name = 
REMARK  7 active torsions:
REMARK  status: ('A' for Active; 'I' for Inactive)
REMARK    1  A    between atoms: C_2  and  C_18
REMARK    2  A    between atoms: N_3  and  O_4
REMARK    3  A    between atoms: O_4  and  C_5
REMARK    4  A    between atoms: C_5  and  C_7
REMARK    5  A    between atoms: C_7  and  O_8
REMARK    6  A    between atoms: O_8  and  C_9
REMARK    7  A    between atoms: C_12  and  N_13
REMARK                            x       y       z     vdW  Elec       q    Type
REMARK                         _______ _______ _______ _____ _____    ______ ____
ROOT
ATOM      1  C   UNL     1       7.543   4.976  17.870  0.00  0.00    +0.000 C 
ATOM      2  O   UNL     1       8.393   4.141  17.579  0.00  0.00    +0.000 OA
ENDROOT
BRANCH   1   3
ATOM      3  O   UNL     1       6.874   5.060  19.066  0.00  0.00    +0.000 OA
BRANCH   3   6
ATOM      4  N   UNL     1       4.476   5.892  19.569  0.00  0.00    +0.000 N 
ATOM      5  C   UNL     1       4.699   4.565  19.277  0.00  0.00    +0.000 C 
ATOM      6  N   UNL     1       5.880   4.056  19.098  0.00  0.00    +0.000 NA
ATOM      7  H   UNL     1       5.311   6.347  19.928  0.00  0.00    +0.000 HD
ATOM      8  H   UNL     1       3.672   6.076  20.160  0.00  0.00    +0.000 HD
BRANCH   5   9
ATOM      9  C   UNL     1       3.522   3.660  19.151  0.00  0.00    +0.000 A 
ATOM     10  C   UNL     1       3.190   3.082  17.923  0.00  0.00    +0.000 A 
ATOM     11  C   UNL     1       2.096   2.223  17.842  0.00  0.00    +0.000 A 
ATOM     12  C   UNL     1       1.371   1.972  18.997  0.00  0.00    +0.000 A 
ATOM     13  N   UNL     1       1.670   2.507  20.201  0.00  0.00    +0.000 NA
ATOM     14  C   UNL     1       2.748   3.332  20.257  0.00  0.00    +0.000 A 
ENDBRANCH   5   9
ENDBRANCH   3   6
ENDBRANCH   1   3
BRANCH   1  15
ATOM     15  C   UNL     1       7.038   6.051  16.924  0.00  0.00    +0.000 C 
BRANCH  15  16
ATOM     16  O   UNL     1       7.616   5.926  15.635  0.00  0.00    +0.000 OA
BRANCH  16  17
ATOM     17  C   UNL     1       6.934   5.145  14.740  0.00  0.00    +0.000 A 
ATOM     18  C   UNL     1       7.601   4.922  13.531  0.00  0.00    +0.000 A 
ATOM     19  C   UNL     1       7.021   4.139  12.527  0.00  0.00    +0.000 A 
ATOM     20  C   UNL     1       5.768   3.561  12.745  0.00  0.00    +0.000 A 
ATOM     21  C   UNL     1       5.100   3.756  13.960  0.00  0.00    +0.000 A 
ATOM     22  C   UNL     1       5.688   4.550  14.957  0.00  0.00    +0.000 A 
BRANCH  20  23
ATOM     23  N   UNL     1       5.152   2.738  11.694  0.00  0.00    +0.000 N 
ATOM     24  O   UNL     1       5.747   1.709  11.348  0.00  0.00    +0.000 OA
ATOM     25  O   UNL     1       4.077   3.125  11.214  0.00  0.00    +0.000 OA
ENDBRANCH  20  23
ENDBRANCH  16  17
ENDBRANCH  15  16
ENDBRANCH   1  15
TORSDOF 7
ENDMDL
MODEL 3
REMARK VINA RESULT:      -7.8      1.338      1.529
REMARK  Name = 
REMARK  7 active torsions:
REMARK  status: ('A' for Active; 'I' for Inactive)
REMARK    1  A    between atoms: C_2  and  C_18
REMARK    2  A    between atoms: N_3  and  O_4
REMARK    3  A    between atoms: O_4  and  C_5
REMARK    4  A    between atoms: C_5  and  C_7
REMARK    5  A    between atoms: C_7  and  O_8
REMARK    6  A    between atoms: O_8  and  C_9
REMARK    7  A    between atoms: C_12  and  N_13
REMARK                            x       y       z     vdW  Elec       q    Type
REMARK                         _______ _______ _______ _____ _____    ______ ____
ROOT
ATOM      1  C   UNL     1       6.549   7.070  17.192  0.00  0.00    +0.000 C 
ATOM      2  O   UNL     1       7.298   7.940  17.623  0.00  0.00    +0.000 OA
ENDROOT
BRANCH   1   3
ATOM      3  O   UNL     1       5.179   7.137  17.144  0.00  0.00    +0.000 OA
BRANCH   3   6
ATOM      4  N   UNL     1       2.873   7.190  18.316  0.00  0.00    +0.000 N 
ATOM      5  C   UNL     1       3.464   5.984  18.009  0.00  0.00    +0.000 C 
ATOM      6  N   UNL     1       4.653   5.875  17.499  0.00  0.00    +0.000 NA
ATOM      7  H   UNL     1       3.557   7.938  18.398  0.00  0.00    +0.000 HD
ATOM      8  H   UNL     1       2.247   7.174  19.115  0.00  0.00    +0.000 HD
BRANCH   5   9
ATOM      9  C   UNL     1       2.695   4.734  18.265  0.00  0.00    +0.000 A 
ATOM     10  C   UNL     1       1.817   4.641  19.348  0.00  0.00    +0.000 A 
ATOM     11  C   UNL     1       1.096   3.467  19.548  0.00  0.00    +0.000 A 
ATOM     12  C   UNL     1       1.279   2.422  18.654  0.00  0.00    +0.000 A 
ATOM     13  N   UNL     1       2.112   2.482  17.592  0.00  0.00    +0.000 NA
ATOM     14  C   UNL     1       2.796   3.642  17.412  0.00  0.00    +0.000 A 
ENDBRANCH   5   9
ENDBRANCH   3   6
ENDBRANCH   1   3
BRANCH   1  15
ATOM     15  C   UNL     1       7.013   5.721  16.673  0.00  0.00    +0.000 C 
BRANCH  15  16
ATOM     16  O   UNL     1       7.645   5.836  15.408  0.00  0.00    +0.000 OA
BRANCH  16  17
ATOM     17  C   UNL     1       7.128   5.061  14.403  0.00  0.00    +0.000 A 
ATOM     18  C   UNL     1       5.982   4.339  14.752  0.00  0.00    +0.000 A 
ATOM     19  C   UNL     1       5.348   3.509  13.822  0.00  0.00    +0.000 A 
ATOM     20  C   UNL     1       5.859   3.414  12.525  0.00  0.00    +0.000 A 
ATOM     21  C   UNL     1       6.992   4.150  12.155  0.00  0.00    +0.000 A 
ATOM     22  C   UNL     1       7.624   4.974  13.099  0.00  0.00    +0.000 A 
BRANCH  20  23
ATOM     23  N   UNL     1       5.199   2.543  11.542  0.00  0.00    +0.000 N 
ATOM     24  O   UNL     1       4.120   2.924  11.069  0.00  0.00    +0.000 OA
ATOM     25  O   UNL     1       5.758   1.477  11.249  0.00  0.00    +0.000 OA
ENDBRANCH  20  23
ENDBRANCH  16  17
ENDBRANCH  15  16
ENDBRANCH   1  15
TORSDOF 7
ENDMDL
MODEL 4
REMARK VINA RESULT:      -7.7      1.304      1.651
REMARK  Name = 
REMARK  7 active torsions:
REMARK  status: ('A' for Active; 'I' for Inactive)
REMARK    1  A    between atoms: C_2  and  C_18
REMARK    2  A    between atoms: N_3  and  O_4
REMARK    3  A    between atoms: O_4  and  C_5
REMARK    4  A    between atoms: C_5  and  C_7
REMARK    5  A    between atoms: C_7  and  O_8
REMARK    6  A    between atoms: O_8  and  C_9
REMARK    7  A    between atoms: C_12  and  N_13
REMARK                            x       y       z     vdW  Elec       q    Type
REMARK                         _______ _______ _______ _____ _____    ______ ____
ROOT
ATOM      1  C   UNL     1       6.982   5.623  17.979  0.00  0.00    +0.000 C 
ATOM      2  O   UNL     1       7.636   6.192  18.847  0.00  0.00    +0.000 OA
ENDROOT
BRANCH   1   3
ATOM      3  O   UNL     1       6.420   4.375  18.082  0.00  0.00    +0.000 OA
BRANCH   3   6
ATOM      4  N   UNL     1       4.485   2.706  17.674  0.00  0.00    +0.000 N 
ATOM      5  C   UNL     1       4.478   3.513  18.790  0.00  0.00    +0.000 C 
ATOM      6  N   UNL     1       5.366   4.432  19.020  0.00  0.00    +0.000 NA
ATOM      7  H   UNL     1       5.049   3.100  16.925  0.00  0.00    +0.000 HD
ATOM      8  H   UNL     1       3.570   2.424  17.337  0.00  0.00    +0.000 HD
BRANCH   5   9
ATOM      9  C   UNL     1       3.396   3.318  19.797  0.00  0.00    +0.000 A 
ATOM     10  C   UNL     1       2.121   3.850  19.592  0.00  0.00    +0.000 A 
ATOM     11  C   UNL     1       1.125   3.631  20.541  0.00  0.00    +0.000 A 
ATOM     12  C   UNL     1       1.442   2.884  21.665  0.00  0.00    +0.000 A 
ATOM     13  N   UNL     1       2.661   2.347  21.890  0.00  0.00    +0.000 NA
ATOM     14  C   UNL     1       3.612   2.565  20.944  0.00  0.00    +0.000 A 
ENDBRANCH   5   9
ENDBRANCH   3   6
ENDBRANCH   1   3
BRANCH   1  15
ATOM     15  C   UNL     1       6.716   6.192  16.597  0.00  0.00    +0.000 C 
BRANCH  15  16
ATOM     16  O   UNL     1       7.650   5.710  15.643  0.00  0.00    +0.000 OA
BRANCH  16  17
ATOM     17  C   UNL     1       7.130   4.997  14.596  0.00  0.00    +0.000 A 
ATOM     18  C   UNL     1       5.949   4.307  14.887  0.00  0.00    +0.000 A 
ATOM     19  C   UNL     1       5.307   3.540  13.909  0.00  0.00    +0.000 A 
ATOM     20  C   UNL     1       5.846   3.479  12.621  0.00  0.00    +0.000 A 
ATOM     21  C   UNL     1       7.014   4.185  12.309  0.00  0.00    +0.000 A 
ATOM     22  C   UNL     1       7.654   4.946  13.301  0.00  0.00    +0.000 A 
BRANCH  20  23
ATOM     23  N   UNL     1       5.178   2.674  11.588  0.00  0.00    +0.000 N 
ATOM     24  O   UNL     1       4.127   3.117  11.106  0.00  0.00    +0.000 OA
ATOM     25  O   UNL     1       5.704   1.601  11.264  0.00  0.00    +0.000 OA
ENDBRANCH  20  23
ENDBRANCH  16  17
ENDBRANCH  15  16
ENDBRANCH   1  15
TORSDOF 7
ENDMDL
MODEL 5
REMARK VINA RESULT:      -7.7      1.398      1.802
REMARK  Name = 
REMARK  7 active torsions:
REMARK  status: ('A' for Active; 'I' for Inactive)
REMARK    1  A    between atoms: C_2  and  C_18
REMARK    2  A    between atoms: N_3  and  O_4
REMARK    3  A    between atoms: O_4  and  C_5
REMARK    4  A    between atoms: C_5  and  C_7
REMARK    5  A    between atoms: C_7  and  O_8
REMARK    6  A    between atoms: O_8  and  C_9
REMARK    7  A    between atoms: C_12  and  N_13
REMARK                            x       y       z     vdW  Elec       q    Type
REMARK                         _______ _______ _______ _____ _____    ______ ____
ROOT
ATOM      1  C   UNL     1       6.662   7.232  17.119  0.00  0.00    +0.000 C 
ATOM      2  O   UNL     1       7.474   8.149  17.185  0.00  0.00    +0.000 OA
ENDROOT
BRANCH   1   3
ATOM      3  O   UNL     1       5.348   7.291  17.509  0.00  0.00    +0.000 OA
BRANCH   3   6
ATOM      4  N   UNL     1       2.836   7.039  18.080  0.00  0.00    +0.000 N 
ATOM      5  C   UNL     1       3.676   5.951  18.164  0.00  0.00    +0.000 C 
ATOM      6  N   UNL     1       4.959   6.015  17.977  0.00  0.00    +0.000 NA
ATOM      7  H   UNL     1       3.342   7.917  18.167  0.00  0.00    +0.000 HD
ATOM      8  H   UNL     1       2.032   7.014  18.698  0.00  0.00    +0.000 HD
BRANCH   5   9
ATOM      9  C   UNL     1       3.081   4.621  18.479  0.00  0.00    +0.000 A 
ATOM     10  C   UNL     1       1.809   4.277  18.015  0.00  0.00    +0.000 A 
ATOM     11  C   UNL     1       1.290   3.017  18.307  0.00  0.00    +0.000 A 
ATOM     12  C   UNL     1       2.065   2.145  19.057  0.00  0.00    +0.000 A 
ATOM     13  N   UNL     1       3.301   2.443  19.512  0.00  0.00    +0.000 NA
ATOM     14  C   UNL     1       3.790   3.672  19.204  0.00  0.00    +0.000 A 
ENDBRANCH   5   9
ENDBRANCH   3   6
ENDBRANCH   1   3
BRANCH   1  15
ATOM     15  C   UNL     1       6.988   5.833  16.630  0.00  0.00    +0.000 C 
BRANCH  15  16
ATOM     16  O   UNL     1       7.666   5.859  15.383  0.00  0.00    +0.000 OA
BRANCH  16  17
ATOM     17  C   UNL     1       7.132   5.081  14.390  0.00  0.00    +0.000 A 
ATOM     18  C   UNL     1       5.922   4.461  14.719  0.00  0.00    +0.000 A 
ATOM     19  C   UNL     1       5.264   3.640  13.798  0.00  0.00    +0.000 A 
ATOM     20  C   UNL     1       5.815   3.453  12.528  0.00  0.00    +0.000 A 
ATOM     21  C   UNL     1       7.013   4.087  12.176  0.00  0.00    +0.000 A 
ATOM     22  C   UNL     1       7.669   4.903  13.111  0.00  0.00    +0.000 A 
BRANCH  20  23
ATOM     23  N   UNL     1       5.130   2.591  11.554  0.00  0.00    +0.000 N 
ATOM     24  O   UNL     1       5.658   1.506  11.276  0.00  0.00    +0.000 OA
ATOM     25  O   UNL     1       4.068   3.002  11.067  0.00  0.00    +0.000 OA
ENDBRANCH  20  23
ENDBRANCH  16  17
ENDBRANCH  15  16
ENDBRANCH   1  15
TORSDOF 7
ENDMDL
MODEL 6
REMARK VINA RESULT:      -7.6      1.104      1.571
REMARK  Name = 
REMARK  7 active torsions:
REMARK  status: ('A' for Active; 'I' for Inactive)
REMARK    1  A    between atoms: C_2  and  C_18
REMARK    2  A    between atoms: N_3  and  O_4
REMARK    3  A    between atoms: O_4  and  C_5
REMARK    4  A    between atoms: C_5  and  C_7
REMARK    5  A    between atoms: C_7  and  O_8
REMARK    6  A    between atoms: O_8  and  C_9
REMARK    7  A    between atoms: C_12  and  N_13
REMARK                            x       y       z     vdW  Elec       q    Type
REMARK                         _______ _______ _______ _____ _____    ______ ____
ROOT
ATOM      1  C   UNL     1       7.152   5.523  18.032  0.00  0.00    +0.000 C 
ATOM      2  O   UNL     1       7.995   6.113  18.699  0.00  0.00    +0.000 OA
ENDROOT
BRANCH   1   3
ATOM      3  O   UNL     1       6.698   4.247  18.253  0.00  0.00    +0.000 OA
BRANCH   3   6
ATOM      4  N   UNL     1       4.713   2.799  17.442  0.00  0.00    +0.000 N 
ATOM      5  C   UNL     1       4.618   3.502  18.622  0.00  0.00    +0.000 C 
ATOM      6  N   UNL     1       5.535   4.315  19.052  0.00  0.00    +0.000 NA
ATOM      7  H   UNL     1       5.401   3.205  16.813  0.00  0.00    +0.000 HD
ATOM      8  H   UNL     1       3.833   2.630  16.967  0.00  0.00    +0.000 HD
BRANCH   5   9
ATOM      9  C   UNL     1       3.399   3.317  19.460  0.00  0.00    +0.000 A 
ATOM     10  C   UNL     1       3.489   2.787  20.749  0.00  0.00    +0.000 A 
ATOM     11  C   UNL     1       2.335   2.648  21.516  0.00  0.00    +0.000 A 
ATOM     12  C   UNL     1       1.126   3.043  20.962  0.00  0.00    +0.000 A 
ATOM     13  N   UNL     1       1.005   3.568  19.723  0.00  0.00    +0.000 NA
ATOM     14  C   UNL     1       2.147   3.705  19.000  0.00  0.00    +0.000 A 
ENDBRANCH   5   9
ENDBRANCH   3   6
ENDBRANCH   1   3
BRANCH   1  15
ATOM     15  C   UNL     1       6.487   6.094  16.792  0.00  0.00    +0.000 C 
BRANCH  15  16
ATOM     16  O   UNL     1       7.335   6.010  15.657  0.00  0.00    +0.000 OA
BRANCH  16  17
ATOM     17  C   UNL     1       6.897   5.210  14.635  0.00  0.00    +0.000 A 
ATOM     18  C   UNL     1       5.601   4.712  14.797  0.00  0.00    +0.000 A 
ATOM     19  C   UNL     1       5.025   3.883  13.828  0.00  0.00    +0.000 A 
ATOM     20  C   UNL     1       5.752   3.564  12.678  0.00  0.00    +0.000 A 
ATOM     21  C   UNL     1       7.042   4.075  12.492  0.00  0.00    +0.000 A 
ATOM     22  C   UNL     1       7.612   4.900  13.475  0.00  0.00    +0.000 A 
BRANCH  20  23
ATOM     23  N   UNL     1       5.155   2.693  11.656  0.00  0.00    +0.000 N 
ATOM     24  O   UNL     1       5.760   1.653  11.363  0.00  0.00    +0.000 OA
ATOM     25  O   UNL     1       4.085   3.052  11.145  0.00  0.00    +0.000 OA
ENDBRANCH  20  23
ENDBRANCH  16  17
ENDBRANCH  15  16
ENDBRANCH   1  15
TORSDOF 7
ENDMDL
MODEL 7
REMARK VINA RESULT:      -7.4      1.296      1.699
REMARK  Name = 
REMARK  7 active torsions:
REMARK  status: ('A' for Active; 'I' for Inactive)
REMARK    1  A    between atoms: C_2  and  C_18
REMARK    2  A    between atoms: N_3  and  O_4
REMARK    3  A    between atoms: O_4  and  C_5
REMARK    4  A    between atoms: C_5  and  C_7
REMARK    5  A    between atoms: C_7  and  O_8
REMARK    6  A    between atoms: O_8  and  C_9
REMARK    7  A    between atoms: C_12  and  N_13
REMARK                            x       y       z     vdW  Elec       q    Type
REMARK                         _______ _______ _______ _____ _____    ______ ____
ROOT
ATOM      1  C   UNL     1       7.550   5.721  18.359  0.00  0.00    +0.000 C 
ATOM      2  O   UNL     1       7.867   6.903  18.445  0.00  0.00    +0.000 OA
ENDROOT
BRANCH   1   3
ATOM      3  O   UNL     1       7.049   4.946  19.374  0.00  0.00    +0.000 OA
BRANCH   3   6
ATOM      4  N   UNL     1       5.393   2.980  19.079  0.00  0.00    +0.000 N 
ATOM      5  C   UNL     1       4.933   4.217  19.471  0.00  0.00    +0.000 C 
ATOM      6  N   UNL     1       5.687   5.271  19.558  0.00  0.00    +0.000 NA
ATOM      7  H   UNL     1       6.276   3.044  18.580  0.00  0.00    +0.000 HD
ATOM      8  H   UNL     1       4.723   2.410  18.572  0.00  0.00    +0.000 HD
BRANCH   5   9
ATOM      9  C   UNL     1       3.492   4.357  19.824  0.00  0.00    +0.000 A 
ATOM     10  C   UNL     1       2.713   3.235  20.118  0.00  0.00    +0.000 A 
ATOM     11  C   UNL     1       1.375   3.401  20.466  0.00  0.00    +0.000 A 
ATOM     12  C   UNL     1       0.861   4.688  20.508  0.00  0.00    +0.000 A 
ATOM     13  N   UNL     1       1.588   5.795  20.239  0.00  0.00    +0.000 NA
ATOM     14  C   UNL     1       2.893   5.608  19.913  0.00  0.00    +0.000 A 
ENDBRANCH   5   9
ENDBRANCH   3   6
ENDBRANCH   1   3
BRANCH   1  15
ATOM     15  C   UNL     1       7.706   4.883  17.103  0.00  0.00    +0.000 C 
BRANCH  15  16
ATOM     16  O   UNL     1       7.518   5.657  15.929  0.00  0.00    +0.000 OA
BRANCH  16  17
ATOM     17  C   UNL     1       7.013   4.993  14.842  0.00  0.00    +0.000 A 
ATOM     18  C   UNL     1       5.779   4.373  15.058  0.00  0.00    +0.000 A 
ATOM     19  C   UNL     1       5.146   3.661  14.033  0.00  0.00    +0.000 A 
ATOM     20  C   UNL     1       5.750   3.586  12.775  0.00  0.00    +0.000 A 
ATOM     21  C   UNL     1       6.974   4.223  12.539  0.00  0.00    +0.000 A 
ATOM     22  C   UNL     1       7.603   4.928  13.577  0.00  0.00    +0.000 A 
BRANCH  20  23
ATOM     23  N   UNL     1       5.092   2.839  11.693  0.00  0.00    +0.000 N 
ATOM     24  O   UNL     1       4.074   3.334  11.191  0.00  0.00    +0.000 OA
ATOM     25  O   UNL     1       5.591   1.758  11.352  0.00  0.00    +0.000 OA
ENDBRANCH  20  23
ENDBRANCH  16  17
ENDBRANCH  15  16
ENDBRANCH   1  15
TORSDOF 7
ENDMDL
MODEL 8
REMARK VINA RESULT:      -7.3      4.124      7.387
REMARK  Name = 
REMARK  7 active torsions:
REMARK  status: ('A' for Active; 'I' for Inactive)
REMARK    1  A    between atoms: C_2  and  C_18
REMARK    2  A    between atoms: N_3  and  O_4
REMARK    3  A    between atoms: O_4  and  C_5
REMARK    4  A    between atoms: C_5  and  C_7
REMARK    5  A    between atoms: C_7  and  O_8
REMARK    6  A    between atoms: O_8  and  C_9
REMARK    7  A    between atoms: C_12  and  N_13
REMARK                            x       y       z     vdW  Elec       q    Type
REMARK                         _______ _______ _______ _____ _____    ______ ____
ROOT
ATOM      1  C   UNL     1       2.550   3.162  19.736  0.00  0.00    +0.000 C 
ATOM      2  O   UNL     1       2.013   2.063  19.833  0.00  0.00    +0.000 OA
ENDROOT
BRANCH   1   3
ATOM      3  O   UNL     1       3.899   3.394  19.657  0.00  0.00    +0.000 OA
BRANCH   3   6
ATOM      4  N   UNL     1       5.651   5.233  19.162  0.00  0.00    +0.000 N 
ATOM      5  C   UNL     1       5.190   4.428  18.144  0.00  0.00    +0.000 C 
ATOM      6  N   UNL     1       4.251   3.543  18.296  0.00  0.00    +0.000 NA
ATOM      7  H   UNL     1       4.992   5.284  19.934  0.00  0.00    +0.000 HD
ATOM      8  H   UNL     1       5.959   6.157  18.877  0.00  0.00    +0.000 HD
BRANCH   5   9
ATOM      9  C   UNL     1       5.804   4.571  16.794  0.00  0.00    +0.000 A 
ATOM     10  C   UNL     1       5.188   4.026  15.665  0.00  0.00    +0.000 A 
ATOM     11  C   UNL     1       5.775   4.197  14.414  0.00  0.00    +0.000 A 
ATOM     12  C   UNL     1       6.963   4.909  14.337  0.00  0.00    +0.000 A 
ATOM     13  N   UNL     1       7.579   5.457  15.407  0.00  0.00    +0.000 NA
ATOM     14  C   UNL     1       6.981   5.287  16.614  0.00  0.00    +0.000 A 
ENDBRANCH   5   9
ENDBRANCH   3   6
ENDBRANCH   1   3
BRANCH   1  15
ATOM     15  C   UNL     1       1.801   4.482  19.736  0.00  0.00    +0.000 C 
BRANCH  15  16
ATOM     16  O   UNL     1       2.630   5.554  20.160  0.00  0.00    +0.000 OA
BRANCH  16  17
ATOM     17  C   UNL     1       2.290   6.798  19.698  0.00  0.00    +0.000 A 
ATOM     18  C   UNL     1       1.597   7.593  20.616  0.00  0.00    +0.000 A 
ATOM     19  C   UNL     1       1.190   8.888  20.278  0.00  0.00    +0.000 A 
ATOM     20  C   UNL     1       1.497   9.397  19.014  0.00  0.00    +0.000 A 
ATOM     21  C   UNL     1       2.213   8.621  18.094  0.00  0.00    +0.000 A 
ATOM     22  C   UNL     1       2.609   7.319  18.441  0.00  0.00    +0.000 A 
BRANCH  20  23
ATOM     23  N   UNL     1       1.072  10.757  18.651  0.00  0.00    +0.000 N 
ATOM     24  O   UNL     1      -0.133  11.024  18.738  0.00  0.00    +0.000 OA
ATOM     25  O   UNL     1       1.944  11.552  18.276  0.00  0.00    +0.000 OA
ENDBRANCH  20  23
ENDBRANCH  16  17
ENDBRANCH  15  16
ENDBRANCH   1  15
TORSDOF 7
ENDMDL
MODEL 9
REMARK VINA RESULT:      -7.3      3.456      6.677
REMARK  Name = 
REMARK  7 active torsions:
REMARK  status: ('A' for Active; 'I' for Inactive)
REMARK    1  A    between atoms: C_2  and  C_18
REMARK    2  A    between atoms: N_3  and  O_4
REMARK    3  A    between atoms: O_4  and  C_5
REMARK    4  A    between atoms: C_5  and  C_7
REMARK    5  A    between atoms: C_7  and  O_8
REMARK    6  A    between atoms: O_8  and  C_9
REMARK    7  A    between atoms: C_12  and  N_13
REMARK                            x       y       z     vdW  Elec       q    Type
REMARK                         _______ _______ _______ _____ _____    ______ ____
ROOT
ATOM      1  C   UNL     1       4.552   2.342  20.316  0.00  0.00    +0.000 C 
ATOM      2  O   UNL     1       4.826   1.583  21.240  0.00  0.00    +0.000 OA
ENDROOT
BRANCH   1   3
ATOM      3  O   UNL     1       5.296   3.423  19.914  0.00  0.00    +0.000 OA
BRANCH   3   6
ATOM      4  N   UNL     1       5.914   5.673  18.796  0.00  0.00    +0.000 N 
ATOM      5  C   UNL     1       5.810   4.530  18.035  0.00  0.00    +0.000 C 
ATOM      6  N   UNL     1       5.423   3.384  18.507  0.00  0.00    +0.000 NA
ATOM      7  H   UNL     1       5.375   5.607  19.655  0.00  0.00    +0.000 HD
ATOM      8  H   UNL     1       5.719   6.539  18.304  0.00  0.00    +0.000 HD
BRANCH   5   9
ATOM      9  C   UNL     1       6.170   4.606  16.591  0.00  0.00    +0.000 A 
ATOM     10  C   UNL     1       5.363   4.009  15.619  0.00  0.00    +0.000 A 
ATOM     11  C   UNL     1       5.714   4.117  14.275  0.00  0.00    +0.000 A 
ATOM     12  C   UNL     1       6.864   4.821  13.951  0.00  0.00    +0.000 A 
ATOM     13  N   UNL     1       7.661   5.418  14.864  0.00  0.00    +0.000 NA
ATOM     14  C   UNL     1       7.291   5.308  16.167  0.00  0.00    +0.000 A 
ENDBRANCH   5   9
ENDBRANCH   3   6
ENDBRANCH   1   3
BRANCH   1  15
ATOM     15  C   UNL     1       3.294   2.244  19.472  0.00  0.00    +0.000 C 
BRANCH  15  16
ATOM     16  O   UNL     1       2.249   3.050  19.994  0.00  0.00    +0.000 OA
BRANCH  16  17
ATOM     17  C   UNL     1       2.190   4.337  19.529  0.00  0.00    +0.000 A 
ATOM     18  C   UNL     1       2.098   5.315  20.525  0.00  0.00    +0.000 A 
ATOM     19  C   UNL     1       2.032   6.672  20.193  0.00  0.00    +0.000 A 
ATOM     20  C   UNL     1       2.076   7.053  18.849  0.00  0.00    +0.000 A 
ATOM     21  C   UNL     1       2.192   6.086  17.843  0.00  0.00    +0.000 A 
ATOM     22  C   UNL     1       2.250   4.726  18.188  0.00  0.00    +0.000 A 
BRANCH  20  23
ATOM     23  N   UNL     1       2.007   8.477  18.491  0.00  0.00    +0.000 N 
ATOM     24  O   UNL     1       2.370   8.802  17.353  0.00  0.00    +0.000 OA
ATOM     25  O   UNL     1       1.594   9.268  19.350  0.00  0.00    +0.000 OA
ENDBRANCH  20  23
ENDBRANCH  16  17
ENDBRANCH  15  16
ENDBRANCH   1  15
TORSDOF 7
ENDMDL
