MODEL 1
REMARK VINA RESULT:      -7.6      0.000      0.000
REMARK  Name = 
REMARK  6 active torsions:
REMARK  status: ('A' for Active; 'I' for Inactive)
REMARK    1  A    between atoms: C_1  and  C_2
REMARK    2  A    between atoms: N_8  and  C_9
REMARK    3  A    between atoms: C_9  and  C_10
REMARK    4  A    between atoms: N_14  and  C_15
REMARK    5  A    between atoms: C_15  and  C_16
REMARK    6  A    between atoms: C_15  and  C_17
REMARK                            x       y       z     vdW  Elec       q    Type
REMARK                         _______ _______ _______ _____ _____    ______ ____
ROOT
ATOM      1  C   UNL     1       5.746   3.698  13.482  0.00  0.00    +0.000 C 
ATOM      2  C   UNL     1       6.376   4.507  14.553  0.00  0.00    +0.000 A 
ATOM      3  N   UNL     1       7.442   5.280  14.283  0.00  0.00    +0.000 NA
ATOM      4  N   UNL     1       7.736   5.857  15.461  0.00  0.00    +0.000 N 
ATOM      5  C   UNL     1       6.896   5.469  16.463  0.00  0.00    +0.000 A 
ATOM      6  C   UNL     1       5.999   4.595  15.919  0.00  0.00    +0.000 A 
ATOM      7  C   UNL     1       4.914   3.915  16.666  0.00  0.00    +0.000 C 
ATOM      8  N   UNL     1       4.700   4.456  18.031  0.00  0.00    +0.000 NA
ATOM      9  C   UNL     1       5.798   5.211  18.674  0.00  0.00    +0.000 C 
ATOM     10  C   UNL     1       6.921   5.911  17.859  0.00  0.00    +0.000 C 
ATOM     11  H   UNL     1       8.517   6.502  15.499  0.00  0.00    +0.000 HD
ENDROOT
BRANCH   8  12
ATOM     12  C   UNL     1       3.383   5.079  18.205  0.00  0.00    +0.000 C 
BRANCH  12  13
ATOM     13  C   UNL     1       2.271   4.084  18.388  0.00  0.00    +0.000 A 
ATOM     14  N   UNL     1       1.335   3.825  17.491  0.00  0.00    +0.000 NA
ATOM     15  N   UNL     1       0.461   2.910  18.021  0.00  0.00    +0.000 NA
ATOM     16  C   UNL     1       0.872   2.630  19.233  0.00  0.00    +0.000 A 
ATOM     17  N   UNL     1       2.026   3.313  19.503  0.00  0.00    +0.000 N 
BRANCH  17  18
ATOM     18  C   UNL     1       2.820   3.179  20.715  0.00  0.00    +0.000 C 
ATOM     19  C   UNL     1       1.987   2.730  21.922  0.00  0.00    +0.000 C 
ATOM     20  C   UNL     1       3.999   2.225  20.507  0.00  0.00    +0.000 C 
ENDBRANCH  17  18
ENDBRANCH  12  13
ENDBRANCH   8  12
TORSDOF 3
ENDMDL
MODEL 2
REMARK VINA RESULT:      -7.6      1.385      1.843
REMARK  Name = 
REMARK  6 active torsions:
REMARK  status: ('A' for Active; 'I' for Inactive)
REMARK    1  A    between atoms: C_1  and  C_2
REMARK    2  A    between atoms: N_8  and  C_9
REMARK    3  A    between atoms: C_9  and  C_10
REMARK    4  A    between atoms: N_14  and  C_15
REMARK    5  A    between atoms: C_15  and  C_16
REMARK    6  A    between atoms: C_15  and  C_17
REMARK                            x       y       z     vdW  Elec       q    Type
REMARK                         _______ _______ _______ _____ _____    ______ ____
ROOT
ATOM      1  C   UNL     1       6.270   3.748  13.340  0.00  0.00    +0.000 C 
ATOM      2  C   UNL     1       6.595   4.557  14.539  0.00  0.00    +0.000 A 
ATOM      3  N   UNL     1       7.604   5.445  14.508  0.00  0.00    +0.000 NA
ATOM      4  N   UNL     1       7.606   5.984  15.740  0.00  0.00    +0.000 N 
ATOM      5  C   UNL     1       6.638   5.462  16.545  0.00  0.00    +0.000 A 
ATOM      6  C   UNL     1       5.959   4.534  15.809  0.00  0.00    +0.000 A 
ATOM      7  C   UNL     1       4.832   3.711  16.308  0.00  0.00    +0.000 C 
ATOM      8  N   UNL     1       4.307   4.154  17.623  0.00  0.00    +0.000 NA
ATOM      9  C   UNL     1       5.176   4.978  18.493  0.00  0.00    +0.000 C 
ATOM     10  C   UNL     1       6.351   5.828  17.934  0.00  0.00    +0.000 C 
ATOM     11  H   UNL     1       8.292   6.700  15.950  0.00  0.00    +0.000 HD
ENDROOT
BRANCH   8  12
ATOM     12  C   UNL     1       2.921   4.634  17.560  0.00  0.00    +0.000 C 
BRANCH  12  13
ATOM     13  C   UNL     1       2.431   5.215  18.857  0.00  0.00    +0.000 A 
ATOM     14  N   UNL     1       2.354   6.507  19.123  0.00  0.00    +0.000 NA
ATOM     15  N   UNL     1       1.918   6.664  20.414  0.00  0.00    +0.000 NA
ATOM     16  C   UNL     1       1.743   5.468  20.918  0.00  0.00    +0.000 A 
ATOM     17  N   UNL     1       2.017   4.519  19.972  0.00  0.00    +0.000 N 
BRANCH  17  18
ATOM     18  C   UNL     1       1.842   3.084  20.142  0.00  0.00    +0.000 C 
ATOM     19  C   UNL     1       1.587   2.688  21.601  0.00  0.00    +0.000 C 
ATOM     20  C   UNL     1       0.721   2.549  19.248  0.00  0.00    +0.000 C 
ENDBRANCH  17  18
ENDBRANCH  12  13
ENDBRANCH   8  12
TORSDOF 3
ENDMDL
MODEL 3
REMARK VINA RESULT:      -7.6      0.939      1.157
REMARK  Name = 
REMARK  6 active torsions:
REMARK  status: ('A' for Active; 'I' for Inactive)
REMARK    1  A    between atoms: C_1  and  C_2
REMARK    2  A    between atoms: N_8  and  C_9
REMARK    3  A    between atoms: C_9  and  C_10
REMARK    4  A    between atoms: N_14  and  C_15
REMARK    5  A    between atoms: C_15  and  C_16
REMARK    6  A    between atoms: C_15  and  C_17
REMARK                            x       y       z     vdW  Elec       q    Type
REMARK                         _______ _______ _______ _____ _____    ______ ____
ROOT
ATOM      1  C   UNL     1       5.729   3.531  12.825  0.00  0.00    +0.000 C 
ATOM      2  C   UNL     1       6.398   4.292  13.907  0.00  0.00    +0.000 A 
ATOM      3  N   UNL     1       7.468   5.060  13.637  0.00  0.00    +0.000 NA
ATOM      4  N   UNL     1       7.802   5.590  14.827  0.00  0.00    +0.000 N 
ATOM      5  C   UNL     1       6.982   5.177  15.836  0.00  0.00    +0.000 A 
ATOM      6  C   UNL     1       6.059   4.336  15.285  0.00  0.00    +0.000 A 
ATOM      7  C   UNL     1       4.984   3.644  16.036  0.00  0.00    +0.000 C 
ATOM      8  N   UNL     1       4.814   4.137  17.424  0.00  0.00    +0.000 NA
ATOM      9  C   UNL     1       5.939   4.854  18.065  0.00  0.00    +0.000 C 
ATOM     10  C   UNL     1       7.050   5.568  17.246  0.00  0.00    +0.000 C 
ATOM     11  H   UNL     1       8.592   6.222  14.867  0.00  0.00    +0.000 HD
ENDROOT
BRANCH   8  12
ATOM     12  C   UNL     1       3.511   4.772  17.656  0.00  0.00    +0.000 C 
BRANCH  12  13
ATOM     13  C   UNL     1       2.453   3.810  18.123  0.00  0.00    +0.000 A 
ATOM     14  N   UNL     1       1.813   2.956  17.343  0.00  0.00    +0.000 NA
ATOM     15  N   UNL     1       0.886   2.284  18.098  0.00  0.00    +0.000 NA
ATOM     16  C   UNL     1       0.969   2.741  19.322  0.00  0.00    +0.000 A 
ATOM     17  N   UNL     1       1.963   3.677  19.404  0.00  0.00    +0.000 N 
BRANCH  17  18
ATOM     18  C   UNL     1       2.406   4.332  20.625  0.00  0.00    +0.000 C 
ATOM     19  C   UNL     1       1.754   5.705  20.830  0.00  0.00    +0.000 C 
ATOM     20  C   UNL     1       2.164   3.448  21.851  0.00  0.00    +0.000 C 
ENDBRANCH  17  18
ENDBRANCH  12  13
ENDBRANCH   8  12
TORSDOF 3
ENDMDL
MODEL 4
REMARK VINA RESULT:      -7.4      2.521      6.647
REMARK  Name = 
REMARK  6 active torsions:
REMARK  status: ('A' for Active; 'I' for Inactive)
REMARK    1  A    between atoms: C_1  and  C_2
REMARK    2  A    between atoms: N_8  and  C_9
REMARK    3  A    between atoms: C_9  and  C_10
REMARK    4  A    between atoms: N_14  and  C_15
REMARK    5  A    between atoms: C_15  and  C_16
REMARK    6  A    between atoms: C_15  and  C_17
REMARK                            x       y       z     vdW  Elec       q    Type
REMARK                         _______ _______ _______ _____ _____    ______ ____
ROOT
ATOM      1  C   UNL     1       2.247   8.059  17.812  0.00  0.00    +0.000 C 
ATOM      2  C   UNL     1       2.943   6.946  18.500  0.00  0.00    +0.000 A 
ATOM      3  N   UNL     1       2.513   6.512  19.698  0.00  0.00    +0.000 NA
ATOM      4  N   UNL     1       3.359   5.515  20.010  0.00  0.00    +0.000 N 
ATOM      5  C   UNL     1       4.310   5.312  19.053  0.00  0.00    +0.000 A 
ATOM      6  C   UNL     1       4.078   6.216  18.057  0.00  0.00    +0.000 A 
ATOM      7  C   UNL     1       4.893   6.354  16.827  0.00  0.00    +0.000 C 
ATOM      8  N   UNL     1       5.855   5.244  16.622  0.00  0.00    +0.000 NA
ATOM      9  C   UNL     1       6.253   4.426  17.788  0.00  0.00    +0.000 C 
ATOM     10  C   UNL     1       5.374   4.305  19.064  0.00  0.00    +0.000 C 
ATOM     11  H   UNL     1       3.221   5.024  20.885  0.00  0.00    +0.000 HD
ENDROOT
BRANCH   8  12
ATOM     12  C   UNL     1       5.571   4.448  15.421  0.00  0.00    +0.000 C 
BRANCH  12  13
ATOM     13  C   UNL     1       6.550   4.682  14.304  0.00  0.00    +0.000 A 
ATOM     14  N   UNL     1       7.586   5.501  14.369  0.00  0.00    +0.000 NA
ATOM     15  N   UNL     1       8.219   5.502  13.152  0.00  0.00    +0.000 NA
ATOM     16  C   UNL     1       7.558   4.692  12.363  0.00  0.00    +0.000 A 
ATOM     17  N   UNL     1       6.519   4.122  13.046  0.00  0.00    +0.000 N 
BRANCH  17  18
ATOM     18  C   UNL     1       5.625   3.100  12.521  0.00  0.00    +0.000 C 
ATOM     19  C   UNL     1       4.433   3.692  11.758  0.00  0.00    +0.000 C 
ATOM     20  C   UNL     1       6.376   2.105  11.633  0.00  0.00    +0.000 C 
ENDBRANCH  17  18
ENDBRANCH  12  13
ENDBRANCH   8  12
TORSDOF 3
ENDMDL
MODEL 5
REMARK VINA RESULT:      -7.4      1.261      1.966
REMARK  Name = 
REMARK  6 active torsions:
REMARK  status: ('A' for Active; 'I' for Inactive)
REMARK    1  A    between atoms: C_1  and  C_2
REMARK    2  A    between atoms: N_8  and  C_9
REMARK    3  A    between atoms: C_9  and  C_10
REMARK    4  A    between atoms: N_14  and  C_15
REMARK    5  A    between atoms: C_15  and  C_16
REMARK    6  A    between atoms: C_15  and  C_17
REMARK                            x       y       z     vdW  Elec       q    Type
REMARK                         _______ _______ _______ _____ _____    ______ ____
ROOT
ATOM      1  C   UNL     1       5.456   3.559  13.074  0.00  0.00    +0.000 C 
ATOM      2  C   UNL     1       6.209   4.362  14.066  0.00  0.00    +0.000 A 
ATOM      3  N   UNL     1       7.359   4.968  13.720  0.00  0.00    +0.000 NA
ATOM      4  N   UNL     1       7.753   5.594  14.843  0.00  0.00    +0.000 N 
ATOM      5  C   UNL     1       6.894   5.398  15.884  0.00  0.00    +0.000 A 
ATOM      6  C   UNL     1       5.880   4.606  15.426  0.00  0.00    +0.000 A 
ATOM      7  C   UNL     1       4.736   4.133  16.241  0.00  0.00    +0.000 C 
ATOM      8  N   UNL     1       4.627   4.803  17.560  0.00  0.00    +0.000 NA
ATOM      9  C   UNL     1       5.827   5.459  18.124  0.00  0.00    +0.000 C 
ATOM     10  C   UNL     1       7.010   5.941  17.239  0.00  0.00    +0.000 C 
ATOM     11  H   UNL     1       8.610   6.133  14.816  0.00  0.00    +0.000 HD
ENDROOT
BRANCH   8  12
ATOM     12  C   UNL     1       3.404   5.603  17.701  0.00  0.00    +0.000 C 
BRANCH  12  13
ATOM     13  C   UNL     1       2.634   5.299  18.957  0.00  0.00    +0.000 A 
ATOM     14  N   UNL     1       2.431   6.156  19.942  0.00  0.00    +0.000 NA
ATOM     15  N   UNL     1       1.740   5.519  20.941  0.00  0.00    +0.000 NA
ATOM     16  C   UNL     1       1.538   4.284  20.554  0.00  0.00    +0.000 A 
ATOM     17  N   UNL     1       2.049   4.100  19.299  0.00  0.00    +0.000 N 
BRANCH  17  18
ATOM     18  C   UNL     1       1.927   2.883  18.509  0.00  0.00    +0.000 C 
ATOM     19  C   UNL     1       3.082   1.903  18.751  0.00  0.00    +0.000 C 
ATOM     20  C   UNL     1       0.587   2.188  18.759  0.00  0.00    +0.000 C 
ENDBRANCH  17  18
ENDBRANCH  12  13
ENDBRANCH   8  12
TORSDOF 3
ENDMDL
MODEL 6
REMARK VINA RESULT:      -7.2      1.258      2.180
REMARK  Name = 
REMARK  6 active torsions:
REMARK  status: ('A' for Active; 'I' for Inactive)
REMARK    1  A    between atoms: C_1  and  C_2
REMARK    2  A    between atoms: N_8  and  C_9
REMARK    3  A    between atoms: C_9  and  C_10
REMARK    4  A    between atoms: N_14  and  C_15
REMARK    5  A    between atoms: C_15  and  C_16
REMARK    6  A    between atoms: C_15  and  C_17
REMARK                            x       y       z     vdW  Elec       q    Type
REMARK                         _______ _______ _______ _____ _____    ______ ____
ROOT
ATOM      1  C   UNL     1       5.445   4.065  14.238  0.00  0.00    +0.000 C 
ATOM      2  C   UNL     1       6.198   4.814  15.272  0.00  0.00    +0.000 A 
ATOM      3  N   UNL     1       7.224   5.610  14.924  0.00  0.00    +0.000 NA
ATOM      4  N   UNL     1       7.657   6.118  16.091  0.00  0.00    +0.000 N 
ATOM      5  C   UNL     1       6.943   5.664  17.161  0.00  0.00    +0.000 A 
ATOM      6  C   UNL     1       5.988   4.818  16.677  0.00  0.00    +0.000 A 
ATOM      7  C   UNL     1       5.000   4.086  17.506  0.00  0.00    +0.000 C 
ATOM      8  N   UNL     1       4.952   4.543  18.917  0.00  0.00    +0.000 NA
ATOM      9  C   UNL     1       6.119   5.267  19.468  0.00  0.00    +0.000 C 
ATOM     10  C   UNL     1       7.135   6.022  18.568  0.00  0.00    +0.000 C 
ATOM     11  H   UNL     1       8.437   6.765  16.073  0.00  0.00    +0.000 HD
ENDROOT
BRANCH   8  12
ATOM     12  C   UNL     1       3.665   5.145  19.284  0.00  0.00    +0.000 C 
BRANCH  12  13
ATOM     13  C   UNL     1       2.821   4.262  20.161  0.00  0.00    +0.000 A 
ATOM     14  N   UNL     1       2.850   4.262  21.482  0.00  0.00    +0.000 NA
ATOM     15  N   UNL     1       1.993   3.293  21.939  0.00  0.00    +0.000 NA
ATOM     16  C   UNL     1       1.460   2.713  20.893  0.00  0.00    +0.000 A 
ATOM     17  N   UNL     1       1.918   3.306  19.748  0.00  0.00    +0.000 N 
BRANCH  17  18
ATOM     18  C   UNL     1       1.474   2.989  18.399  0.00  0.00    +0.000 C 
ATOM     19  C   UNL     1       1.300   4.238  17.525  0.00  0.00    +0.000 C 
ATOM     20  C   UNL     1       2.422   1.999  17.718  0.00  0.00    +0.000 C 
ENDBRANCH  17  18
ENDBRANCH  12  13
ENDBRANCH   8  12
TORSDOF 3
ENDMDL
MODEL 7
REMARK VINA RESULT:      -7.2      1.962      6.678
REMARK  Name = 
REMARK  6 active torsions:
REMARK  status: ('A' for Active; 'I' for Inactive)
REMARK    1  A    between atoms: C_1  and  C_2
REMARK    2  A    between atoms: N_8  and  C_9
REMARK    3  A    between atoms: C_9  and  C_10
REMARK    4  A    between atoms: N_14  and  C_15
REMARK    5  A    between atoms: C_15  and  C_16
REMARK    6  A    between atoms: C_15  and  C_17
REMARK                            x       y       z     vdW  Elec       q    Type
REMARK                         _______ _______ _______ _____ _____    ______ ____
ROOT
ATOM      1  C   UNL     1       2.987   2.414  19.519  0.00  0.00    +0.000 C 
ATOM      2  C   UNL     1       3.427   3.803  19.248  0.00  0.00    +0.000 A 
ATOM      3  N   UNL     1       3.329   4.746  20.201  0.00  0.00    +0.000 NA
ATOM      4  N   UNL     1       3.813   5.856  19.616  0.00  0.00    +0.000 N 
ATOM      5  C   UNL     1       4.206   5.645  18.328  0.00  0.00    +0.000 A 
ATOM      6  C   UNL     1       3.974   4.329  18.047  0.00  0.00    +0.000 A 
ATOM      7  C   UNL     1       4.242   3.677  16.743  0.00  0.00    +0.000 C 
ATOM      8  N   UNL     1       5.040   4.512  15.812  0.00  0.00    +0.000 NA
ATOM      9  C   UNL     1       5.077   5.976  16.027  0.00  0.00    +0.000 C 
ATOM     10  C   UNL     1       4.788   6.625  17.409  0.00  0.00    +0.000 C 
ATOM     11  H   UNL     1       3.845   6.710  20.160  0.00  0.00    +0.000 HD
ENDROOT
BRANCH   8  12
ATOM     12  C   UNL     1       6.353   3.935  15.501  0.00  0.00    +0.000 C 
BRANCH  12  13
ATOM     13  C   UNL     1       6.981   4.514  14.263  0.00  0.00    +0.000 A 
ATOM     14  N   UNL     1       7.851   5.510  14.254  0.00  0.00    +0.000 NA
ATOM     15  N   UNL     1       8.163   5.807  12.952  0.00  0.00    +0.000 NA
ATOM     16  C   UNL     1       7.476   4.995  12.187  0.00  0.00    +0.000 A 
ATOM     17  N   UNL     1       6.742   4.137  12.960  0.00  0.00    +0.000 N 
BRANCH  17  18
ATOM     18  C   UNL     1       5.931   3.037  12.460  0.00  0.00    +0.000 C 
ATOM     19  C   UNL     1       4.626   3.511  11.810  0.00  0.00    +0.000 C 
ATOM     20  C   UNL     1       6.719   2.164  11.480  0.00  0.00    +0.000 C 
ENDBRANCH  17  18
ENDBRANCH  12  13
ENDBRANCH   8  12
TORSDOF 3
ENDMDL
MODEL 8
REMARK VINA RESULT:      -7.0      1.594      2.551
REMARK  Name = 
REMARK  6 active torsions:
REMARK  status: ('A' for Active; 'I' for Inactive)
REMARK    1  A    between atoms: C_1  and  C_2
REMARK    2  A    between atoms: N_8  and  C_9
REMARK    3  A    between atoms: C_9  and  C_10
REMARK    4  A    between atoms: N_14  and  C_15
REMARK    5  A    between atoms: C_15  and  C_16
REMARK    6  A    between atoms: C_15  and  C_17
REMARK                            x       y       z     vdW  Elec       q    Type
REMARK                         _______ _______ _______ _____ _____    ______ ____
ROOT
ATOM      1  C   UNL     1       5.950   3.635  13.137  0.00  0.00    +0.000 C 
ATOM      2  C   UNL     1       6.416   4.425  14.302  0.00  0.00    +0.000 A 
ATOM      3  N   UNL     1       7.464   5.259  14.182  0.00  0.00    +0.000 NA
ATOM      4  N   UNL     1       7.598   5.797  15.407  0.00  0.00    +0.000 N 
ATOM      5  C   UNL     1       6.674   5.326  16.293  0.00  0.00    +0.000 A 
ATOM      6  C   UNL     1       5.889   4.435  15.620  0.00  0.00    +0.000 A 
ATOM      7  C   UNL     1       4.765   3.672  16.215  0.00  0.00    +0.000 C 
ATOM      8  N   UNL     1       4.377   4.141  17.568  0.00  0.00    +0.000 NA
ATOM      9  C   UNL     1       5.357   4.918  18.358  0.00  0.00    +0.000 C 
ATOM     10  C   UNL     1       6.524   5.706  17.700  0.00  0.00    +0.000 C 
ATOM     11  H   UNL     1       8.335   6.476  15.556  0.00  0.00    +0.000 HD
ENDROOT
BRANCH   8  12
ATOM     12  C   UNL     1       3.018   4.693  17.619  0.00  0.00    +0.000 C 
BRANCH  12  13
ATOM     13  C   UNL     1       2.388   4.604  18.981  0.00  0.00    +0.000 A 
ATOM     14  N   UNL     1       2.000   3.481  19.560  0.00  0.00    +0.000 NA
ATOM     15  N   UNL     1       1.422   3.787  20.766  0.00  0.00    +0.000 NA
ATOM     16  C   UNL     1       1.460   5.089  20.902  0.00  0.00    +0.000 A 
ATOM     17  N   UNL     1       2.088   5.652  19.825  0.00  0.00    +0.000 N 
BRANCH  17  18
ATOM     18  C   UNL     1       2.397   7.065  19.673  0.00  0.00    +0.000 C 
ATOM     19  C   UNL     1       2.210   7.561  18.233  0.00  0.00    +0.000 C 
ATOM     20  C   UNL     1       1.573   7.923  20.635  0.00  0.00    +0.000 C 
ENDBRANCH  17  18
ENDBRANCH  12  13
ENDBRANCH   8  12
TORSDOF 3
ENDMDL
MODEL 9
REMARK VINA RESULT:      -6.9      1.223      1.747
REMARK  Name = 
REMARK  6 active torsions:
REMARK  status: ('A' for Active; 'I' for Inactive)
REMARK    1  A    between atoms: C_1  and  C_2
REMARK    2  A    between atoms: N_8  and  C_9
REMARK    3  A    between atoms: C_9  and  C_10
REMARK    4  A    between atoms: N_14  and  C_15
REMARK    5  A    between atoms: C_15  and  C_16
REMARK    6  A    between atoms: C_15  and  C_17
REMARK                            x       y       z     vdW  Elec       q    Type
REMARK                         _______ _______ _______ _____ _____    ______ ____
ROOT
ATOM      1  C   UNL     1       5.992   3.600  13.177  0.00  0.00    +0.000 C 
ATOM      2  C   UNL     1       6.488   4.448  14.287  0.00  0.00    +0.000 A 
ATOM      3  N   UNL     1       7.548   5.255  14.106  0.00  0.00    +0.000 NA
ATOM      4  N   UNL     1       7.708   5.861  15.295  0.00  0.00    +0.000 N 
ATOM      5  C   UNL     1       6.790   5.458  16.219  0.00  0.00    +0.000 A 
ATOM      6  C   UNL     1       5.980   4.543  15.610  0.00  0.00    +0.000 A 
ATOM      7  C   UNL     1       4.853   3.836  16.263  0.00  0.00    +0.000 C 
ATOM      8  N   UNL     1       4.491   4.389  17.591  0.00  0.00    +0.000 NA
ATOM      9  C   UNL     1       5.495   5.194  18.321  0.00  0.00    +0.000 C 
ATOM     10  C   UNL     1       6.666   5.921  17.603  0.00  0.00    +0.000 C 
ATOM     11  H   UNL     1       8.459   6.534  15.395  0.00  0.00    +0.000 HD
ENDROOT
BRANCH   8  12
ATOM     12  C   UNL     1       3.142   4.967  17.627  0.00  0.00    +0.000 C 
BRANCH  12  13
ATOM     13  C   UNL     1       2.586   5.096  19.018  0.00  0.00    +0.000 A 
ATOM     14  N   UNL     1       2.263   6.239  19.598  0.00  0.00    +0.000 NA
ATOM     15  N   UNL     1       1.844   5.978  20.878  0.00  0.00    +0.000 NA
ATOM     16  C   UNL     1       1.923   4.684  21.062  0.00  0.00    +0.000 A 
ATOM     17  N   UNL     1       2.350   4.075  19.914  0.00  0.00    +0.000 N 
BRANCH  17  18
ATOM     18  C   UNL     1       2.467   2.638  19.714  0.00  0.00    +0.000 C 
ATOM     19  C   UNL     1       1.837   2.171  18.396  0.00  0.00    +0.000 C 
ATOM     20  C   UNL     1       3.925   2.181  19.791  0.00  0.00    +0.000 C 
ENDBRANCH  17  18
ENDBRANCH  12  13
ENDBRANCH   8  12
TORSDOF 3
ENDMDL
