MODEL 1
REMARK VINA RESULT:      -7.9      0.000      0.000
REMARK  Name = 
REMARK  6 active torsions:
REMARK  status: ('A' for Active; 'I' for Inactive)
REMARK    1  A    between atoms: C_1  and  C_2
REMARK    2  A    between atoms: C_2  and  C_3
REMARK    3  A    between atoms: C_3  and  C_17
REMARK    4  A    between atoms: N_4  and  N_5
REMARK    5  A    between atoms: N_5  and  C_6
REMARK    6  A    between atoms: C_20  and  O_21
REMARK                            x       y       z     vdW  Elec       q    Type
REMARK                         _______ _______ _______ _____ _____    ______ ____
ROOT
ATOM      1  N   UNL     1       1.643   7.657  20.858  0.00  0.00    +0.000 N 
ATOM      2  H   UNL     1       0.910   7.057  21.238  0.00  0.00    +0.000 HD
ENDROOT
BRANCH   1   3
ATOM      3  C   UNL     1       1.051   8.850  20.329  0.00  0.00    +0.000 A 
ATOM      4  C   UNL     1       1.373   9.259  19.029  0.00  0.00    +0.000 A 
ATOM      5  C   UNL     1       0.829  10.426  18.540  0.00  0.00    +0.000 A 
ATOM      6  N   UNL     1       0.008  11.222  19.249  0.00  0.00    +0.000 NA
ATOM      7  C   UNL     1      -0.270  10.875  20.514  0.00  0.00    +0.000 A 
ATOM      8  C   UNL     1      -1.099  11.723  21.231  0.00  0.00    +0.000 A 
ATOM      9  C   UNL     1      -1.425  11.465  22.558  0.00  0.00    +0.000 A 
ATOM     10 CL   UNL     1      -2.462  12.539  23.411  0.00  0.00    +0.000 Cl
ATOM     11  C   UNL     1      -0.915  10.344  23.197  0.00  0.00    +0.000 A 
ATOM     12  C   UNL     1      -0.082   9.472  22.492  0.00  0.00    +0.000 A 
ATOM     13  C   UNL     1       0.245   9.707  21.131  0.00  0.00    +0.000 A 
ENDBRANCH   1   3
BRANCH   1  15
ATOM     14  C   UNL     1       2.427   5.699  19.914  0.00  0.00    +0.000 C 
ATOM     15  N   UNL     1       2.474   6.996  20.012  0.00  0.00    +0.000 NA
BRANCH  14  16
ATOM     16  C   UNL     1       3.402   5.064  18.938  0.00  0.00    +0.000 A 
ATOM     17  C   UNL     1       4.792   5.110  19.130  0.00  0.00    +0.000 A 
ATOM     18  C   UNL     1       5.665   4.553  18.188  0.00  0.00    +0.000 A 
ATOM     19  C   UNL     1       5.149   3.939  17.053  0.00  0.00    +0.000 A 
ATOM     20  C   UNL     1       3.778   3.866  16.850  0.00  0.00    +0.000 A 
ATOM     21  C   UNL     1       2.906   4.425  17.789  0.00  0.00    +0.000 A 
BRANCH  19  22
ATOM     22  O   UNL     1       5.964   3.396  16.107  0.00  0.00    +0.000 OA
ATOM     23  H   UNL     1       6.854   3.773  16.203  0.00  0.00    +0.000 HD
ENDBRANCH  19  22
ENDBRANCH  14  16
BRANCH  14  25
ATOM     24  C   UNL     1       2.091   3.526  21.404  0.00  0.00    +0.000 C 
ATOM     25  C   UNL     1       1.520   4.732  20.688  0.00  0.00    +0.000 C 
ENDBRANCH  14  25
ENDBRANCH   1  15
TORSDOF 5
ENDMDL
MODEL 2
REMARK VINA RESULT:      -7.9      0.213      1.005
REMARK  Name = 
REMARK  6 active torsions:
REMARK  status: ('A' for Active; 'I' for Inactive)
REMARK    1  A    between atoms: C_1  and  C_2
REMARK    2  A    between atoms: C_2  and  C_3
REMARK    3  A    between atoms: C_3  and  C_17
REMARK    4  A    between atoms: N_4  and  N_5
REMARK    5  A    between atoms: N_5  and  C_6
REMARK    6  A    between atoms: C_20  and  O_21
REMARK                            x       y       z     vdW  Elec       q    Type
REMARK                         _______ _______ _______ _____ _____    ______ ____
ROOT
ATOM      1  N   UNL     1       1.725   7.753  20.816  0.00  0.00    +0.000 N 
ATOM      2  H   UNL     1       1.043   7.152  21.282  0.00  0.00    +0.000 HD
ENDROOT
BRANCH   1   3
ATOM      3  C   UNL     1       1.059   8.916  20.308  0.00  0.00    +0.000 A 
ATOM      4  C   UNL     1       1.320   9.340  18.999  0.00  0.00    +0.000 A 
ATOM      5  C   UNL     1       0.705  10.479  18.529  0.00  0.00    +0.000 A 
ATOM      6  N   UNL     1      -0.130  11.235  19.264  0.00  0.00    +0.000 NA
ATOM      7  C   UNL     1      -0.351  10.875  20.536  0.00  0.00    +0.000 A 
ATOM      8  C   UNL     1      -1.197  11.682  21.280  0.00  0.00    +0.000 A 
ATOM      9  C   UNL     1      -1.469  11.409  22.616  0.00  0.00    +0.000 A 
ATOM     10 CL   UNL     1      -2.530  12.431  23.503  0.00  0.00    +0.000 Cl
ATOM     11  C   UNL     1      -0.886  10.314  23.238  0.00  0.00    +0.000 A 
ATOM     12  C   UNL     1      -0.035   9.483  22.506  0.00  0.00    +0.000 A 
ATOM     13  C   UNL     1       0.238   9.733  21.136  0.00  0.00    +0.000 A 
ENDBRANCH   1   3
BRANCH   1  15
ATOM     14  C   UNL     1       2.384   5.789  19.794  0.00  0.00    +0.000 C 
ATOM     15  N   UNL     1       2.488   7.081  19.918  0.00  0.00    +0.000 NA
BRANCH  14  16
ATOM     16  C   UNL     1       3.288   5.140  18.760  0.00  0.00    +0.000 A 
ATOM     17  C   UNL     1       2.812   4.198  17.834  0.00  0.00    +0.000 A 
ATOM     18  C   UNL     1       3.681   3.587  16.922  0.00  0.00    +0.000 A 
ATOM     19  C   UNL     1       5.029   3.923  16.928  0.00  0.00    +0.000 A 
ATOM     20  C   UNL     1       5.519   4.864  17.822  0.00  0.00    +0.000 A 
ATOM     21  C   UNL     1       4.653   5.472  18.735  0.00  0.00    +0.000 A 
BRANCH  19  22
ATOM     22  O   UNL     1       5.910   3.342  16.066  0.00  0.00    +0.000 OA
ATOM     23  H   UNL     1       5.649   3.558  15.156  0.00  0.00    +0.000 HD
ENDBRANCH  19  22
ENDBRANCH  14  16
BRANCH  14  25
ATOM     24  C   UNL     1       2.057   3.730  21.439  0.00  0.00    +0.000 C 
ATOM     25  C   UNL     1       1.477   4.840  20.589  0.00  0.00    +0.000 C 
ENDBRANCH  14  25
ENDBRANCH   1  15
TORSDOF 5
ENDMDL
MODEL 3
REMARK VINA RESULT:      -7.8      4.166      7.949
REMARK  Name = 
REMARK  6 active torsions:
REMARK  status: ('A' for Active; 'I' for Inactive)
REMARK    1  A    between atoms: C_1  and  C_2
REMARK    2  A    between atoms: C_2  and  C_3
REMARK    3  A    between atoms: C_3  and  C_17
REMARK    4  A    between atoms: N_4  and  N_5
REMARK    5  A    between atoms: N_5  and  C_6
REMARK    6  A    between atoms: C_20  and  O_21
REMARK                            x       y       z     vdW  Elec       q    Type
REMARK                         _______ _______ _______ _____ _____    ______ ____
ROOT
ATOM      1  N   UNL     1       2.279   6.903  20.627  0.00  0.00    +0.000 N 
ATOM      2  H   UNL     1       3.260   7.083  20.847  0.00  0.00    +0.000 HD
ENDROOT
BRANCH   1   3
ATOM      3  C   UNL     1       2.171   5.644  19.951  0.00  0.00    +0.000 A 
ATOM      4  C   UNL     1       1.296   4.670  20.448  0.00  0.00    +0.000 A 
ATOM      5  C   UNL     1       1.223   3.449  19.815  0.00  0.00    +0.000 A 
ATOM      6  N   UNL     1       1.965   3.118  18.742  0.00  0.00    +0.000 NA
ATOM      7  C   UNL     1       2.847   4.018  18.284  0.00  0.00    +0.000 A 
ATOM      8  C   UNL     1       3.615   3.646  17.192  0.00  0.00    +0.000 A 
ATOM      9  C   UNL     1       4.576   4.497  16.659  0.00  0.00    +0.000 A 
ATOM     10 CL   UNL     1       5.505   4.000  15.300  0.00  0.00    +0.000 Cl
ATOM     11  C   UNL     1       4.791   5.748  17.221  0.00  0.00    +0.000 A 
ATOM     12  C   UNL     1       4.023   6.147  18.318  0.00  0.00    +0.000 A 
ATOM     13  C   UNL     1       3.023   5.300  18.863  0.00  0.00    +0.000 A 
ENDBRANCH   1   3
BRANCH   1  15
ATOM     14  C   UNL     1       1.141   8.912  20.696  0.00  0.00    +0.000 C 
ATOM     15  N   UNL     1       1.681   7.950  20.005  0.00  0.00    +0.000 NA
BRANCH  14  16
ATOM     16  C   UNL     1       0.499  10.033  19.897  0.00  0.00    +0.000 A 
ATOM     17  C   UNL     1      -0.713   9.863  19.208  0.00  0.00    +0.000 A 
ATOM     18  C   UNL     1      -1.255  10.903  18.444  0.00  0.00    +0.000 A 
ATOM     19  C   UNL     1      -0.591  12.122  18.375  0.00  0.00    +0.000 A 
ATOM     20  C   UNL     1       0.598  12.319  19.063  0.00  0.00    +0.000 A 
ATOM     21  C   UNL     1       1.142  11.280  19.822  0.00  0.00    +0.000 A 
BRANCH  19  22
ATOM     22  O   UNL     1      -1.079  13.156  17.634  0.00  0.00    +0.000 OA
ATOM     23  H   UNL     1      -1.727  13.647  18.166  0.00  0.00    +0.000 HD
ENDBRANCH  19  22
ENDBRANCH  14  16
BRANCH  14  25
ATOM     24  C   UNL     1      -0.215   9.510  22.900  0.00  0.00    +0.000 C 
ATOM     25  C   UNL     1       1.054   9.035  22.223  0.00  0.00    +0.000 C 
ENDBRANCH  14  25
ENDBRANCH   1  15
TORSDOF 5
ENDMDL
MODEL 4
REMARK VINA RESULT:      -7.7      4.155      7.853
REMARK  Name = 
REMARK  6 active torsions:
REMARK  status: ('A' for Active; 'I' for Inactive)
REMARK    1  A    between atoms: C_1  and  C_2
REMARK    2  A    between atoms: C_2  and  C_3
REMARK    3  A    between atoms: C_3  and  C_17
REMARK    4  A    between atoms: N_4  and  N_5
REMARK    5  A    between atoms: N_5  and  C_6
REMARK    6  A    between atoms: C_20  and  O_21
REMARK                            x       y       z     vdW  Elec       q    Type
REMARK                         _______ _______ _______ _____ _____    ______ ____
ROOT
ATOM      1  N   UNL     1       2.130   6.908  20.777  0.00  0.00    +0.000 N 
ATOM      2  H   UNL     1       3.097   7.047  21.075  0.00  0.00    +0.000 HD
ENDROOT
BRANCH   1   3
ATOM      3  C   UNL     1       2.031   5.674  20.056  0.00  0.00    +0.000 A 
ATOM      4  C   UNL     1       1.168   4.674  20.520  0.00  0.00    +0.000 A 
ATOM      5  C   UNL     1       1.104   3.477  19.843  0.00  0.00    +0.000 A 
ATOM      6  N   UNL     1       1.844   3.192  18.756  0.00  0.00    +0.000 NA
ATOM      7  C   UNL     1       2.715   4.117  18.328  0.00  0.00    +0.000 A 
ATOM      8  C   UNL     1       3.482   3.793  17.220  0.00  0.00    +0.000 A 
ATOM      9  C   UNL     1       4.433   4.673  16.714  0.00  0.00    +0.000 A 
ATOM     10 CL   UNL     1       5.360   4.235  15.334  0.00  0.00    +0.000 Cl
ATOM     11  C   UNL     1       4.638   5.904  17.321  0.00  0.00    +0.000 A 
ATOM     12  C   UNL     1       3.871   6.254  18.435  0.00  0.00    +0.000 A 
ATOM     13  C   UNL     1       2.881   5.379  18.952  0.00  0.00    +0.000 A 
ENDBRANCH   1   3
BRANCH   1  15
ATOM     14  C   UNL     1       1.135   8.993  20.829  0.00  0.00    +0.000 C 
ATOM     15  N   UNL     1       1.615   7.993  20.146  0.00  0.00    +0.000 NA
BRANCH  14  16
ATOM     16  C   UNL     1       0.583  10.153  20.021  0.00  0.00    +0.000 A 
ATOM     17  C   UNL     1       1.146  11.438  20.071  0.00  0.00    +0.000 A 
ATOM     18  C   UNL     1       0.585  12.496  19.346  0.00  0.00    +0.000 A 
ATOM     19  C   UNL     1      -0.539  12.270  18.561  0.00  0.00    +0.000 A 
ATOM     20  C   UNL     1      -1.103  11.005  18.481  0.00  0.00    +0.000 A 
ATOM     21  C   UNL     1      -0.545   9.949  19.207  0.00  0.00    +0.000 A 
BRANCH  19  22
ATOM     22  O   UNL     1      -1.123  13.275  17.850  0.00  0.00    +0.000 OA
ATOM     23  H   UNL     1      -0.943  14.120  18.294  0.00  0.00    +0.000 HD
ENDBRANCH  19  22
ENDBRANCH  14  16
BRANCH  14  25
ATOM     24  C   UNL     1      -0.257   9.536  23.025  0.00  0.00    +0.000 C 
ATOM     25  C   UNL     1       1.038   9.125  22.355  0.00  0.00    +0.000 C 
ENDBRANCH  14  25
ENDBRANCH   1  15
TORSDOF 5
ENDMDL
MODEL 5
REMARK VINA RESULT:      -7.7      1.203      1.690
REMARK  Name = 
REMARK  6 active torsions:
REMARK  status: ('A' for Active; 'I' for Inactive)
REMARK    1  A    between atoms: C_1  and  C_2
REMARK    2  A    between atoms: C_2  and  C_3
REMARK    3  A    between atoms: C_3  and  C_17
REMARK    4  A    between atoms: N_4  and  N_5
REMARK    5  A    between atoms: N_5  and  C_6
REMARK    6  A    between atoms: C_20  and  O_21
REMARK                            x       y       z     vdW  Elec       q    Type
REMARK                         _______ _______ _______ _____ _____    ______ ____
ROOT
ATOM      1  N   UNL     1       1.912   7.014  20.292  0.00  0.00    +0.000 N 
ATOM      2  H   UNL     1       1.151   6.341  20.189  0.00  0.00    +0.000 HD
ENDROOT
BRANCH   1   3
ATOM      3  C   UNL     1       1.459   8.307  19.873  0.00  0.00    +0.000 A 
ATOM      4  C   UNL     1       1.849   8.800  18.622  0.00  0.00    +0.000 A 
ATOM      5  C   UNL     1       1.440  10.058  18.239  0.00  0.00    +0.000 A 
ATOM      6  N   UNL     1       0.692  10.867  19.012  0.00  0.00    +0.000 NA
ATOM      7  C   UNL     1       0.353  10.435  20.234  0.00  0.00    +0.000 A 
ATOM      8  C   UNL     1      -0.399  11.294  21.019  0.00  0.00    +0.000 A 
ATOM      9  C   UNL     1      -0.779  10.950  22.312  0.00  0.00    +0.000 A 
ATOM     10 CL   UNL     1      -1.716  12.043  23.251  0.00  0.00    +0.000 Cl
ATOM     11  C   UNL     1      -0.402   9.727  22.848  0.00  0.00    +0.000 A 
ATOM     12  C   UNL     1       0.350   8.841  22.072  0.00  0.00    +0.000 A 
ATOM     13  C   UNL     1       0.729   9.166  20.744  0.00  0.00    +0.000 A 
ENDBRANCH   1   3
BRANCH   1  15
ATOM     14  C   UNL     1       3.054   5.668  18.802  0.00  0.00    +0.000 C 
ATOM     15  N   UNL     1       3.068   6.590  19.722  0.00  0.00    +0.000 NA
BRANCH  14  16
ATOM     16  C   UNL     1       4.405   5.269  18.234  0.00  0.00    +0.000 A 
ATOM     17  C   UNL     1       4.542   4.692  16.961  0.00  0.00    +0.000 A 
ATOM     18  C   UNL     1       5.798   4.296  16.486  0.00  0.00    +0.000 A 
ATOM     19  C   UNL     1       6.923   4.482  17.279  0.00  0.00    +0.000 A 
ATOM     20  C   UNL     1       6.814   5.066  18.534  0.00  0.00    +0.000 A 
ATOM     21  C   UNL     1       5.560   5.459  19.010  0.00  0.00    +0.000 A 
BRANCH  19  22
ATOM     22  O   UNL     1       8.161   4.099  16.859  0.00  0.00    +0.000 OA
ATOM     23  H   UNL     1       8.451   4.695  16.150  0.00  0.00    +0.000 HD
ENDBRANCH  19  22
ENDBRANCH  14  16
BRANCH  14  25
ATOM     24  C   UNL     1       1.341   3.640  18.888  0.00  0.00    +0.000 C 
ATOM     25  C   UNL     1       1.837   4.918  18.244  0.00  0.00    +0.000 C 
ENDBRANCH  14  25
ENDBRANCH   1  15
TORSDOF 5
ENDMDL
MODEL 6
REMARK VINA RESULT:      -7.7      4.746      8.635
REMARK  Name = 
REMARK  6 active torsions:
REMARK  status: ('A' for Active; 'I' for Inactive)
REMARK    1  A    between atoms: C_1  and  C_2
REMARK    2  A    between atoms: C_2  and  C_3
REMARK    3  A    between atoms: C_3  and  C_17
REMARK    4  A    between atoms: N_4  and  N_5
REMARK    5  A    between atoms: N_5  and  C_6
REMARK    6  A    between atoms: C_20  and  O_21
REMARK                            x       y       z     vdW  Elec       q    Type
REMARK                         _______ _______ _______ _____ _____    ______ ____
ROOT
ATOM      1  N   UNL     1       3.854   4.628  18.102  0.00  0.00    +0.000 N 
ATOM      2  H   UNL     1       3.752   4.029  18.923  0.00  0.00    +0.000 HD
ENDROOT
BRANCH   1   3
ATOM      3  C   UNL     1       5.223   4.626  17.682  0.00  0.00    +0.000 A 
ATOM      4  C   UNL     1       6.231   4.870  18.623  0.00  0.00    +0.000 A 
ATOM      5  C   UNL     1       7.544   4.902  18.207  0.00  0.00    +0.000 A 
ATOM      6  N   UNL     1       7.926   4.730  16.928  0.00  0.00    +0.000 NA
ATOM      7  C   UNL     1       6.972   4.548  16.004  0.00  0.00    +0.000 A 
ATOM      8  C   UNL     1       7.389   4.396  14.691  0.00  0.00    +0.000 A 
ATOM      9  C   UNL     1       6.476   4.228  13.656  0.00  0.00    +0.000 A 
ATOM     10 CL   UNL     1       7.035   4.037  12.041  0.00  0.00    +0.000 Cl
ATOM     11  C   UNL     1       5.114   4.217  13.921  0.00  0.00    +0.000 A 
ATOM     12  C   UNL     1       4.671   4.362  15.238  0.00  0.00    +0.000 A 
ATOM     13  C   UNL     1       5.588   4.512  16.310  0.00  0.00    +0.000 A 
ENDBRANCH   1   3
BRANCH   1  15
ATOM     14  C   UNL     1       2.623   6.130  19.354  0.00  0.00    +0.000 C 
ATOM     15  N   UNL     1       3.301   5.855  18.277  0.00  0.00    +0.000 NA
BRANCH  14  16
ATOM     16  C   UNL     1       2.049   7.533  19.445  0.00  0.00    +0.000 A 
ATOM     17  C   UNL     1       1.481   8.036  20.626  0.00  0.00    +0.000 A 
ATOM     18  C   UNL     1       0.921   9.318  20.662  0.00  0.00    +0.000 A 
ATOM     19  C   UNL     1       0.934  10.106  19.518  0.00  0.00    +0.000 A 
ATOM     20  C   UNL     1       1.505   9.637  18.343  0.00  0.00    +0.000 A 
ATOM     21  C   UNL     1       2.062   8.355  18.306  0.00  0.00    +0.000 A 
BRANCH  19  22
ATOM     22  O   UNL     1       0.388  11.354  19.508  0.00  0.00    +0.000 OA
ATOM     23  H   UNL     1       0.639  11.801  18.683  0.00  0.00    +0.000 HD
ENDBRANCH  19  22
ENDBRANCH  14  16
BRANCH  14  25
ATOM     24  C   UNL     1       1.117   4.266  20.501  0.00  0.00    +0.000 C 
ATOM     25  C   UNL     1       2.313   5.195  20.531  0.00  0.00    +0.000 C 
ENDBRANCH  14  25
ENDBRANCH   1  15
TORSDOF 5
ENDMDL
MODEL 7
REMARK VINA RESULT:      -7.6      4.668      8.542
REMARK  Name = 
REMARK  6 active torsions:
REMARK  status: ('A' for Active; 'I' for Inactive)
REMARK    1  A    between atoms: C_1  and  C_2
REMARK    2  A    between atoms: C_2  and  C_3
REMARK    3  A    between atoms: C_3  and  C_17
REMARK    4  A    between atoms: N_4  and  N_5
REMARK    5  A    between atoms: N_5  and  C_6
REMARK    6  A    between atoms: C_20  and  O_21
REMARK                            x       y       z     vdW  Elec       q    Type
REMARK                         _______ _______ _______ _____ _____    ______ ____
ROOT
ATOM      1  N   UNL     1       3.773   4.825  18.389  0.00  0.00    +0.000 N 
ATOM      2  H   UNL     1       3.670   4.197  19.187  0.00  0.00    +0.000 HD
ENDROOT
BRANCH   1   3
ATOM      3  C   UNL     1       5.149   4.867  17.994  0.00  0.00    +0.000 A 
ATOM      4  C   UNL     1       6.127   5.194  18.942  0.00  0.00    +0.000 A 
ATOM      5  C   UNL     1       7.444   5.268  18.549  0.00  0.00    +0.000 A 
ATOM      6  N   UNL     1       7.860   5.060  17.286  0.00  0.00    +0.000 NA
ATOM      7  C   UNL     1       6.933   4.797  16.353  0.00  0.00    +0.000 A 
ATOM      8  C   UNL     1       7.383   4.610  15.056  0.00  0.00    +0.000 A 
ATOM      9  C   UNL     1       6.499   4.359  14.012  0.00  0.00    +0.000 A 
ATOM     10 CL   UNL     1       7.097   4.126  12.417  0.00  0.00    +0.000 Cl
ATOM     11  C   UNL     1       5.133   4.298  14.252  0.00  0.00    +0.000 A 
ATOM     12  C   UNL     1       4.658   4.477  15.554  0.00  0.00    +0.000 A 
ATOM     13  C   UNL     1       5.546   4.713  16.635  0.00  0.00    +0.000 A 
ENDBRANCH   1   3
BRANCH   1  15
ATOM     14  C   UNL     1       2.433   6.237  19.634  0.00  0.00    +0.000 C 
ATOM     15  N   UNL     1       3.191   6.034  18.595  0.00  0.00    +0.000 NA
BRANCH  14  16
ATOM     16  C   UNL     1       1.832   7.626  19.764  0.00  0.00    +0.000 A 
ATOM     17  C   UNL     1       1.817   8.539  18.697  0.00  0.00    +0.000 A 
ATOM     18  C   UNL     1       1.294   9.827  18.865  0.00  0.00    +0.000 A 
ATOM     19  C   UNL     1       0.776  10.203  20.098  0.00  0.00    +0.000 A 
ATOM     20  C   UNL     1       0.764   9.312  21.161  0.00  0.00    +0.000 A 
ATOM     21  C   UNL     1       1.289   8.027  20.996  0.00  0.00    +0.000 A 
BRANCH  19  22
ATOM     22  O   UNL     1       0.269  11.451  20.305  0.00  0.00    +0.000 OA
ATOM     23  H   UNL     1       0.770  11.880  21.018  0.00  0.00    +0.000 HD
ENDBRANCH  19  22
ENDBRANCH  14  16
BRANCH  14  25
ATOM     24  C   UNL     1       1.021   4.153  20.480  0.00  0.00    +0.000 C 
ATOM     25  C   UNL     1       2.054   5.232  20.729  0.00  0.00    +0.000 C 
ENDBRANCH  14  25
ENDBRANCH   1  15
TORSDOF 5
ENDMDL
MODEL 8
REMARK VINA RESULT:      -7.5      1.101      1.306
REMARK  Name = 
REMARK  6 active torsions:
REMARK  status: ('A' for Active; 'I' for Inactive)
REMARK    1  A    between atoms: C_1  and  C_2
REMARK    2  A    between atoms: C_2  and  C_3
REMARK    3  A    between atoms: C_3  and  C_17
REMARK    4  A    between atoms: N_4  and  N_5
REMARK    5  A    between atoms: N_5  and  C_6
REMARK    6  A    between atoms: C_20  and  O_21
REMARK                            x       y       z     vdW  Elec       q    Type
REMARK                         _______ _______ _______ _____ _____    ______ ____
ROOT
ATOM      1  N   UNL     1       1.850   7.472  20.453  0.00  0.00    +0.000 N 
ATOM      2  H   UNL     1       1.146   6.739  20.548  0.00  0.00    +0.000 HD
ENDROOT
BRANCH   1   3
ATOM      3  C   UNL     1       1.215   8.688  20.041  0.00  0.00    +0.000 A 
ATOM      4  C   UNL     1       1.460   9.191  18.757  0.00  0.00    +0.000 A 
ATOM      5  C   UNL     1       0.875  10.379  18.380  0.00  0.00    +0.000 A 
ATOM      6  N   UNL     1       0.083  11.111  19.186  0.00  0.00    +0.000 NA
ATOM      7  C   UNL     1      -0.121  10.673  20.436  0.00  0.00    +0.000 A 
ATOM      8  C   UNL     1      -0.922  11.454  21.253  0.00  0.00    +0.000 A 
ATOM      9  C   UNL     1      -1.172  11.100  22.575  0.00  0.00    +0.000 A 
ATOM     10 CL   UNL     1      -2.176  12.095  23.555  0.00  0.00    +0.000 Cl
ATOM     11  C   UNL     1      -0.613   9.947  23.106  0.00  0.00    +0.000 A 
ATOM     12  C   UNL     1       0.191   9.140  22.299  0.00  0.00    +0.000 A 
ATOM     13  C   UNL     1       0.441   9.474  20.942  0.00  0.00    +0.000 A 
ENDBRANCH   1   3
BRANCH   1  15
ATOM     14  C   UNL     1       2.941   5.900  19.158  0.00  0.00    +0.000 C 
ATOM     15  N   UNL     1       2.909   7.084  19.697  0.00  0.00    +0.000 NA
BRANCH  14  16
ATOM     16  C   UNL     1       4.175   5.572  18.334  0.00  0.00    +0.000 A 
ATOM     17  C   UNL     1       5.178   4.707  18.798  0.00  0.00    +0.000 A 
ATOM     18  C   UNL     1       6.323   4.461  18.031  0.00  0.00    +0.000 A 
ATOM     19  C   UNL     1       6.465   5.074  16.792  0.00  0.00    +0.000 A 
ATOM     20  C   UNL     1       5.478   5.919  16.305  0.00  0.00    +0.000 A 
ATOM     21  C   UNL     1       4.336   6.168  17.071  0.00  0.00    +0.000 A 
BRANCH  19  22
ATOM     22  O   UNL     1       7.569   4.871  16.021  0.00  0.00    +0.000 OA
ATOM     23  H   UNL     1       8.239   5.537  16.247  0.00  0.00    +0.000 HD
ENDBRANCH  19  22
ENDBRANCH  14  16
BRANCH  14  25
ATOM     24  C   UNL     1       1.592   3.865  18.113  0.00  0.00    +0.000 C 
ATOM     25  C   UNL     1       1.893   4.786  19.277  0.00  0.00    +0.000 C 
ENDBRANCH  14  25
ENDBRANCH   1  15
TORSDOF 5
ENDMDL
MODEL 9
REMARK VINA RESULT:      -7.5      4.280      7.991
REMARK  Name = 
REMARK  6 active torsions:
REMARK  status: ('A' for Active; 'I' for Inactive)
REMARK    1  A    between atoms: C_1  and  C_2
REMARK    2  A    between atoms: C_2  and  C_3
REMARK    3  A    between atoms: C_3  and  C_17
REMARK    4  A    between atoms: N_4  and  N_5
REMARK    5  A    between atoms: N_5  and  C_6
REMARK    6  A    between atoms: C_20  and  O_21
REMARK                            x       y       z     vdW  Elec       q    Type
REMARK                         _______ _______ _______ _____ _____    ______ ____
ROOT
ATOM      1  N   UNL     1       2.208   7.701  20.267  0.00  0.00    +0.000 N 
ATOM      2  H   UNL     1       3.129   8.137  20.218  0.00  0.00    +0.000 HD
ENDROOT
BRANCH   1   3
ATOM      3  C   UNL     1       2.309   6.335  19.846  0.00  0.00    +0.000 A 
ATOM      4  C   UNL     1       1.701   5.333  20.612  0.00  0.00    +0.000 A 
ATOM      5  C   UNL     1       1.832   4.019  20.222  0.00  0.00    +0.000 A 
ATOM      6  N   UNL     1       2.536   3.626  19.145  0.00  0.00    +0.000 NA
ATOM      7  C   UNL     1       3.170   4.565  18.429  0.00  0.00    +0.000 A 
ATOM      8  C   UNL     1       3.906   4.134  17.338  0.00  0.00    +0.000 A 
ATOM      9  C   UNL     1       4.622   5.027  16.548  0.00  0.00    +0.000 A 
ATOM     10 CL   UNL     1       5.519   4.452  15.199  0.00  0.00    +0.000 Cl
ATOM     11  C   UNL     1       4.616   6.383  16.846  0.00  0.00    +0.000 A 
ATOM     12  C   UNL     1       3.875   6.841  17.938  0.00  0.00    +0.000 A 
ATOM     13  C   UNL     1       3.122   5.947  18.743  0.00  0.00    +0.000 A 
ENDBRANCH   1   3
BRANCH   1  15
ATOM     14  C   UNL     1       0.662   9.418  20.259  0.00  0.00    +0.000 C 
ATOM     15  N   UNL     1       1.248   8.431  19.645  0.00  0.00    +0.000 NA
BRANCH  14  16
ATOM     16  C   UNL     1      -0.397  10.166  19.469  0.00  0.00    +0.000 A 
ATOM     17  C   UNL     1      -1.101  11.257  20.002  0.00  0.00    +0.000 A 
ATOM     18  C   UNL     1      -2.102  11.896  19.262  0.00  0.00    +0.000 A 
ATOM     19  C   UNL     1      -2.398  11.450  17.979  0.00  0.00    +0.000 A 
ATOM     20  C   UNL     1      -1.704  10.384  17.424  0.00  0.00    +0.000 A 
ATOM     21  C   UNL     1      -0.706   9.744  18.164  0.00  0.00    +0.000 A 
BRANCH  19  22
ATOM     22  O   UNL     1      -3.374  12.036  17.230  0.00  0.00    +0.000 OA
ATOM     23  H   UNL     1      -2.958  12.566  16.531  0.00  0.00    +0.000 HD
ENDBRANCH  19  22
ENDBRANCH  14  16
BRANCH  14  25
ATOM     24  C   UNL     1       0.062   9.371  22.846  0.00  0.00    +0.000 C 
ATOM     25  C   UNL     1       0.896   9.899  21.698  0.00  0.00    +0.000 C 
ENDBRANCH  14  25
ENDBRANCH   1  15
TORSDOF 5
ENDMDL
