MODEL 1
REMARK VINA RESULT:      -8.4      0.000      0.000
REMARK  Name = 
REMARK  9 active torsions:
REMARK  status: ('A' for Active; 'I' for Inactive)
REMARK    1  A    between atoms: C_1  and  C_2
REMARK    2  A    between atoms: N_7  and  C_8
REMARK    3  A    between atoms: C_8  and  C_9
REMARK    4  A    between atoms: C_13  and  N_14
REMARK    5  A    between atoms: C_15  and  C_17
REMARK    6  A    between atoms: C_17  and  O_18
REMARK    7  A    between atoms: O_18  and  C_19
REMARK    8  A    between atoms: C_23  and  C_24
REMARK    9  A    between atoms: N_29  and  C_30
REMARK                            x       y       z     vdW  Elec       q    Type
REMARK                         _______ _______ _______ _____ _____    ______ ____
ROOT
ATOM      1  C   UNL     1       0.946  10.850  19.077  0.00  0.00    +0.000 A 
ATOM      2  N   UNL     1       1.563  10.165  18.124  0.00  0.00    +0.000 NA
ATOM      3  C   UNL     1       1.785   8.906  18.636  0.00  0.00    +0.000 A 
ATOM      4  C   UNL     1       2.391   7.786  18.050  0.00  0.00    +0.000 A 
ATOM      5  C   UNL     1       2.537   6.625  18.816  0.00  0.00    +0.000 A 
ATOM      6  C   UNL     1       2.123   6.588  20.158  0.00  0.00    +0.000 A 
ATOM      7  C   UNL     1       1.494   7.682  20.739  0.00  0.00    +0.000 A 
ATOM      8  C   UNL     1       1.319   8.823  19.938  0.00  0.00    +0.000 A 
ATOM      9  N   UNL     1       0.677  10.026  20.148  0.00  0.00    +0.000 N 
ATOM     10  C   UNL     1      -0.185  10.284  21.273  0.00  0.00    +0.000 C 
ENDROOT
BRANCH   5  11
ATOM     11  N   UNL     1       3.144   5.505  18.233  0.00  0.00    +0.000 N 
ATOM     12  C   UNL     1       2.385   4.492  17.661  0.00  0.00    +0.000 C 
ATOM     13  O   UNL     1       1.171   4.539  17.499  0.00  0.00    +0.000 OA
ATOM     14  H   UNL     1       4.115   5.333  18.465  0.00  0.00    +0.000 HD
BRANCH  12  15
ATOM     15  C   UNL     1       3.202   3.273  17.232  0.00  0.00    +0.000 C 
BRANCH  15  16
ATOM     16  O   UNL     1       4.531   3.497  17.686  0.00  0.00    +0.000 OA
BRANCH  16  17
ATOM     17  C   UNL     1       5.430   4.009  16.796  0.00  0.00    +0.000 A 
ATOM     18  C   UNL     1       6.523   4.819  17.097  0.00  0.00    +0.000 A 
ATOM     19  C   UNL     1       7.377   5.246  16.080  0.00  0.00    +0.000 A 
ATOM     20  C   UNL     1       7.140   4.875  14.755  0.00  0.00    +0.000 A 
ATOM     21  C   UNL     1       6.044   4.071  14.435  0.00  0.00    +0.000 A 
ATOM     22  C   UNL     1       5.765   3.660  13.019  0.00  0.00    +0.000 C 
ATOM     23  C   UNL     1       5.194   3.646  15.466  0.00  0.00    +0.000 A 
ENDBRANCH  16  17
ENDBRANCH  15  16
ENDBRANCH  12  15
ENDBRANCH   5  11
BRANCH   1  24
ATOM     24  C   UNL     1       0.560  12.303  18.963  0.00  0.00    +0.000 C 
BRANCH  24  31
ATOM     25  C   UNL     1       1.074  18.133  18.498  0.00  0.00    +0.000 C 
ATOM     26  C   UNL     1       2.041  17.031  18.151  0.00  0.00    +0.000 C 
ATOM     27  O   UNL     1       3.128  17.299  17.640  0.00  0.00    +0.000 OA
ATOM     28  N   UNL     1       1.657  15.741  18.477  0.00  0.00    +0.000 N 
ATOM     29  C   UNL     1       2.583  14.618  18.279  0.00  0.00    +0.000 C 
ATOM     30  C   UNL     1       2.563  13.645  19.485  0.00  0.00    +0.000 C 
ATOM     31  N   UNL     1       1.215  13.202  19.939  0.00  0.00    +0.000 NA
ATOM     32  C   UNL     1       0.401  14.436  20.150  0.00  0.00    +0.000 C 
ATOM     33  C   UNL     1       0.315  15.354  18.915  0.00  0.00    +0.000 C 
ENDBRANCH  24  31
ENDBRANCH   1  24
TORSDOF 6
ENDMDL
MODEL 2
REMARK VINA RESULT:      -8.2      1.168      1.598
REMARK  Name = 
REMARK  9 active torsions:
REMARK  status: ('A' for Active; 'I' for Inactive)
REMARK    1  A    between atoms: C_1  and  C_2
REMARK    2  A    between atoms: N_7  and  C_8
REMARK    3  A    between atoms: C_8  and  C_9
REMARK    4  A    between atoms: C_13  and  N_14
REMARK    5  A    between atoms: C_15  and  C_17
REMARK    6  A    between atoms: C_17  and  O_18
REMARK    7  A    between atoms: O_18  and  C_19
REMARK    8  A    between atoms: C_23  and  C_24
REMARK    9  A    between atoms: N_29  and  C_30
REMARK                            x       y       z     vdW  Elec       q    Type
REMARK                         _______ _______ _______ _____ _____    ______ ____
ROOT
ATOM      1  C   UNL     1       0.644  10.265  19.273  0.00  0.00    +0.000 A 
ATOM      2  N   UNL     1       1.338   9.942  18.191  0.00  0.00    +0.000 NA
ATOM      3  C   UNL     1       1.938   8.733  18.464  0.00  0.00    +0.000 A 
ATOM      4  C   UNL     1       2.771   7.937  17.666  0.00  0.00    +0.000 A 
ATOM      5  C   UNL     1       3.294   6.759  18.209  0.00  0.00    +0.000 A 
ATOM      6  C   UNL     1       3.025   6.395  19.539  0.00  0.00    +0.000 A 
ATOM      7  C   UNL     1       2.175   7.160  20.328  0.00  0.00    +0.000 A 
ATOM      8  C   UNL     1       1.627   8.317  19.748  0.00  0.00    +0.000 A 
ATOM      9  N   UNL     1       0.703   9.240  20.192  0.00  0.00    +0.000 N 
ATOM     10  C   UNL     1      -0.095   9.063  21.378  0.00  0.00    +0.000 C 
ENDROOT
BRANCH   5  11
ATOM     11  N   UNL     1       4.129   5.963  17.414  0.00  0.00    +0.000 N 
ATOM     12  C   UNL     1       3.788   4.654  17.099  0.00  0.00    +0.000 C 
ATOM     13  O   UNL     1       2.709   4.133  17.362  0.00  0.00    +0.000 OA
ATOM     14  H   UNL     1       5.086   6.274  17.295  0.00  0.00    +0.000 HD
BRANCH  12  15
ATOM     15  C   UNL     1       4.891   3.884  16.373  0.00  0.00    +0.000 C 
BRANCH  15  16
ATOM     16  O   UNL     1       5.815   4.854  15.897  0.00  0.00    +0.000 OA
BRANCH  16  17
ATOM     17  C   UNL     1       6.301   4.703  14.631  0.00  0.00    +0.000 A 
ATOM     18  C   UNL     1       7.414   5.342  14.089  0.00  0.00    +0.000 A 
ATOM     19  C   UNL     1       7.811   5.065  12.780  0.00  0.00    +0.000 A 
ATOM     20  C   UNL     1       7.094   4.156  12.001  0.00  0.00    +0.000 A 
ATOM     21  C   UNL     1       5.969   3.514  12.525  0.00  0.00    +0.000 A 
ATOM     22  C   UNL     1       5.179   2.535  11.708  0.00  0.00    +0.000 C 
ATOM     23  C   UNL     1       5.581   3.798  13.842  0.00  0.00    +0.000 A 
ENDBRANCH  16  17
ENDBRANCH  15  16
ENDBRANCH  12  15
ENDBRANCH   5  11
BRANCH   1  24
ATOM     24  C   UNL     1      -0.131  11.549  19.433  0.00  0.00    +0.000 C 
BRANCH  24  31
ATOM     25  C   UNL     1       0.963  17.259  18.620  0.00  0.00    +0.000 C 
ATOM     26  C   UNL     1       1.877  16.065  18.548  0.00  0.00    +0.000 C 
ATOM     27  O   UNL     1       3.057  16.206  18.230  0.00  0.00    +0.000 OA
ATOM     28  N   UNL     1       1.330  14.840  18.895  0.00  0.00    +0.000 N 
ATOM     29  C   UNL     1       2.175  13.641  18.963  0.00  0.00    +0.000 C 
ATOM     30  C   UNL     1       1.853  12.788  20.216  0.00  0.00    +0.000 C 
ATOM     31  N   UNL     1       0.412  12.486  20.441  0.00  0.00    +0.000 NA
ATOM     32  C   UNL     1      -0.316  13.788  20.400  0.00  0.00    +0.000 C 
ATOM     33  C   UNL     1      -0.097  14.592  19.103  0.00  0.00    +0.000 C 
ENDBRANCH  24  31
ENDBRANCH   1  24
TORSDOF 6
ENDMDL
MODEL 3
REMARK VINA RESULT:      -8.2      1.595      2.185
REMARK  Name = 
REMARK  9 active torsions:
REMARK  status: ('A' for Active; 'I' for Inactive)
REMARK    1  A    between atoms: C_1  and  C_2
REMARK    2  A    between atoms: N_7  and  C_8
REMARK    3  A    between atoms: C_8  and  C_9
REMARK    4  A    between atoms: C_13  and  N_14
REMARK    5  A    between atoms: C_15  and  C_17
REMARK    6  A    between atoms: C_17  and  O_18
REMARK    7  A    between atoms: O_18  and  C_19
REMARK    8  A    between atoms: C_23  and  C_24
REMARK    9  A    between atoms: N_29  and  C_30
REMARK                            x       y       z     vdW  Elec       q    Type
REMARK                         _______ _______ _______ _____ _____    ______ ____
ROOT
ATOM      1  C   UNL     1       1.043  10.229  19.579  0.00  0.00    +0.000 A 
ATOM      2  N   UNL     1       1.568   9.728  18.469  0.00  0.00    +0.000 NA
ATOM      3  C   UNL     1       1.880   8.416  18.747  0.00  0.00    +0.000 A 
ATOM      4  C   UNL     1       2.445   7.429  17.929  0.00  0.00    +0.000 A 
ATOM      5  C   UNL     1       2.709   6.171  18.480  0.00  0.00    +0.000 A 
ATOM      6  C   UNL     1       2.449   5.908  19.836  0.00  0.00    +0.000 A 
ATOM      7  C   UNL     1       1.860   6.869  20.647  0.00  0.00    +0.000 A 
ATOM      8  C   UNL     1       1.565   8.112  20.062  0.00  0.00    +0.000 A 
ATOM      9  N   UNL     1       0.918   9.238  20.528  0.00  0.00    +0.000 N 
ATOM     10  C   UNL     1       0.181   9.280  21.765  0.00  0.00    +0.000 C 
ENDROOT
BRANCH   5  11
ATOM     11  N   UNL     1       3.276   5.183  17.665  0.00  0.00    +0.000 N 
ATOM     12  C   UNL     1       4.612   5.237  17.293  0.00  0.00    +0.000 C 
ATOM     13  O   UNL     1       5.424   6.046  17.730  0.00  0.00    +0.000 OA
ATOM     14  H   UNL     1       2.638   4.584  17.155  0.00  0.00    +0.000 HD
BRANCH  12  15
ATOM     15  C   UNL     1       5.014   4.178  16.267  0.00  0.00    +0.000 C 
BRANCH  15  16
ATOM     16  O   UNL     1       6.360   4.457  15.904  0.00  0.00    +0.000 OA
BRANCH  16  17
ATOM     17  C   UNL     1       6.669   4.484  14.575  0.00  0.00    +0.000 A 
ATOM     18  C   UNL     1       7.609   5.308  13.960  0.00  0.00    +0.000 A 
ATOM     19  C   UNL     1       7.839   5.203  12.587  0.00  0.00    +0.000 A 
ATOM     20  C   UNL     1       7.126   4.281  11.819  0.00  0.00    +0.000 A 
ATOM     21  C   UNL     1       6.173   3.453  12.419  0.00  0.00    +0.000 A 
ATOM     22  C   UNL     1       5.390   2.457  11.615  0.00  0.00    +0.000 C 
ATOM     23  C   UNL     1       5.952   3.567  13.798  0.00  0.00    +0.000 A 
ENDBRANCH  16  17
ENDBRANCH  15  16
ENDBRANCH  12  15
ENDBRANCH   5  11
BRANCH   1  24
ATOM     24  C   UNL     1       0.608  11.664  19.740  0.00  0.00    +0.000 C 
BRANCH  24  31
ATOM     25  C   UNL     1       2.291  17.273  19.326  0.00  0.00    +0.000 C 
ATOM     26  C   UNL     1       0.918  16.666  19.443  0.00  0.00    +0.000 C 
ATOM     27  O   UNL     1      -0.074  17.390  19.515  0.00  0.00    +0.000 OA
ATOM     28  N   UNL     1       0.845  15.283  19.420  0.00  0.00    +0.000 N 
ATOM     29  C   UNL     1      -0.460  14.608  19.415  0.00  0.00    +0.000 C 
ATOM     30  C   UNL     1      -0.487  13.429  18.410  0.00  0.00    +0.000 C 
ATOM     31  N   UNL     1       0.651  12.473  18.502  0.00  0.00    +0.000 NA
ATOM     32  C   UNL     1       1.905  13.283  18.443  0.00  0.00    +0.000 C 
ATOM     33  C   UNL     1       1.995  14.383  19.518  0.00  0.00    +0.000 C 
ENDBRANCH  24  31
ENDBRANCH   1  24
TORSDOF 6
ENDMDL
MODEL 4
REMARK VINA RESULT:      -8.1      2.852      3.738
REMARK  Name = 
REMARK  9 active torsions:
REMARK  status: ('A' for Active; 'I' for Inactive)
REMARK    1  A    between atoms: C_1  and  C_2
REMARK    2  A    between atoms: N_7  and  C_8
REMARK    3  A    between atoms: C_8  and  C_9
REMARK    4  A    between atoms: C_13  and  N_14
REMARK    5  A    between atoms: C_15  and  C_17
REMARK    6  A    between atoms: C_17  and  O_18
REMARK    7  A    between atoms: O_18  and  C_19
REMARK    8  A    between atoms: C_23  and  C_24
REMARK    9  A    between atoms: N_29  and  C_30
REMARK                            x       y       z     vdW  Elec       q    Type
REMARK                         _______ _______ _______ _____ _____    ______ ____
ROOT
ATOM      1  C   UNL     1      -0.463  10.944  20.680  0.00  0.00    +0.000 A 
ATOM      2  N   UNL     1      -0.072   9.845  21.309  0.00  0.00    +0.000 NA
ATOM      3  C   UNL     1       0.792   9.197  20.455  0.00  0.00    +0.000 A 
ATOM      4  C   UNL     1       1.501   8.000  20.622  0.00  0.00    +0.000 A 
ATOM      5  C   UNL     1       2.285   7.531  19.563  0.00  0.00    +0.000 A 
ATOM      6  C   UNL     1       2.335   8.222  18.341  0.00  0.00    +0.000 A 
ATOM      7  C   UNL     1       1.662   9.426  18.175  0.00  0.00    +0.000 A 
ATOM      8  C   UNL     1       0.915   9.900  19.266  0.00  0.00    +0.000 A 
ATOM      9  N   UNL     1       0.211  11.066  19.485  0.00  0.00    +0.000 N 
ATOM     10  C   UNL     1       0.280  12.214  18.618  0.00  0.00    +0.000 C 
ENDROOT
BRANCH   5  11
ATOM     11  N   UNL     1       2.993   6.334  19.726  0.00  0.00    +0.000 N 
ATOM     12  C   UNL     1       2.581   5.163  19.103  0.00  0.00    +0.000 C 
ATOM     13  O   UNL     1       1.675   5.095  18.279  0.00  0.00    +0.000 OA
ATOM     14  H   UNL     1       3.646   6.286  20.499  0.00  0.00    +0.000 HD
BRANCH  12  15
ATOM     15  C   UNL     1       3.366   3.923  19.530  0.00  0.00    +0.000 C 
BRANCH  15  16
ATOM     16  O   UNL     1       3.843   3.317  18.336  0.00  0.00    +0.000 OA
BRANCH  16  17
ATOM     17  C   UNL     1       4.963   3.843  17.759  0.00  0.00    +0.000 A 
ATOM     18  C   UNL     1       6.025   4.457  18.420  0.00  0.00    +0.000 A 
ATOM     19  C   UNL     1       7.122   4.925  17.696  0.00  0.00    +0.000 A 
ATOM     20  C   UNL     1       7.163   4.790  16.307  0.00  0.00    +0.000 A 
ATOM     21  C   UNL     1       6.103   4.184  15.628  0.00  0.00    +0.000 A 
ATOM     22  C   UNL     1       6.120   4.030  14.135  0.00  0.00    +0.000 C 
ATOM     23  C   UNL     1       5.006   3.717  16.366  0.00  0.00    +0.000 A 
ENDBRANCH  16  17
ENDBRANCH  15  16
ENDBRANCH  12  15
ENDBRANCH   5  11
BRANCH   1  24
ATOM     24  C   UNL     1      -1.464  11.928  21.234  0.00  0.00    +0.000 C 
BRANCH  24  31
ATOM     25  C   UNL     1      -4.613  15.862  24.245  0.00  0.00    +0.000 C 
ATOM     26  C   UNL     1      -3.520  16.052  23.226  0.00  0.00    +0.000 C 
ATOM     27  O   UNL     1      -3.195  17.184  22.870  0.00  0.00    +0.000 OA
ATOM     28  N   UNL     1      -2.894  14.905  22.764  0.00  0.00    +0.000 N 
ATOM     29  C   UNL     1      -1.744  15.002  21.856  0.00  0.00    +0.000 C 
ATOM     30  C   UNL     1      -0.621  14.009  22.253  0.00  0.00    +0.000 C 
ATOM     31  N   UNL     1      -1.052  12.603  22.484  0.00  0.00    +0.000 NA
ATOM     32  C   UNL     1      -2.183  12.649  23.458  0.00  0.00    +0.000 C 
ATOM     33  C   UNL     1      -3.359  13.540  23.015  0.00  0.00    +0.000 C 
ENDBRANCH  24  31
ENDBRANCH   1  24
TORSDOF 6
ENDMDL
MODEL 5
REMARK VINA RESULT:      -8.1      2.067      2.632
REMARK  Name = 
REMARK  9 active torsions:
REMARK  status: ('A' for Active; 'I' for Inactive)
REMARK    1  A    between atoms: C_1  and  C_2
REMARK    2  A    between atoms: N_7  and  C_8
REMARK    3  A    between atoms: C_8  and  C_9
REMARK    4  A    between atoms: C_13  and  N_14
REMARK    5  A    between atoms: C_15  and  C_17
REMARK    6  A    between atoms: C_17  and  O_18
REMARK    7  A    between atoms: O_18  and  C_19
REMARK    8  A    between atoms: C_23  and  C_24
REMARK    9  A    between atoms: N_29  and  C_30
REMARK                            x       y       z     vdW  Elec       q    Type
REMARK                         _______ _______ _______ _____ _____    ______ ____
ROOT
ATOM      1  C   UNL     1       1.045  10.079  19.858  0.00  0.00    +0.000 A 
ATOM      2  N   UNL     1       1.632   9.651  18.749  0.00  0.00    +0.000 NA
ATOM      3  C   UNL     1       1.894   8.313  18.942  0.00  0.00    +0.000 A 
ATOM      4  C   UNL     1       2.491   7.377  18.088  0.00  0.00    +0.000 A 
ATOM      5  C   UNL     1       2.687   6.072  18.553  0.00  0.00    +0.000 A 
ATOM      6  C   UNL     1       2.329   5.712  19.863  0.00  0.00    +0.000 A 
ATOM      7  C   UNL     1       1.709   6.624  20.707  0.00  0.00    +0.000 A 
ATOM      8  C   UNL     1       1.483   7.916  20.204  0.00  0.00    +0.000 A 
ATOM      9  N   UNL     1       0.833   9.020  20.714  0.00  0.00    +0.000 N 
ATOM     10  C   UNL     1       0.014   8.987  21.899  0.00  0.00    +0.000 C 
ENDROOT
BRANCH   5  11
ATOM     11  N   UNL     1       3.286   5.135  17.701  0.00  0.00    +0.000 N 
ATOM     12  C   UNL     1       4.626   5.232  17.353  0.00  0.00    +0.000 C 
ATOM     13  O   UNL     1       5.416   6.035  17.840  0.00  0.00    +0.000 OA
ATOM     14  H   UNL     1       2.667   4.549  17.154  0.00  0.00    +0.000 HD
BRANCH  12  15
ATOM     15  C   UNL     1       5.063   4.231  16.284  0.00  0.00    +0.000 C 
BRANCH  15  16
ATOM     16  O   UNL     1       6.388   4.590  15.912  0.00  0.00    +0.000 OA
BRANCH  16  17
ATOM     17  C   UNL     1       6.697   4.591  14.582  0.00  0.00    +0.000 A 
ATOM     18  C   UNL     1       7.628   5.412  13.949  0.00  0.00    +0.000 A 
ATOM     19  C   UNL     1       7.860   5.279  12.580  0.00  0.00    +0.000 A 
ATOM     20  C   UNL     1       7.157   4.332  11.832  0.00  0.00    +0.000 A 
ATOM     21  C   UNL     1       6.214   3.508  12.449  0.00  0.00    +0.000 A 
ATOM     22  C   UNL     1       5.443   2.485  11.668  0.00  0.00    +0.000 C 
ATOM     23  C   UNL     1       5.991   3.649  13.826  0.00  0.00    +0.000 A 
ENDBRANCH  16  17
ENDBRANCH  15  16
ENDBRANCH  12  15
ENDBRANCH   5  11
BRANCH   1  24
ATOM     24  C   UNL     1       0.633  11.509  20.103  0.00  0.00    +0.000 C 
BRANCH  24  31
ATOM     25  C   UNL     1      -0.904  17.019  18.783  0.00  0.00    +0.000 C 
ATOM     26  C   UNL     1      -1.282  16.147  19.952  0.00  0.00    +0.000 C 
ATOM     27  O   UNL     1      -1.992  16.593  20.852  0.00  0.00    +0.000 OA
ATOM     28  N   UNL     1      -0.829  14.838  19.925  0.00  0.00    +0.000 N 
ATOM     29  C   UNL     1      -1.242  13.887  20.964  0.00  0.00    +0.000 C 
ATOM     30  C   UNL     1      -1.607  12.508  20.361  0.00  0.00    +0.000 C 
ATOM     31  N   UNL     1      -0.610  11.928  19.419  0.00  0.00    +0.000 NA
ATOM     32  C   UNL     1      -0.322  12.974  18.393  0.00  0.00    +0.000 C 
ATOM     33  C   UNL     1       0.159  14.316  18.979  0.00  0.00    +0.000 C 
ENDBRANCH  24  31
ENDBRANCH   1  24
TORSDOF 6
ENDMDL
MODEL 6
REMARK VINA RESULT:      -8.0      2.983      3.894
REMARK  Name = 
REMARK  9 active torsions:
REMARK  status: ('A' for Active; 'I' for Inactive)
REMARK    1  A    between atoms: C_1  and  C_2
REMARK    2  A    between atoms: N_7  and  C_8
REMARK    3  A    between atoms: C_8  and  C_9
REMARK    4  A    between atoms: C_13  and  N_14
REMARK    5  A    between atoms: C_15  and  C_17
REMARK    6  A    between atoms: C_17  and  O_18
REMARK    7  A    between atoms: O_18  and  C_19
REMARK    8  A    between atoms: C_23  and  C_24
REMARK    9  A    between atoms: N_29  and  C_30
REMARK                            x       y       z     vdW  Elec       q    Type
REMARK                         _______ _______ _______ _____ _____    ______ ____
ROOT
ATOM      1  C   UNL     1       0.730   9.910  19.767  0.00  0.00    +0.000 A 
ATOM      2  N   UNL     1       1.476   9.711  18.690  0.00  0.00    +0.000 NA
ATOM      3  C   UNL     1       2.033   8.459  18.830  0.00  0.00    +0.000 A 
ATOM      4  C   UNL     1       2.890   7.749  17.979  0.00  0.00    +0.000 A 
ATOM      5  C   UNL     1       3.356   6.495  18.388  0.00  0.00    +0.000 A 
ATOM      6  C   UNL     1       3.004   5.969  19.642  0.00  0.00    +0.000 A 
ATOM      7  C   UNL     1       2.130   6.649  20.480  0.00  0.00    +0.000 A 
ATOM      8  C   UNL     1       1.641   7.887  20.031  0.00  0.00    +0.000 A 
ATOM      9  N   UNL     1       0.716   8.772  20.544  0.00  0.00    +0.000 N 
ATOM     10  C   UNL     1      -0.151   8.465  21.653  0.00  0.00    +0.000 C 
ENDROOT
BRANCH   5  11
ATOM     11  N   UNL     1       4.215   5.785  17.539  0.00  0.00    +0.000 N 
ATOM     12  C   UNL     1       3.884   4.518  17.077  0.00  0.00    +0.000 C 
ATOM     13  O   UNL     1       2.798   3.976  17.249  0.00  0.00    +0.000 OA
ATOM     14  H   UNL     1       5.175   6.104  17.484  0.00  0.00    +0.000 HD
BRANCH  12  15
ATOM     15  C   UNL     1       5.009   3.826  16.308  0.00  0.00    +0.000 C 
BRANCH  15  16
ATOM     16  O   UNL     1       5.828   4.859  15.774  0.00  0.00    +0.000 OA
BRANCH  16  17
ATOM     17  C   UNL     1       6.322   4.692  14.512  0.00  0.00    +0.000 A 
ATOM     18  C   UNL     1       7.434   5.330  13.966  0.00  0.00    +0.000 A 
ATOM     19  C   UNL     1       7.840   5.035  12.664  0.00  0.00    +0.000 A 
ATOM     20  C   UNL     1       7.133   4.109  11.896  0.00  0.00    +0.000 A 
ATOM     21  C   UNL     1       6.010   3.466  12.424  0.00  0.00    +0.000 A 
ATOM     22  C   UNL     1       5.231   2.469  11.618  0.00  0.00    +0.000 C 
ATOM     23  C   UNL     1       5.613   3.769  13.734  0.00  0.00    +0.000 A 
ENDBRANCH  16  17
ENDBRANCH  15  16
ENDBRANCH  12  15
ENDBRANCH   5  11
BRANCH   1  24
ATOM     24  C   UNL     1      -0.022  11.185  20.055  0.00  0.00    +0.000 C 
BRANCH  24  31
ATOM     25  C   UNL     1      -5.536  12.929  19.044  0.00  0.00    +0.000 C 
ATOM     26  C   UNL     1      -4.794  11.702  18.583  0.00  0.00    +0.000 C 
ATOM     27  O   UNL     1      -5.371  10.844  17.916  0.00  0.00    +0.000 OA
ATOM     28  N   UNL     1      -3.451  11.626  18.912  0.00  0.00    +0.000 N 
ATOM     29  C   UNL     1      -2.624  10.522  18.409  0.00  0.00    +0.000 C 
ATOM     30  C   UNL     1      -1.242  11.024  17.917  0.00  0.00    +0.000 C 
ATOM     31  N   UNL     1      -0.502  11.910  18.858  0.00  0.00    +0.000 NA
ATOM     32  C   UNL     1      -1.437  13.009  19.246  0.00  0.00    +0.000 C 
ATOM     33  C   UNL     1      -2.768  12.520  19.849  0.00  0.00    +0.000 C 
ENDBRANCH  24  31
ENDBRANCH   1  24
TORSDOF 6
ENDMDL
MODEL 7
REMARK VINA RESULT:      -8.0      0.814      1.617
REMARK  Name = 
REMARK  9 active torsions:
REMARK  status: ('A' for Active; 'I' for Inactive)
REMARK    1  A    between atoms: C_1  and  C_2
REMARK    2  A    between atoms: N_7  and  C_8
REMARK    3  A    between atoms: C_8  and  C_9
REMARK    4  A    between atoms: C_13  and  N_14
REMARK    5  A    between atoms: C_15  and  C_17
REMARK    6  A    between atoms: C_17  and  O_18
REMARK    7  A    between atoms: O_18  and  C_19
REMARK    8  A    between atoms: C_23  and  C_24
REMARK    9  A    between atoms: N_29  and  C_30
REMARK                            x       y       z     vdW  Elec       q    Type
REMARK                         _______ _______ _______ _____ _____    ______ ____
ROOT
ATOM      1  C   UNL     1       0.946  10.965  19.529  0.00  0.00    +0.000 A 
ATOM      2  N   UNL     1       1.354  10.350  18.428  0.00  0.00    +0.000 NA
ATOM      3  C   UNL     1       1.608   9.045  18.785  0.00  0.00    +0.000 A 
ATOM      4  C   UNL     1       2.050   7.965  18.009  0.00  0.00    +0.000 A 
ATOM      5  C   UNL     1       2.279   6.736  18.637  0.00  0.00    +0.000 A 
ATOM      6  C   UNL     1       2.108   6.592  20.024  0.00  0.00    +0.000 A 
ATOM      7  C   UNL     1       1.640   7.647  20.797  0.00  0.00    +0.000 A 
ATOM      8  C   UNL     1       1.376   8.859  20.139  0.00  0.00    +0.000 A 
ATOM      9  N   UNL     1       0.835  10.056  20.559  0.00  0.00    +0.000 N 
ATOM     10  C   UNL     1       0.198  10.238  21.839  0.00  0.00    +0.000 C 
ENDROOT
BRANCH   5  11
ATOM     11  N   UNL     1       2.723   5.656  17.864  0.00  0.00    +0.000 N 
ATOM     12  C   UNL     1       2.178   4.388  18.020  0.00  0.00    +0.000 C 
ATOM     13  O   UNL     1       1.207   4.129  18.723  0.00  0.00    +0.000 OA
ATOM     14  H   UNL     1       3.608   5.765  17.385  0.00  0.00    +0.000 HD
BRANCH  12  15
ATOM     15  C   UNL     1       2.898   3.301  17.222  0.00  0.00    +0.000 C 
BRANCH  15  16
ATOM     16  O   UNL     1       4.196   3.176  17.791  0.00  0.00    +0.000 OA
BRANCH  16  17
ATOM     17  C   UNL     1       5.196   3.944  17.270  0.00  0.00    +0.000 A 
ATOM     18  C   UNL     1       5.474   4.135  15.918  0.00  0.00    +0.000 A 
ATOM     19  C   UNL     1       6.518   4.977  15.531  0.00  0.00    +0.000 A 
ATOM     20  C   UNL     1       7.296   5.626  16.492  0.00  0.00    +0.000 A 
ATOM     21  C   UNL     1       7.037   5.438  17.852  0.00  0.00    +0.000 A 
ATOM     22  C   UNL     1       7.860   6.120  18.904  0.00  0.00    +0.000 C 
ATOM     23  C   UNL     1       5.984   4.591  18.228  0.00  0.00    +0.000 A 
ENDBRANCH  16  17
ENDBRANCH  15  16
ENDBRANCH  12  15
ENDBRANCH   5  11
BRANCH   1  24
ATOM     24  C   UNL     1       0.611  12.433  19.607  0.00  0.00    +0.000 C 
BRANCH  24  31
ATOM     25  C   UNL     1       1.262  18.246  19.110  0.00  0.00    +0.000 C 
ATOM     26  C   UNL     1       1.994  17.115  18.436  0.00  0.00    +0.000 C 
ATOM     27  O   UNL     1       2.858  17.352  17.593  0.00  0.00    +0.000 OA
ATOM     28  N   UNL     1       1.670  15.832  18.847  0.00  0.00    +0.000 N 
ATOM     29  C   UNL     1       2.412  14.676  18.326  0.00  0.00    +0.000 C 
ATOM     30  C   UNL     1       2.744  13.661  19.449  0.00  0.00    +0.000 C 
ATOM     31  N   UNL     1       1.605  13.264  20.322  0.00  0.00    +0.000 NA
ATOM     32  C   UNL     1       0.979  14.525  20.820  0.00  0.00    +0.000 C 
ATOM     33  C   UNL     1       0.534  15.491  19.705  0.00  0.00    +0.000 C 
ENDBRANCH  24  31
ENDBRANCH   1  24
TORSDOF 6
ENDMDL
MODEL 8
REMARK VINA RESULT:      -8.0      3.184      4.263
REMARK  Name = 
REMARK  9 active torsions:
REMARK  status: ('A' for Active; 'I' for Inactive)
REMARK    1  A    between atoms: C_1  and  C_2
REMARK    2  A    between atoms: N_7  and  C_8
REMARK    3  A    between atoms: C_8  and  C_9
REMARK    4  A    between atoms: C_13  and  N_14
REMARK    5  A    between atoms: C_15  and  C_17
REMARK    6  A    between atoms: C_17  and  O_18
REMARK    7  A    between atoms: O_18  and  C_19
REMARK    8  A    between atoms: C_23  and  C_24
REMARK    9  A    between atoms: N_29  and  C_30
REMARK                            x       y       z     vdW  Elec       q    Type
REMARK                         _______ _______ _______ _____ _____    ______ ____
ROOT
ATOM      1  C   UNL     1      -0.670  11.147  20.612  0.00  0.00    +0.000 A 
ATOM      2  N   UNL     1      -0.347  10.035  21.258  0.00  0.00    +0.000 NA
ATOM      3  C   UNL     1       0.560   9.374  20.461  0.00  0.00    +0.000 A 
ATOM      4  C   UNL     1       1.229   8.160  20.666  0.00  0.00    +0.000 A 
ATOM      5  C   UNL     1       2.074   7.680  19.661  0.00  0.00    +0.000 A 
ATOM      6  C   UNL     1       2.225   8.378  18.451  0.00  0.00    +0.000 A 
ATOM      7  C   UNL     1       1.591   9.598  18.249  0.00  0.00    +0.000 A 
ATOM      8  C   UNL     1       0.780  10.081  19.289  0.00  0.00    +0.000 A 
ATOM      9  N   UNL     1       0.089  11.261  19.468  0.00  0.00    +0.000 N 
ATOM     10  C   UNL     1       0.244  12.413  18.617  0.00  0.00    +0.000 C 
ENDROOT
BRANCH   5  11
ATOM     11  N   UNL     1       2.742   6.466  19.864  0.00  0.00    +0.000 N 
ATOM     12  C   UNL     1       2.547   5.386  19.012  0.00  0.00    +0.000 C 
ATOM     13  O   UNL     1       1.903   5.430  17.969  0.00  0.00    +0.000 OA
ATOM     14  H   UNL     1       3.161   6.317  20.774  0.00  0.00    +0.000 HD
BRANCH  12  15
ATOM     15  C   UNL     1       3.219   4.097  19.482  0.00  0.00    +0.000 C 
BRANCH  15  16
ATOM     16  O   UNL     1       4.612   4.372  19.559  0.00  0.00    +0.000 OA
BRANCH  16  17
ATOM     17  C   UNL     1       5.266   4.672  18.398  0.00  0.00    +0.000 A 
ATOM     18  C   UNL     1       5.192   3.965  17.200  0.00  0.00    +0.000 A 
ATOM     19  C   UNL     1       5.898   4.410  16.082  0.00  0.00    +0.000 A 
ATOM     20  C   UNL     1       6.690   5.557  16.156  0.00  0.00    +0.000 A 
ATOM     21  C   UNL     1       6.783   6.272  17.352  0.00  0.00    +0.000 A 
ATOM     22  C   UNL     1       7.630   7.506  17.459  0.00  0.00    +0.000 C 
ATOM     23  C   UNL     1       6.067   5.817  18.468  0.00  0.00    +0.000 A 
ENDBRANCH  16  17
ENDBRANCH  15  16
ENDBRANCH  12  15
ENDBRANCH   5  11
BRANCH   1  24
ATOM     24  C   UNL     1      -1.684  12.149  21.102  0.00  0.00    +0.000 C 
BRANCH  24  31
ATOM     25  C   UNL     1      -5.215  15.796  24.052  0.00  0.00    +0.000 C 
ATOM     26  C   UNL     1      -3.751  15.904  23.717  0.00  0.00    +0.000 C 
ATOM     27  O   UNL     1      -3.116  16.908  24.036  0.00  0.00    +0.000 OA
ATOM     28  N   UNL     1      -3.174  14.814  23.086  0.00  0.00    +0.000 N 
ATOM     29  C   UNL     1      -1.730  14.786  22.824  0.00  0.00    +0.000 C 
ATOM     30  C   UNL     1      -1.119  13.399  23.152  0.00  0.00    +0.000 C 
ATOM     31  N   UNL     1      -1.828  12.225  22.573  0.00  0.00    +0.000 NA
ATOM     32  C   UNL     1      -3.266  12.353  22.957  0.00  0.00    +0.000 C 
ATOM     33  C   UNL     1      -3.917  13.682  22.528  0.00  0.00    +0.000 C 
ENDBRANCH  24  31
ENDBRANCH   1  24
TORSDOF 6
ENDMDL
MODEL 9
REMARK VINA RESULT:      -7.9      3.219      4.106
REMARK  Name = 
REMARK  9 active torsions:
REMARK  status: ('A' for Active; 'I' for Inactive)
REMARK    1  A    between atoms: C_1  and  C_2
REMARK    2  A    between atoms: N_7  and  C_8
REMARK    3  A    between atoms: C_8  and  C_9
REMARK    4  A    between atoms: C_13  and  N_14
REMARK    5  A    between atoms: C_15  and  C_17
REMARK    6  A    between atoms: C_17  and  O_18
REMARK    7  A    between atoms: O_18  and  C_19
REMARK    8  A    between atoms: C_23  and  C_24
REMARK    9  A    between atoms: N_29  and  C_30
REMARK                            x       y       z     vdW  Elec       q    Type
REMARK                         _______ _______ _______ _____ _____    ______ ____
ROOT
ATOM      1  C   UNL     1      -0.071  11.242  21.416  0.00  0.00    +0.000 A 
ATOM      2  N   UNL     1       0.377  10.131  21.984  0.00  0.00    +0.000 NA
ATOM      3  C   UNL     1       0.991   9.407  20.987  0.00  0.00    +0.000 A 
ATOM      4  C   UNL     1       1.641   8.167  21.040  0.00  0.00    +0.000 A 
ATOM      5  C   UNL     1       2.145   7.622  19.854  0.00  0.00    +0.000 A 
ATOM      6  C   UNL     1       1.973   8.283  18.626  0.00  0.00    +0.000 A 
ATOM      7  C   UNL     1       1.358   9.527  18.567  0.00  0.00    +0.000 A 
ATOM      8  C   UNL     1       0.897  10.074  19.776  0.00  0.00    +0.000 A 
ATOM      9  N   UNL     1       0.334  11.291  20.100  0.00  0.00    +0.000 N 
ATOM     10  C   UNL     1       0.287  12.413  19.198  0.00  0.00    +0.000 C 
ENDROOT
BRANCH   5  11
ATOM     11  N   UNL     1       2.794   6.382  19.904  0.00  0.00    +0.000 N 
ATOM     12  C   UNL     1       2.448   5.354  19.036  0.00  0.00    +0.000 C 
ATOM     13  O   UNL     1       1.669   5.469  18.096  0.00  0.00    +0.000 OA
ATOM     14  H   UNL     1       3.327   6.174  20.739  0.00  0.00    +0.000 HD
BRANCH  12  15
ATOM     15  C   UNL     1       3.134   4.024  19.346  0.00  0.00    +0.000 C 
BRANCH  15  16
ATOM     16  O   UNL     1       3.596   3.509  18.104  0.00  0.00    +0.000 OA
BRANCH  16  17
ATOM     17  C   UNL     1       4.817   3.924  17.657  0.00  0.00    +0.000 A 
ATOM     18  C   UNL     1       5.867   4.401  18.440  0.00  0.00    +0.000 A 
ATOM     19  C   UNL     1       7.075   4.763  17.843  0.00  0.00    +0.000 A 
ATOM     20  C   UNL     1       7.240   4.661  16.461  0.00  0.00    +0.000 A 
ATOM     21  C   UNL     1       6.195   4.193  15.660  0.00  0.00    +0.000 A 
ATOM     22  C   UNL     1       6.345   4.076  14.172  0.00  0.00    +0.000 C 
ATOM     23  C   UNL     1       4.986   3.830  16.271  0.00  0.00    +0.000 A 
ENDBRANCH  16  17
ENDBRANCH  15  16
ENDBRANCH  12  15
ENDBRANCH   5  11
BRANCH   1  24
ATOM     24  C   UNL     1      -0.863  12.304  22.136  0.00  0.00    +0.000 C 
BRANCH  24  31
ATOM     25  C   UNL     1      -4.716  16.733  22.208  0.00  0.00    +0.000 C 
ATOM     26  C   UNL     1      -4.264  15.807  23.306  0.00  0.00    +0.000 C 
ATOM     27  O   UNL     1      -4.685  15.954  24.453  0.00  0.00    +0.000 OA
ATOM     28  N   UNL     1      -3.404  14.783  22.943  0.00  0.00    +0.000 N 
ATOM     29  C   UNL     1      -3.003  13.767  23.924  0.00  0.00    +0.000 C 
ATOM     30  C   UNL     1      -3.030  12.343  23.313  0.00  0.00    +0.000 C 
ATOM     31  N   UNL     1      -2.331  12.185  22.007  0.00  0.00    +0.000 NA
ATOM     32  C   UNL     1      -2.870  13.239  21.096  0.00  0.00    +0.000 C 
ATOM     33  C   UNL     1      -2.737  14.673  21.645  0.00  0.00    +0.000 C 
ENDBRANCH  24  31
ENDBRANCH   1  24
TORSDOF 6
ENDMDL
