MODEL 1
REMARK VINA RESULT:      -8.2      0.000      0.000
REMARK  Name = 
REMARK  2 active torsions:
REMARK  status: ('A' for Active; 'I' for Inactive)
REMARK    1  A    between atoms: C_2  and  C_3
REMARK    2  A    between atoms: C_2  and  C_14
REMARK                            x       y       z     vdW  Elec       q    Type
REMARK                         _______ _______ _______ _____ _____    ______ ____
ROOT
ATOM      1  O   UNL     1       3.225   2.590  17.877  0.00  0.00    +0.000 OA
ATOM      2  C   UNL     1       3.739   3.570  18.411  0.00  0.00    +0.000 C 
ENDROOT
BRANCH   2   3
ATOM      3  C   UNL     1       2.975   4.202  19.573  0.00  0.00    +0.000 C 
ATOM      4  O   UNL     1       2.839   3.562  20.611  0.00  0.00    +0.000 OA
ATOM      5  N   UNL     1       2.499   5.482  19.385  0.00  0.00    +0.000 N 
ATOM      6  C   UNL     1       1.932   6.229  20.499  0.00  0.00    +0.000 C 
ATOM      7  C   UNL     1       1.703   7.589  19.923  0.00  0.00    +0.000 A 
ATOM      8  C   UNL     1       1.227   8.724  20.556  0.00  0.00    +0.000 A 
ATOM      9  C   UNL     1       1.100   9.895  19.806  0.00  0.00    +0.000 A 
ATOM     10  C   UNL     1       1.439   9.908  18.443  0.00  0.00    +0.000 A 
ATOM     11  C   UNL     1       1.921   8.760  17.813  0.00  0.00    +0.000 A 
ATOM     12  C   UNL     1       2.057   7.607  18.568  0.00  0.00    +0.000 A 
ATOM     13  C   UNL     1       2.584   6.268  18.154  0.00  0.00    +0.000 C 
ENDBRANCH   2   3
BRANCH   2  14
ATOM     14  C   UNL     1       5.028   4.114  17.990  0.00  0.00    +0.000 A 
ATOM     15  C   UNL     1       6.008   4.634  18.816  0.00  0.00    +0.000 A 
ATOM     16  N   UNL     1       7.060   5.040  18.038  0.00  0.00    +0.000 N 
ATOM     17  C   UNL     1       6.791   4.806  16.711  0.00  0.00    +0.000 A 
ATOM     18  C   UNL     1       7.564   5.075  15.574  0.00  0.00    +0.000 A 
ATOM     19  C   UNL     1       7.025   4.736  14.330  0.00  0.00    +0.000 A 
ATOM     20  C   UNL     1       5.766   4.149  14.234  0.00  0.00    +0.000 A 
ATOM     21 CL   UNL     1       5.131   3.750  12.684  0.00  0.00    +0.000 Cl
ATOM     22  C   UNL     1       5.008   3.882  15.377  0.00  0.00    +0.000 A 
ATOM     23  C   UNL     1       5.526   4.219  16.647  0.00  0.00    +0.000 A 
ATOM     24  H   UNL     1       7.912   5.466  18.384  0.00  0.00    +0.000 HD
ENDBRANCH   2  14
TORSDOF 2
ENDMDL
MODEL 2
REMARK VINA RESULT:      -8.0      0.924      1.039
REMARK  Name = 
REMARK  2 active torsions:
REMARK  status: ('A' for Active; 'I' for Inactive)
REMARK    1  A    between atoms: C_2  and  C_3
REMARK    2  A    between atoms: C_2  and  C_14
REMARK                            x       y       z     vdW  Elec       q    Type
REMARK                         _______ _______ _______ _____ _____    ______ ____
ROOT
ATOM      1  O   UNL     1       2.394   3.575  18.208  0.00  0.00    +0.000 OA
ATOM      2  C   UNL     1       3.070   4.358  18.872  0.00  0.00    +0.000 C 
ENDROOT
BRANCH   2   3
ATOM      3  C   UNL     1       2.351   5.114  19.988  0.00  0.00    +0.000 C 
ATOM      4  O   UNL     1       2.138   4.541  21.051  0.00  0.00    +0.000 OA
ATOM      5  N   UNL     1       2.001   6.423  19.730  0.00  0.00    +0.000 N 
ATOM      6  C   UNL     1       1.490   7.273  20.796  0.00  0.00    +0.000 C 
ATOM      7  C   UNL     1       1.400   8.619  20.153  0.00  0.00    +0.000 A 
ATOM      8  C   UNL     1       1.024   9.823  20.723  0.00  0.00    +0.000 A 
ATOM      9  C   UNL     1       1.020  10.963  19.916  0.00  0.00    +0.000 A 
ATOM     10  C   UNL     1       1.381  10.878  18.561  0.00  0.00    +0.000 A 
ATOM     11  C   UNL     1       1.761   9.661  17.995  0.00  0.00    +0.000 A 
ATOM     12  C   UNL     1       1.776   8.538  18.805  0.00  0.00    +0.000 A 
ATOM     13  C   UNL     1       2.179   7.137  18.466  0.00  0.00    +0.000 C 
ENDBRANCH   2   3
BRANCH   2  14
ATOM     14  C   UNL     1       4.498   4.561  18.641  0.00  0.00    +0.000 A 
ATOM     15  C   UNL     1       5.447   4.873  19.599  0.00  0.00    +0.000 A 
ATOM     16  N   UNL     1       6.665   4.981  18.982  0.00  0.00    +0.000 N 
ATOM     17  C   UNL     1       6.539   4.754  17.632  0.00  0.00    +0.000 A 
ATOM     18  C   UNL     1       7.508   4.777  16.620  0.00  0.00    +0.000 A 
ATOM     19  C   UNL     1       7.086   4.516  15.314  0.00  0.00    +0.000 A 
ATOM     20  C   UNL     1       5.750   4.240  15.038  0.00  0.00    +0.000 A 
ATOM     21 CL   UNL     1       5.264   3.929  13.415  0.00  0.00    +0.000 Cl
ATOM     22  C   UNL     1       4.795   4.216  16.057  0.00  0.00    +0.000 A 
ATOM     23  C   UNL     1       5.192   4.481  17.387  0.00  0.00    +0.000 A 
ATOM     24  H   UNL     1       7.537   5.209  19.446  0.00  0.00    +0.000 HD
ENDBRANCH   2  14
TORSDOF 2
ENDMDL
MODEL 3
REMARK VINA RESULT:      -7.8      2.036      2.938
REMARK  Name = 
REMARK  2 active torsions:
REMARK  status: ('A' for Active; 'I' for Inactive)
REMARK    1  A    between atoms: C_2  and  C_3
REMARK    2  A    between atoms: C_2  and  C_14
REMARK                            x       y       z     vdW  Elec       q    Type
REMARK                         _______ _______ _______ _____ _____    ______ ____
ROOT
ATOM      1  O   UNL     1       1.839   5.391  18.250  0.00  0.00    +0.000 OA
ATOM      2  C   UNL     1       2.790   6.168  18.238  0.00  0.00    +0.000 C 
ENDROOT
BRANCH   2   3
ATOM      3  C   UNL     1       2.466   7.652  18.074  0.00  0.00    +0.000 C 
ATOM      4  O   UNL     1       2.711   8.198  17.003  0.00  0.00    +0.000 OA
ATOM      5  N   UNL     1       1.888   8.288  19.153  0.00  0.00    +0.000 N 
ATOM      6  C   UNL     1       1.372   9.643  19.020  0.00  0.00    +0.000 C 
ATOM      7  C   UNL     1       0.696   9.886  20.330  0.00  0.00    +0.000 A 
ATOM      8  C   UNL     1      -0.018  10.999  20.738  0.00  0.00    +0.000 A 
ATOM      9  C   UNL     1      -0.569  10.997  22.022  0.00  0.00    +0.000 A 
ATOM     10  C   UNL     1      -0.390   9.893  22.872  0.00  0.00    +0.000 A 
ATOM     11  C   UNL     1       0.329   8.773  22.452  0.00  0.00    +0.000 A 
ATOM     12  C   UNL     1       0.860   8.778  21.173  0.00  0.00    +0.000 A 
ATOM     13  C   UNL     1       1.626   7.703  20.467  0.00  0.00    +0.000 C 
ENDBRANCH   2   3
BRANCH   2  14
ATOM     14  C   UNL     1       4.174   5.726  18.390  0.00  0.00    +0.000 A 
ATOM     15  C   UNL     1       4.909   5.722  19.562  0.00  0.00    +0.000 A 
ATOM     16  N   UNL     1       6.160   5.237  19.286  0.00  0.00    +0.000 N 
ATOM     17  C   UNL     1       6.270   4.926  17.952  0.00  0.00    +0.000 A 
ATOM     18  C   UNL     1       7.359   4.422  17.230  0.00  0.00    +0.000 A 
ATOM     19  C   UNL     1       7.186   4.210  15.860  0.00  0.00    +0.000 A 
ATOM     20  C   UNL     1       5.970   4.488  15.244  0.00  0.00    +0.000 A 
ATOM     21 CL   UNL     1       5.794   4.220  13.552  0.00  0.00    +0.000 Cl
ATOM     22  C   UNL     1       4.889   4.986  15.976  0.00  0.00    +0.000 A 
ATOM     23  C   UNL     1       5.038   5.215  17.363  0.00  0.00    +0.000 A 
ATOM     24  H   UNL     1       6.908   5.132  19.963  0.00  0.00    +0.000 HD
ENDBRANCH   2  14
TORSDOF 2
ENDMDL
MODEL 4
REMARK VINA RESULT:      -7.6      2.685      3.878
REMARK  Name = 
REMARK  2 active torsions:
REMARK  status: ('A' for Active; 'I' for Inactive)
REMARK    1  A    between atoms: C_2  and  C_3
REMARK    2  A    between atoms: C_2  and  C_14
REMARK                            x       y       z     vdW  Elec       q    Type
REMARK                         _______ _______ _______ _____ _____    ______ ____
ROOT
ATOM      1  O   UNL     1       2.176   5.976  20.386  0.00  0.00    +0.000 OA
ATOM      2  C   UNL     1       2.459   6.331  19.245  0.00  0.00    +0.000 C 
ENDROOT
BRANCH   2   3
ATOM      3  C   UNL     1       2.115   7.771  18.865  0.00  0.00    +0.000 C 
ATOM      4  O   UNL     1       2.400   8.171  17.741  0.00  0.00    +0.000 OA
ATOM      5  N   UNL     1       1.477   8.533  19.821  0.00  0.00    +0.000 N 
ATOM      6  C   UNL     1       0.942   9.844  19.481  0.00  0.00    +0.000 C 
ATOM      7  C   UNL     1       0.202  10.246  20.715  0.00  0.00    +0.000 A 
ATOM      8  C   UNL     1      -0.550  11.387  20.936  0.00  0.00    +0.000 A 
ATOM      9  C   UNL     1      -1.159  11.546  22.182  0.00  0.00    +0.000 A 
ATOM     10  C   UNL     1      -1.000  10.573  23.183  0.00  0.00    +0.000 A 
ATOM     11  C   UNL     1      -0.241   9.424  22.952  0.00  0.00    +0.000 A 
ATOM     12  C   UNL     1       0.347   9.268  21.708  0.00  0.00    +0.000 A 
ATOM     13  C   UNL     1       1.165   8.126  21.190  0.00  0.00    +0.000 C 
ENDBRANCH   2   3
BRANCH   2  14
ATOM     14  C   UNL     1       3.111   5.448  18.281  0.00  0.00    +0.000 A 
ATOM     15  C   UNL     1       2.580   4.292  17.738  0.00  0.00    +0.000 A 
ATOM     16  N   UNL     1       3.502   3.753  16.880  0.00  0.00    +0.000 N 
ATOM     17  C   UNL     1       4.637   4.527  16.850  0.00  0.00    +0.000 A 
ATOM     18  C   UNL     1       5.830   4.351  16.136  0.00  0.00    +0.000 A 
ATOM     19  C   UNL     1       6.836   5.304  16.312  0.00  0.00    +0.000 A 
ATOM     20  C   UNL     1       6.651   6.388  17.166  0.00  0.00    +0.000 A 
ATOM     21 CL   UNL     1       7.916   7.540  17.363  0.00  0.00    +0.000 Cl
ATOM     22  C   UNL     1       5.455   6.553  17.869  0.00  0.00    +0.000 A 
ATOM     23  C   UNL     1       4.422   5.602  17.714  0.00  0.00    +0.000 A 
ATOM     24  H   UNL     1       3.376   2.898  16.350  0.00  0.00    +0.000 HD
ENDBRANCH   2  14
TORSDOF 2
ENDMDL
MODEL 5
REMARK VINA RESULT:      -7.6      3.849      5.441
REMARK  Name = 
REMARK  2 active torsions:
REMARK  status: ('A' for Active; 'I' for Inactive)
REMARK    1  A    between atoms: C_2  and  C_3
REMARK    2  A    between atoms: C_2  and  C_14
REMARK                            x       y       z     vdW  Elec       q    Type
REMARK                         _______ _______ _______ _____ _____    ______ ____
ROOT
ATOM      1  O   UNL     1       2.234   9.685  17.560  0.00  0.00    +0.000 OA
ATOM      2  C   UNL     1       1.779   9.208  18.596  0.00  0.00    +0.000 C 
ENDROOT
BRANCH   2   3
ATOM      3  C   UNL     1       0.732  10.039  19.336  0.00  0.00    +0.000 C 
ATOM      4  O   UNL     1       1.028  10.540  20.416  0.00  0.00    +0.000 OA
ATOM      5  N   UNL     1      -0.492  10.193  18.720  0.00  0.00    +0.000 N 
ATOM      6  C   UNL     1      -1.476  11.122  19.259  0.00  0.00    +0.000 C 
ATOM      7  C   UNL     1      -2.559  11.115  18.229  0.00  0.00    +0.000 A 
ATOM      8  C   UNL     1      -3.723  11.862  18.198  0.00  0.00    +0.000 A 
ATOM      9  C   UNL     1      -4.593  11.685  17.120  0.00  0.00    +0.000 A 
ATOM     10  C   UNL     1      -4.290  10.764  16.103  0.00  0.00    +0.000 A 
ATOM     11  C   UNL     1      -3.112  10.016  16.141  0.00  0.00    +0.000 A 
ATOM     12  C   UNL     1      -2.249  10.208  17.206  0.00  0.00    +0.000 A 
ATOM     13  C   UNL     1      -0.917   9.575  17.465  0.00  0.00    +0.000 C 
ENDBRANCH   2   3
BRANCH   2  14
ATOM     14  C   UNL     1       2.185   7.902  19.110  0.00  0.00    +0.000 A 
ATOM     15  C   UNL     1       1.804   7.341  20.316  0.00  0.00    +0.000 A 
ATOM     16  N   UNL     1       2.398   6.111  20.428  0.00  0.00    +0.000 N 
ATOM     17  C   UNL     1       3.171   5.851  19.321  0.00  0.00    +0.000 A 
ATOM     18  C   UNL     1       3.962   4.736  19.017  0.00  0.00    +0.000 A 
ATOM     19  C   UNL     1       4.660   4.748  17.807  0.00  0.00    +0.000 A 
ATOM     20  C   UNL     1       4.563   5.832  16.939  0.00  0.00    +0.000 A 
ATOM     21 CL   UNL     1       5.442   5.815  15.458  0.00  0.00    +0.000 Cl
ATOM     22  C   UNL     1       3.766   6.936  17.252  0.00  0.00    +0.000 A 
ATOM     23  C   UNL     1       3.053   6.952  18.472  0.00  0.00    +0.000 A 
ATOM     24  H   UNL     1       2.296   5.483  21.217  0.00  0.00    +0.000 HD
ENDBRANCH   2  14
TORSDOF 2
ENDMDL
MODEL 6
REMARK VINA RESULT:      -7.5      3.205      7.234
REMARK  Name = 
REMARK  2 active torsions:
REMARK  status: ('A' for Active; 'I' for Inactive)
REMARK    1  A    between atoms: C_2  and  C_3
REMARK    2  A    between atoms: C_2  and  C_14
REMARK                            x       y       z     vdW  Elec       q    Type
REMARK                         _______ _______ _______ _____ _____    ______ ____
ROOT
ATOM      1  O   UNL     1       2.680   5.814  20.769  0.00  0.00    +0.000 OA
ATOM      2  C   UNL     1       2.406   6.125  19.612  0.00  0.00    +0.000 C 
ENDROOT
BRANCH   2   3
ATOM      3  C   UNL     1       2.443   5.008  18.571  0.00  0.00    +0.000 C 
ATOM      4  O   UNL     1       1.459   4.287  18.440  0.00  0.00    +0.000 OA
ATOM      5  N   UNL     1       3.592   4.895  17.816  0.00  0.00    +0.000 N 
ATOM      6  C   UNL     1       3.639   3.989  16.677  0.00  0.00    +0.000 C 
ATOM      7  C   UNL     1       4.963   4.289  16.051  0.00  0.00    +0.000 A 
ATOM      8  C   UNL     1       5.511   3.756  14.898  0.00  0.00    +0.000 A 
ATOM      9  C   UNL     1       6.776   4.197  14.502  0.00  0.00    +0.000 A 
ATOM     10  C   UNL     1       7.469   5.150  15.267  0.00  0.00    +0.000 A 
ATOM     11  C   UNL     1       6.908   5.684  16.428  0.00  0.00    +0.000 A 
ATOM     12  C   UNL     1       5.648   5.252  16.805  0.00  0.00    +0.000 A 
ATOM     13  C   UNL     1       4.811   5.689  17.966  0.00  0.00    +0.000 C 
ENDBRANCH   2   3
BRANCH   2  14
ATOM     14  C   UNL     1       2.039   7.485  19.225  0.00  0.00    +0.000 A 
ATOM     15  C   UNL     1       2.272   8.079  17.998  0.00  0.00    +0.000 A 
ATOM     16  N   UNL     1       1.780   9.358  18.035  0.00  0.00    +0.000 N 
ATOM     17  C   UNL     1       1.233   9.623  19.268  0.00  0.00    +0.000 A 
ATOM     18  C   UNL     1       0.637  10.794  19.756  0.00  0.00    +0.000 A 
ATOM     19  C   UNL     1       0.173  10.782  21.074  0.00  0.00    +0.000 A 
ATOM     20  C   UNL     1       0.298   9.644  21.864  0.00  0.00    +0.000 A 
ATOM     21 CL   UNL     1      -0.280   9.668  23.486  0.00  0.00    +0.000 Cl
ATOM     22  C   UNL     1       0.891   8.482  21.363  0.00  0.00    +0.000 A 
ATOM     23  C   UNL     1       1.374   8.466  20.036  0.00  0.00    +0.000 A 
ATOM     24  H   UNL     1       1.822  10.022  17.271  0.00  0.00    +0.000 HD
ENDBRANCH   2  14
TORSDOF 2
ENDMDL
MODEL 7
REMARK VINA RESULT:      -7.5      1.006      1.239
REMARK  Name = 
REMARK  2 active torsions:
REMARK  status: ('A' for Active; 'I' for Inactive)
REMARK    1  A    between atoms: C_2  and  C_3
REMARK    2  A    between atoms: C_2  and  C_14
REMARK                            x       y       z     vdW  Elec       q    Type
REMARK                         _______ _______ _______ _____ _____    ______ ____
ROOT
ATOM      1  O   UNL     1       3.614   2.966  16.772  0.00  0.00    +0.000 OA
ATOM      2  C   UNL     1       4.259   3.873  17.291  0.00  0.00    +0.000 C 
ENDROOT
BRANCH   2   3
ATOM      3  C   UNL     1       3.819   4.322  18.684  0.00  0.00    +0.000 C 
ATOM      4  O   UNL     1       4.141   3.644  19.654  0.00  0.00    +0.000 OA
ATOM      5  N   UNL     1       3.093   5.492  18.763  0.00  0.00    +0.000 N 
ATOM      6  C   UNL     1       2.801   6.092  20.057  0.00  0.00    +0.000 C 
ATOM      7  C   UNL     1       2.166   7.396  19.699  0.00  0.00    +0.000 A 
ATOM      8  C   UNL     1       1.734   8.405  20.542  0.00  0.00    +0.000 A 
ATOM      9  C   UNL     1       1.169   9.547  19.971  0.00  0.00    +0.000 A 
ATOM     10  C   UNL     1       1.038   9.656  18.576  0.00  0.00    +0.000 A 
ATOM     11  C   UNL     1       1.478   8.635  17.733  0.00  0.00    +0.000 A 
ATOM     12  C   UNL     1       2.050   7.512  18.307  0.00  0.00    +0.000 A 
ATOM     13  C   UNL     1       2.635   6.308  17.639  0.00  0.00    +0.000 C 
ENDBRANCH   2   3
BRANCH   2  14
ATOM     14  C   UNL     1       5.408   4.499  16.642  0.00  0.00    +0.000 A 
ATOM     15  C   UNL     1       6.304   5.375  17.227  0.00  0.00    +0.000 A 
ATOM     16  N   UNL     1       7.233   5.737  16.287  0.00  0.00    +0.000 N 
ATOM     17  C   UNL     1       6.965   5.121  15.088  0.00  0.00    +0.000 A 
ATOM     18  C   UNL     1       7.632   5.210  13.860  0.00  0.00    +0.000 A 
ATOM     19  C   UNL     1       7.121   4.472  12.789  0.00  0.00    +0.000 A 
ATOM     20  C   UNL     1       5.990   3.676  12.949  0.00  0.00    +0.000 A 
ATOM     21 CL   UNL     1       5.384   2.783  11.606  0.00  0.00    +0.000 Cl
ATOM     22  C   UNL     1       5.336   3.592  14.181  0.00  0.00    +0.000 A 
ATOM     23  C   UNL     1       5.828   4.333  15.279  0.00  0.00    +0.000 A 
ATOM     24  H   UNL     1       8.004   6.376  16.444  0.00  0.00    +0.000 HD
ENDBRANCH   2  14
TORSDOF 2
ENDMDL
MODEL 8
REMARK VINA RESULT:      -7.5      2.211      6.609
REMARK  Name = 
REMARK  2 active torsions:
REMARK  status: ('A' for Active; 'I' for Inactive)
REMARK    1  A    between atoms: C_2  and  C_3
REMARK    2  A    between atoms: C_2  and  C_14
REMARK                            x       y       z     vdW  Elec       q    Type
REMARK                         _______ _______ _______ _____ _____    ______ ____
ROOT
ATOM      1  O   UNL     1       4.136   2.791  18.051  0.00  0.00    +0.000 OA
ATOM      2  C   UNL     1       4.289   3.937  18.469  0.00  0.00    +0.000 C 
ENDROOT
BRANCH   2   3
ATOM      3  C   UNL     1       5.460   4.730  17.891  0.00  0.00    +0.000 C 
ATOM      4  O   UNL     1       6.171   5.376  18.654  0.00  0.00    +0.000 OA
ATOM      5  N   UNL     1       5.657   4.650  16.529  0.00  0.00    +0.000 N 
ATOM      6  C   UNL     1       6.856   5.214  15.924  0.00  0.00    +0.000 C 
ATOM      7  C   UNL     1       6.764   4.773  14.499  0.00  0.00    +0.000 A 
ATOM      8  C   UNL     1       7.669   4.981  13.472  0.00  0.00    +0.000 A 
ATOM      9  C   UNL     1       7.366   4.466  12.210  0.00  0.00    +0.000 A 
ATOM     10  C   UNL     1       6.168   3.765  11.995  0.00  0.00    +0.000 A 
ATOM     11  C   UNL     1       5.261   3.558  13.036  0.00  0.00    +0.000 A 
ATOM     12  C   UNL     1       5.576   4.060  14.287  0.00  0.00    +0.000 A 
ATOM     13  C   UNL     1       4.811   3.943  15.569  0.00  0.00    +0.000 C 
ENDBRANCH   2   3
BRANCH   2  14
ATOM     14  C   UNL     1       3.398   4.544  19.454  0.00  0.00    +0.000 A 
ATOM     15  C   UNL     1       2.930   3.949  20.612  0.00  0.00    +0.000 A 
ATOM     16  N   UNL     1       2.122   4.845  21.263  0.00  0.00    +0.000 N 
ATOM     17  C   UNL     1       2.041   6.019  20.553  0.00  0.00    +0.000 A 
ATOM     18  C   UNL     1       1.324   7.190  20.828  0.00  0.00    +0.000 A 
ATOM     19  C   UNL     1       1.419   8.239  19.909  0.00  0.00    +0.000 A 
ATOM     20  C   UNL     1       2.204   8.115  18.766  0.00  0.00    +0.000 A 
ATOM     21 CL   UNL     1       2.294   9.426  17.652  0.00  0.00    +0.000 Cl
ATOM     22  C   UNL     1       2.918   6.943  18.506  0.00  0.00    +0.000 A 
ATOM     23  C   UNL     1       2.836   5.865  19.416  0.00  0.00    +0.000 A 
ATOM     24  H   UNL     1       1.639   4.668  22.136  0.00  0.00    +0.000 HD
ENDBRANCH   2  14
TORSDOF 2
ENDMDL
MODEL 9
REMARK VINA RESULT:      -7.4      3.978      7.680
REMARK  Name = 
REMARK  2 active torsions:
REMARK  status: ('A' for Active; 'I' for Inactive)
REMARK    1  A    between atoms: C_2  and  C_3
REMARK    2  A    between atoms: C_2  and  C_14
REMARK                            x       y       z     vdW  Elec       q    Type
REMARK                         _______ _______ _______ _____ _____    ______ ____
ROOT
ATOM      1  O   UNL     1       2.256   8.953  18.323  0.00  0.00    +0.000 OA
ATOM      2  C   UNL     1       1.513   8.969  19.301  0.00  0.00    +0.000 C 
ENDROOT
BRANCH   2   3
ATOM      3  C   UNL     1       1.688   7.842  20.317  0.00  0.00    +0.000 C 
ATOM      4  O   UNL     1       1.567   8.096  21.511  0.00  0.00    +0.000 OA
ATOM      5  N   UNL     1       1.954   6.585  19.816  0.00  0.00    +0.000 N 
ATOM      6  C   UNL     1       1.943   5.423  20.695  0.00  0.00    +0.000 C 
ATOM      7  C   UNL     1       2.103   4.275  19.753  0.00  0.00    +0.000 A 
ATOM      8  C   UNL     1       2.106   2.920  20.037  0.00  0.00    +0.000 A 
ATOM      9  C   UNL     1       2.269   2.023  18.980  0.00  0.00    +0.000 A 
ATOM     10  C   UNL     1       2.435   2.492  17.666  0.00  0.00    +0.000 A 
ATOM     11  C   UNL     1       2.428   3.860  17.387  0.00  0.00    +0.000 A 
ATOM     12  C   UNL     1       2.251   4.742  18.440  0.00  0.00    +0.000 A 
ATOM     13  C   UNL     1       2.163   6.236  18.411  0.00  0.00    +0.000 C 
ENDBRANCH   2   3
BRANCH   2  14
ATOM     14  C   UNL     1       0.515  10.013  19.519  0.00  0.00    +0.000 A 
ATOM     15  C   UNL     1       0.473  10.899  20.581  0.00  0.00    +0.000 A 
ATOM     16  N   UNL     1      -0.614  11.716  20.421  0.00  0.00    +0.000 N 
ATOM     17  C   UNL     1      -1.298  11.384  19.275  0.00  0.00    +0.000 A 
ATOM     18  C   UNL     1      -2.465  11.933  18.731  0.00  0.00    +0.000 A 
ATOM     19  C   UNL     1      -2.950  11.379  17.543  0.00  0.00    +0.000 A 
ATOM     20  C   UNL     1      -2.286  10.320  16.929  0.00  0.00    +0.000 A 
ATOM     21 CL   UNL     1      -2.915   9.658  15.468  0.00  0.00    +0.000 Cl
ATOM     22  C   UNL     1      -1.120   9.784  17.480  0.00  0.00    +0.000 A 
ATOM     23  C   UNL     1      -0.611  10.322  18.683  0.00  0.00    +0.000 A 
ATOM     24  H   UNL     1      -0.889  12.454  21.058  0.00  0.00    +0.000 HD
ENDBRANCH   2  14
TORSDOF 2
ENDMDL
