MODEL 1
REMARK VINA RESULT:      -7.2      0.000      0.000
REMARK  Name = 
REMARK  9 active torsions:
REMARK  status: ('A' for Active; 'I' for Inactive)
REMARK    1  A    between atoms: C_2  and  C_14
REMARK    2  A    between atoms: C_8  and  O_9
REMARK    3  A    between atoms: O_9  and  C_10
REMARK    4  A    between atoms: C_17  and  N_18
REMARK    5  A    between atoms: N_18  and  S_19
REMARK    6  A    between atoms: S_19  and  C_22
REMARK    7  A    between atoms: C_22  and  C_23
REMARK    8  A    between atoms: C_23  and  O_24
REMARK    9  A    between atoms: C_26  and  N_27
REMARK                            x       y       z     vdW  Elec       q    Type
REMARK                         _______ _______ _______ _____ _____    ______ ____
ROOT
ATOM      1  C   UNL     1       0.163  10.016  18.409  0.00  0.00    +0.000 A 
ATOM      2  C   UNL     1      -0.900   9.410  17.698  0.00  0.00    +0.000 A 
ATOM      3  C   UNL     1      -2.032  10.132  17.340  0.00  0.00    +0.000 A 
ATOM      4  C   UNL     1      -2.125  11.464  17.706  0.00  0.00    +0.000 A 
ATOM      5  C   UNL     1      -1.066  12.084  18.377  0.00  0.00    +0.000 A 
ATOM      6  C   UNL     1       0.113  11.394  18.758  0.00  0.00    +0.000 A 
ENDROOT
BRANCH   1   8
ATOM      7  O   UNL     1       1.487   8.970  20.070  0.00  0.00    +0.000 OA
ATOM      8  C   UNL     1       1.219   9.062  18.878  0.00  0.00    +0.000 C 
ATOM      9  N   UNL     1       1.835   8.333  17.873  0.00  0.00    +0.000 N 
ATOM     10  C   UNL     1       2.848   7.393  18.092  0.00  0.00    +0.000 A 
ATOM     11  C   UNL     1       2.868   6.565  19.204  0.00  0.00    +0.000 A 
ATOM     12  C   UNL     1       3.942   5.696  19.367  0.00  0.00    +0.000 A 
ATOM     13  C   UNL     1       4.971   5.703  18.432  0.00  0.00    +0.000 A 
ATOM     14  C   UNL     1       4.870   6.561  17.344  0.00  0.00    +0.000 A 
ATOM     15  N   UNL     1       3.799   7.358  17.137  0.00  0.00    +0.000 NA
ATOM     16  H   UNL     1       1.820   8.695  16.929  0.00  0.00    +0.000 HD
BRANCH  14  17
ATOM     17  O   UNL     1       5.820   6.687  16.374  0.00  0.00    +0.000 OA
BRANCH  17  18
ATOM     18  C   UNL     1       7.029   6.023  16.673  0.00  0.00    +0.000 C 
ATOM     19  F   UNL     1       7.489   5.443  15.535  0.00  0.00    +0.000 F 
ATOM     20  F   UNL     1       7.942   6.965  17.021  0.00  0.00    +0.000 F 
ENDBRANCH  17  18
ENDBRANCH  14  17
ENDBRANCH   1   8
BRANCH   6  21
ATOM     21  N   UNL     1       1.125  12.127  19.366  0.00  0.00    +0.000 N 
ATOM     22  C   UNL     1       2.346  12.551  18.666  0.00  0.00    +0.000 C 
ATOM     23  C   UNL     1       2.564  14.052  18.893  0.00  0.00    +0.000 C 
ATOM     24  C   UNL     1       2.569  14.404  20.368  0.00  0.00    +0.000 C 
ATOM     25  C   UNL     1       1.376  13.845  21.126  0.00  0.00    +0.000 C 
ATOM     26  C   UNL     1       1.165  12.352  20.824  0.00  0.00    +0.000 C 
ATOM     27  C   UNL     1       3.892  14.578  21.085  0.00  0.00    +0.000 C 
ATOM     28  C   UNL     1       3.063  15.784  20.745  0.00  0.00    +0.000 C 
ENDBRANCH   6  21
BRANCH   4  29
ATOM     29  N   UNL     1      -3.287  12.204  17.343  0.00  0.00    +0.000 N 
ATOM     30  H   UNL     1      -3.167  12.845  16.560  0.00  0.00    +0.000 HD
BRANCH  29  31
ATOM     31  S   UNL     1      -4.736  11.337  17.130  0.00  0.00    +0.000 S 
ATOM     32  O   UNL     1      -4.625  10.744  15.816  0.00  0.00    +0.000 OA
ATOM     33  O   UNL     1      -5.000  10.537  18.299  0.00  0.00    +0.000 OA
BRANCH  31  34
ATOM     34  C   UNL     1      -5.923  12.654  17.047  0.00  0.00    +0.000 C 
BRANCH  34  35
ATOM     35  C   UNL     1      -6.310  13.085  18.450  0.00  0.00    +0.000 C 
BRANCH  35  36
ATOM     36  O   UNL     1      -5.136  13.381  19.205  0.00  0.00    +0.000 OA
ATOM     37  H   UNL     1      -4.992  12.649  19.832  0.00  0.00    +0.000 HD
ENDBRANCH  35  36
ENDBRANCH  34  35
ENDBRANCH  31  34
ENDBRANCH  29  31
ENDBRANCH   4  29
TORSDOF 9
ENDMDL
MODEL 2
REMARK VINA RESULT:      -7.2      4.140      5.231
REMARK  Name = 
REMARK  9 active torsions:
REMARK  status: ('A' for Active; 'I' for Inactive)
REMARK    1  A    between atoms: C_2  and  C_14
REMARK    2  A    between atoms: C_8  and  O_9
REMARK    3  A    between atoms: O_9  and  C_10
REMARK    4  A    between atoms: C_17  and  N_18
REMARK    5  A    between atoms: N_18  and  S_19
REMARK    6  A    between atoms: S_19  and  C_22
REMARK    7  A    between atoms: C_22  and  C_23
REMARK    8  A    between atoms: C_23  and  O_24
REMARK    9  A    between atoms: C_26  and  N_27
REMARK                            x       y       z     vdW  Elec       q    Type
REMARK                         _______ _______ _______ _____ _____    ______ ____
ROOT
ATOM      1  C   UNL     1      -0.323  11.528  21.041  0.00  0.00    +0.000 A 
ATOM      2  C   UNL     1      -1.261  11.119  22.019  0.00  0.00    +0.000 A 
ATOM      3  C   UNL     1      -1.675  11.982  23.027  0.00  0.00    +0.000 A 
ATOM      4  C   UNL     1      -1.141  13.258  23.082  0.00  0.00    +0.000 A 
ATOM      5  C   UNL     1      -0.242  13.686  22.101  0.00  0.00    +0.000 A 
ATOM      6  C   UNL     1       0.206  12.848  21.048  0.00  0.00    +0.000 A 
ENDROOT
BRANCH   1   8
ATOM      7  O   UNL     1      -0.223  10.372  18.977  0.00  0.00    +0.000 OA
ATOM      8  C   UNL     1       0.155  10.429  20.142  0.00  0.00    +0.000 C 
ATOM      9  N   UNL     1       1.022   9.525  20.735  0.00  0.00    +0.000 N 
ATOM     10  C   UNL     1       1.581   8.425  20.077  0.00  0.00    +0.000 A 
ATOM     11  C   UNL     1       1.960   8.468  18.743  0.00  0.00    +0.000 A 
ATOM     12  C   UNL     1       2.459   7.311  18.156  0.00  0.00    +0.000 A 
ATOM     13  C   UNL     1       2.537   6.144  18.908  0.00  0.00    +0.000 A 
ATOM     14  C   UNL     1       2.141   6.189  20.239  0.00  0.00    +0.000 A 
ATOM     15  N   UNL     1       1.722   7.324  20.841  0.00  0.00    +0.000 NA
ATOM     16  H   UNL     1       1.012   9.429  21.741  0.00  0.00    +0.000 HD
BRANCH  14  17
ATOM     17  O   UNL     1       2.140   5.113  21.077  0.00  0.00    +0.000 OA
BRANCH  17  18
ATOM     18  C   UNL     1       1.418   4.007  20.581  0.00  0.00    +0.000 C 
ATOM     19  F   UNL     1       1.297   3.094  21.579  0.00  0.00    +0.000 F 
ATOM     20  F   UNL     1       0.162   4.430  20.291  0.00  0.00    +0.000 F 
ENDBRANCH  17  18
ENDBRANCH  14  17
ENDBRANCH   1   8
BRANCH   6  21
ATOM     21  N   UNL     1       1.053  13.402  20.095  0.00  0.00    +0.000 N 
ATOM     22  C   UNL     1       0.575  14.002  18.842  0.00  0.00    +0.000 C 
ATOM     23  C   UNL     1       1.202  15.392  18.674  0.00  0.00    +0.000 C 
ATOM     24  C   UNL     1       2.714  15.342  18.774  0.00  0.00    +0.000 C 
ATOM     25  C   UNL     1       3.215  14.597  19.999  0.00  0.00    +0.000 C 
ATOM     26  C   UNL     1       2.518  13.235  20.155  0.00  0.00    +0.000 C 
ATOM     27  C   UNL     1       3.541  15.329  17.505  0.00  0.00    +0.000 C 
ATOM     28  C   UNL     1       3.473  16.578  18.338  0.00  0.00    +0.000 C 
ENDBRANCH   6  21
BRANCH   4  29
ATOM     29  N   UNL     1      -1.563  14.142  24.117  0.00  0.00    +0.000 N 
ATOM     30  H   UNL     1      -0.838  14.409  24.781  0.00  0.00    +0.000 HD
BRANCH  29  31
ATOM     31  S   UNL     1      -2.434  15.530  23.661  0.00  0.00    +0.000 S 
ATOM     32  O   UNL     1      -1.426  16.539  23.420  0.00  0.00    +0.000 OA
ATOM     33  O   UNL     1      -3.410  15.184  22.659  0.00  0.00    +0.000 OA
BRANCH  31  34
ATOM     34  C   UNL     1      -3.272  15.932  25.173  0.00  0.00    +0.000 C 
BRANCH  34  35
ATOM     35  C   UNL     1      -4.568  16.659  24.863  0.00  0.00    +0.000 C 
BRANCH  35  36
ATOM     36  O   UNL     1      -5.568  15.719  24.474  0.00  0.00    +0.000 OA
ATOM     37  H   UNL     1      -5.458  14.923  25.024  0.00  0.00    +0.000 HD
ENDBRANCH  35  36
ENDBRANCH  34  35
ENDBRANCH  31  34
ENDBRANCH  29  31
ENDBRANCH   4  29
TORSDOF 9
ENDMDL
MODEL 3
REMARK VINA RESULT:      -7.1      3.966      4.906
REMARK  Name = 
REMARK  9 active torsions:
REMARK  status: ('A' for Active; 'I' for Inactive)
REMARK    1  A    between atoms: C_2  and  C_14
REMARK    2  A    between atoms: C_8  and  O_9
REMARK    3  A    between atoms: O_9  and  C_10
REMARK    4  A    between atoms: C_17  and  N_18
REMARK    5  A    between atoms: N_18  and  S_19
REMARK    6  A    between atoms: S_19  and  C_22
REMARK    7  A    between atoms: C_22  and  C_23
REMARK    8  A    between atoms: C_23  and  O_24
REMARK    9  A    between atoms: C_26  and  N_27
REMARK                            x       y       z     vdW  Elec       q    Type
REMARK                         _______ _______ _______ _____ _____    ______ ____
ROOT
ATOM      1  C   UNL     1      -0.230  11.337  21.008  0.00  0.00    +0.000 A 
ATOM      2  C   UNL     1      -1.151  10.877  21.979  0.00  0.00    +0.000 A 
ATOM      3  C   UNL     1      -1.620  11.717  22.983  0.00  0.00    +0.000 A 
ATOM      4  C   UNL     1      -1.158  13.021  23.041  0.00  0.00    +0.000 A 
ATOM      5  C   UNL     1      -0.275  13.497  22.066  0.00  0.00    +0.000 A 
ATOM      6  C   UNL     1       0.226  12.684  21.018  0.00  0.00    +0.000 A 
ENDROOT
BRANCH   1   8
ATOM      7  O   UNL     1       0.122  10.310  18.904  0.00  0.00    +0.000 OA
ATOM      8  C   UNL     1       0.315  10.266  20.114  0.00  0.00    +0.000 C 
ATOM      9  N   UNL     1       1.021   9.266  20.763  0.00  0.00    +0.000 N 
ATOM     10  C   UNL     1       1.608   8.172  20.119  0.00  0.00    +0.000 A 
ATOM     11  C   UNL     1       2.193   8.272  18.865  0.00  0.00    +0.000 A 
ATOM     12  C   UNL     1       2.706   7.121  18.277  0.00  0.00    +0.000 A 
ATOM     13  C   UNL     1       2.593   5.907  18.945  0.00  0.00    +0.000 A 
ATOM     14  C   UNL     1       1.997   5.896  20.199  0.00  0.00    +0.000 A 
ATOM     15  N   UNL     1       1.559   7.017  20.812  0.00  0.00    +0.000 NA
ATOM     16  H   UNL     1       0.848   9.107  21.747  0.00  0.00    +0.000 HD
BRANCH  14  17
ATOM     17  O   UNL     1       1.798   4.772  20.946  0.00  0.00    +0.000 OA
BRANCH  17  18
ATOM     18  C   UNL     1       2.440   3.626  20.430  0.00  0.00    +0.000 C 
ATOM     19  F   UNL     1       2.902   2.889  21.473  0.00  0.00    +0.000 F 
ATOM     20  F   UNL     1       1.499   2.869  19.811  0.00  0.00    +0.000 F 
ENDBRANCH  17  18
ENDBRANCH  14  17
ENDBRANCH   1   8
BRANCH   6  21
ATOM     21  N   UNL     1       1.049  13.283  20.071  0.00  0.00    +0.000 N 
ATOM     22  C   UNL     1       0.548  13.853  18.813  0.00  0.00    +0.000 C 
ATOM     23  C   UNL     1       1.097  15.275  18.647  0.00  0.00    +0.000 C 
ATOM     24  C   UNL     1       2.608  15.312  18.760  0.00  0.00    +0.000 C 
ATOM     25  C   UNL     1       3.140  14.598  19.991  0.00  0.00    +0.000 C 
ATOM     26  C   UNL     1       2.520  13.199  20.144  0.00  0.00    +0.000 C 
ATOM     27  C   UNL     1       3.445  15.343  17.497  0.00  0.00    +0.000 C 
ATOM     28  C   UNL     1       3.300  16.588  18.327  0.00  0.00    +0.000 C 
ENDBRANCH   6  21
BRANCH   4  29
ATOM     29  N   UNL     1      -1.635  13.880  24.073  0.00  0.00    +0.000 N 
ATOM     30  H   UNL     1      -1.036  14.677  24.285  0.00  0.00    +0.000 HD
BRANCH  29  31
ATOM     31  S   UNL     1      -3.247  14.412  23.970  0.00  0.00    +0.000 S 
ATOM     32  O   UNL     1      -3.363  15.445  24.975  0.00  0.00    +0.000 OA
ATOM     33  O   UNL     1      -3.592  14.657  22.592  0.00  0.00    +0.000 OA
BRANCH  31  34
ATOM     34  C   UNL     1      -4.127  12.980  24.542  0.00  0.00    +0.000 C 
BRANCH  34  35
ATOM     35  C   UNL     1      -5.562  13.029  24.049  0.00  0.00    +0.000 C 
BRANCH  35  36
ATOM     36  O   UNL     1      -6.082  14.348  24.207  0.00  0.00    +0.000 OA
ATOM     37  H   UNL     1      -5.570  14.941  23.629  0.00  0.00    +0.000 HD
ENDBRANCH  35  36
ENDBRANCH  34  35
ENDBRANCH  31  34
ENDBRANCH  29  31
ENDBRANCH   4  29
TORSDOF 9
ENDMDL
MODEL 4
REMARK VINA RESULT:      -7.1      1.132      1.481
REMARK  Name = 
REMARK  9 active torsions:
REMARK  status: ('A' for Active; 'I' for Inactive)
REMARK    1  A    between atoms: C_2  and  C_14
REMARK    2  A    between atoms: C_8  and  O_9
REMARK    3  A    between atoms: O_9  and  C_10
REMARK    4  A    between atoms: C_17  and  N_18
REMARK    5  A    between atoms: N_18  and  S_19
REMARK    6  A    between atoms: S_19  and  C_22
REMARK    7  A    between atoms: C_22  and  C_23
REMARK    8  A    between atoms: C_23  and  O_24
REMARK    9  A    between atoms: C_26  and  N_27
REMARK                            x       y       z     vdW  Elec       q    Type
REMARK                         _______ _______ _______ _____ _____    ______ ____
ROOT
ATOM      1  C   UNL     1      -0.073  10.074  18.411  0.00  0.00    +0.000 A 
ATOM      2  C   UNL     1      -1.159   9.424  17.778  0.00  0.00    +0.000 A 
ATOM      3  C   UNL     1      -2.320  10.114  17.450  0.00  0.00    +0.000 A 
ATOM      4  C   UNL     1      -2.418  11.458  17.769  0.00  0.00    +0.000 A 
ATOM      5  C   UNL     1      -1.338  12.120  18.361  0.00  0.00    +0.000 A 
ATOM      6  C   UNL     1      -0.129  11.464  18.708  0.00  0.00    +0.000 A 
ENDROOT
BRANCH   1   8
ATOM      7  O   UNL     1       1.345   9.110  20.043  0.00  0.00    +0.000 OA
ATOM      8  C   UNL     1       1.022   9.156  18.862  0.00  0.00    +0.000 C 
ATOM      9  N   UNL     1       1.606   8.404  17.855  0.00  0.00    +0.000 N 
ATOM     10  C   UNL     1       2.645   7.491  18.058  0.00  0.00    +0.000 A 
ATOM     11  C   UNL     1       2.732   6.701  19.195  0.00  0.00    +0.000 A 
ATOM     12  C   UNL     1       3.829   5.858  19.337  0.00  0.00    +0.000 A 
ATOM     13  C   UNL     1       4.815   5.851  18.356  0.00  0.00    +0.000 A 
ATOM     14  C   UNL     1       4.647   6.670  17.246  0.00  0.00    +0.000 A 
ATOM     15  N   UNL     1       3.553   7.440  17.062  0.00  0.00    +0.000 NA
ATOM     16  H   UNL     1       1.541   8.733  16.901  0.00  0.00    +0.000 HD
BRANCH  14  17
ATOM     17  O   UNL     1       5.550   6.780  16.229  0.00  0.00    +0.000 OA
BRANCH  17  18
ATOM     18  C   UNL     1       6.182   5.563  15.897  0.00  0.00    +0.000 C 
ATOM     19  F   UNL     1       6.131   5.410  14.549  0.00  0.00    +0.000 F 
ATOM     20  F   UNL     1       7.495   5.678  16.222  0.00  0.00    +0.000 F 
ENDBRANCH  17  18
ENDBRANCH  14  17
ENDBRANCH   1   8
BRANCH   6  21
ATOM     21  N   UNL     1       0.899  12.236  19.235  0.00  0.00    +0.000 N 
ATOM     22  C   UNL     1       2.097  12.612  18.473  0.00  0.00    +0.000 C 
ATOM     23  C   UNL     1       2.319  14.125  18.592  0.00  0.00    +0.000 C 
ATOM     24  C   UNL     1       2.367  14.575  20.039  0.00  0.00    +0.000 C 
ATOM     25  C   UNL     1       1.198  14.068  20.868  0.00  0.00    +0.000 C 
ATOM     26  C   UNL     1       0.981  12.558  20.673  0.00  0.00    +0.000 C 
ATOM     27  C   UNL     1       3.710  14.797  20.703  0.00  0.00    +0.000 C 
ATOM     28  C   UNL     1       2.870  15.978  20.309  0.00  0.00    +0.000 C 
ENDBRANCH   6  21
BRANCH   4  29
ATOM     29  N   UNL     1      -3.610  12.164  17.436  0.00  0.00    +0.000 N 
ATOM     30  H   UNL     1      -3.998  11.954  16.518  0.00  0.00    +0.000 HD
BRANCH  29  31
ATOM     31  S   UNL     1      -4.868  12.165  18.581  0.00  0.00    +0.000 S 
ATOM     32  O   UNL     1      -4.203  12.202  19.865  0.00  0.00    +0.000 OA
ATOM     33  O   UNL     1      -5.858  13.147  18.215  0.00  0.00    +0.000 OA
BRANCH  31  34
ATOM     34  C   UNL     1      -5.550  10.542  18.356  0.00  0.00    +0.000 C 
BRANCH  34  35
ATOM     35  C   UNL     1      -6.993  10.521  18.826  0.00  0.00    +0.000 C 
BRANCH  35  36
ATOM     36  O   UNL     1      -7.391   9.179  19.101  0.00  0.00    +0.000 OA
ATOM     37  H   UNL     1      -7.154   8.634  18.329  0.00  0.00    +0.000 HD
ENDBRANCH  35  36
ENDBRANCH  34  35
ENDBRANCH  31  34
ENDBRANCH  29  31
ENDBRANCH   4  29
TORSDOF 9
ENDMDL
MODEL 5
REMARK VINA RESULT:      -7.1      3.871      4.668
REMARK  Name = 
REMARK  9 active torsions:
REMARK  status: ('A' for Active; 'I' for Inactive)
REMARK    1  A    between atoms: C_2  and  C_14
REMARK    2  A    between atoms: C_8  and  O_9
REMARK    3  A    between atoms: O_9  and  C_10
REMARK    4  A    between atoms: C_17  and  N_18
REMARK    5  A    between atoms: N_18  and  S_19
REMARK    6  A    between atoms: S_19  and  C_22
REMARK    7  A    between atoms: C_22  and  C_23
REMARK    8  A    between atoms: C_23  and  O_24
REMARK    9  A    between atoms: C_26  and  N_27
REMARK                            x       y       z     vdW  Elec       q    Type
REMARK                         _______ _______ _______ _____ _____    ______ ____
ROOT
ATOM      1  C   UNL     1       0.061  10.905  20.511  0.00  0.00    +0.000 A 
ATOM      2  C   UNL     1      -0.801  10.254  21.426  0.00  0.00    +0.000 A 
ATOM      3  C   UNL     1      -1.356  10.936  22.503  0.00  0.00    +0.000 A 
ATOM      4  C   UNL     1      -1.039  12.270  22.692  0.00  0.00    +0.000 A 
ATOM      5  C   UNL     1      -0.217  12.933  21.774  0.00  0.00    +0.000 A 
ATOM      6  C   UNL     1       0.366  12.287  20.655  0.00  0.00    +0.000 A 
ENDROOT
BRANCH   1   8
ATOM      7  O   UNL     1       0.559  10.167  18.317  0.00  0.00    +0.000 OA
ATOM      8  C   UNL     1       0.716   9.992  19.520  0.00  0.00    +0.000 C 
ATOM      9  N   UNL     1       1.478   8.977  20.076  0.00  0.00    +0.000 N 
ATOM     10  C   UNL     1       2.169   8.015  19.332  0.00  0.00    +0.000 A 
ATOM     11  C   UNL     1       2.784   8.308  18.124  0.00  0.00    +0.000 A 
ATOM     12  C   UNL     1       3.405   7.278  17.427  0.00  0.00    +0.000 A 
ATOM     13  C   UNL     1       3.367   5.987  17.942  0.00  0.00    +0.000 A 
ATOM     14  C   UNL     1       2.733   5.781  19.161  0.00  0.00    +0.000 A 
ATOM     15  N   UNL     1       2.190   6.785  19.883  0.00  0.00    +0.000 NA
ATOM     16  H   UNL     1       1.286   8.688  21.026  0.00  0.00    +0.000 HD
BRANCH  14  17
ATOM     17  O   UNL     1       2.600   4.564  19.762  0.00  0.00    +0.000 OA
BRANCH  17  18
ATOM     18  C   UNL     1       1.625   4.537  20.782  0.00  0.00    +0.000 C 
ATOM     19  F   UNL     1       0.464   4.076  20.250  0.00  0.00    +0.000 F 
ATOM     20  F   UNL     1       2.017   3.621  21.704  0.00  0.00    +0.000 F 
ENDBRANCH  17  18
ENDBRANCH  14  17
ENDBRANCH   1   8
BRANCH   6  21
ATOM     21  N   UNL     1       1.115  13.061  19.777  0.00  0.00    +0.000 N 
ATOM     22  C   UNL     1       0.533  13.769  18.629  0.00  0.00    +0.000 C 
ATOM     23  C   UNL     1       0.993  15.232  18.649  0.00  0.00    +0.000 C 
ATOM     24  C   UNL     1       2.503  15.347  18.718  0.00  0.00    +0.000 C 
ATOM     25  C   UNL     1       3.123  14.502  19.819  0.00  0.00    +0.000 C 
ATOM     26  C   UNL     1       2.591  13.060  19.791  0.00  0.00    +0.000 C 
ATOM     27  C   UNL     1       3.286  15.605  17.448  0.00  0.00    +0.000 C 
ATOM     28  C   UNL     1       3.104  16.710  18.449  0.00  0.00    +0.000 C 
ENDBRANCH   6  21
BRANCH   4  29
ATOM     29  N   UNL     1      -1.604  12.967  23.798  0.00  0.00    +0.000 N 
ATOM     30  H   UNL     1      -1.097  13.802  24.090  0.00  0.00    +0.000 HD
BRANCH  29  31
ATOM     31  S   UNL     1      -3.266  13.322  23.739  0.00  0.00    +0.000 S 
ATOM     32  O   UNL     1      -3.511  13.731  22.373  0.00  0.00    +0.000 OA
ATOM     33  O   UNL     1      -4.014  12.253  24.352  0.00  0.00    +0.000 OA
BRANCH  31  34
ATOM     34  C   UNL     1      -3.356  14.761  24.774  0.00  0.00    +0.000 C 
BRANCH  34  35
ATOM     35  C   UNL     1      -3.121  16.008  23.941  0.00  0.00    +0.000 C 
BRANCH  35  36
ATOM     36  O   UNL     1      -1.835  15.943  23.327  0.00  0.00    +0.000 OA
ATOM     37  H   UNL     1      -1.174  16.206  23.993  0.00  0.00    +0.000 HD
ENDBRANCH  35  36
ENDBRANCH  34  35
ENDBRANCH  31  34
ENDBRANCH  29  31
ENDBRANCH   4  29
TORSDOF 9
ENDMDL
MODEL 6
REMARK VINA RESULT:      -7.0      1.014      1.167
REMARK  Name = 
REMARK  9 active torsions:
REMARK  status: ('A' for Active; 'I' for Inactive)
REMARK    1  A    between atoms: C_2  and  C_14
REMARK    2  A    between atoms: C_8  and  O_9
REMARK    3  A    between atoms: O_9  and  C_10
REMARK    4  A    between atoms: C_17  and  N_18
REMARK    5  A    between atoms: N_18  and  S_19
REMARK    6  A    between atoms: S_19  and  C_22
REMARK    7  A    between atoms: C_22  and  C_23
REMARK    8  A    between atoms: C_23  and  O_24
REMARK    9  A    between atoms: C_26  and  N_27
REMARK                            x       y       z     vdW  Elec       q    Type
REMARK                         _______ _______ _______ _____ _____    ______ ____
ROOT
ATOM      1  C   UNL     1       0.154   9.983  18.339  0.00  0.00    +0.000 A 
ATOM      2  C   UNL     1      -0.861   9.372  17.565  0.00  0.00    +0.000 A 
ATOM      3  C   UNL     1      -1.999  10.074  17.184  0.00  0.00    +0.000 A 
ATOM      4  C   UNL     1      -2.145  11.390  17.588  0.00  0.00    +0.000 A 
ATOM      5  C   UNL     1      -1.133  12.016  18.322  0.00  0.00    +0.000 A 
ATOM      6  C   UNL     1       0.049  11.347  18.730  0.00  0.00    +0.000 A 
ENDROOT
BRANCH   1   8
ATOM      7  O   UNL     1       1.469   8.953  20.017  0.00  0.00    +0.000 OA
ATOM      8  C   UNL     1       1.217   9.044  18.821  0.00  0.00    +0.000 C 
ATOM      9  N   UNL     1       1.859   8.329  17.823  0.00  0.00    +0.000 N 
ATOM     10  C   UNL     1       2.883   7.404  18.054  0.00  0.00    +0.000 A 
ATOM     11  C   UNL     1       2.900   6.572  19.164  0.00  0.00    +0.000 A 
ATOM     12  C   UNL     1       3.985   5.720  19.340  0.00  0.00    +0.000 A 
ATOM     13  C   UNL     1       5.028   5.746  18.420  0.00  0.00    +0.000 A 
ATOM     14  C   UNL     1       4.929   6.606  17.334  0.00  0.00    +0.000 A 
ATOM     15  N   UNL     1       3.849   7.386  17.113  0.00  0.00    +0.000 NA
ATOM     16  H   UNL     1       1.853   8.693  16.880  0.00  0.00    +0.000 HD
BRANCH  14  17
ATOM     17  O   UNL     1       5.891   6.750  16.378  0.00  0.00    +0.000 OA
BRANCH  17  18
ATOM     18  C   UNL     1       6.123   5.580  15.625  0.00  0.00    +0.000 C 
ATOM     19  F   UNL     1       6.939   4.765  16.342  0.00  0.00    +0.000 F 
ATOM     20  F   UNL     1       4.940   4.927  15.501  0.00  0.00    +0.000 F 
ENDBRANCH  17  18
ENDBRANCH  14  17
ENDBRANCH   1   8
BRANCH   6  21
ATOM     21  N   UNL     1       1.014  12.088  19.402  0.00  0.00    +0.000 N 
ATOM     22  C   UNL     1       2.254  12.560  18.770  0.00  0.00    +0.000 C 
ATOM     23  C   UNL     1       2.423  14.060  19.046  0.00  0.00    +0.000 C 
ATOM     24  C   UNL     1       2.352  14.371  20.528  0.00  0.00    +0.000 C 
ATOM     25  C   UNL     1       1.141  13.763  21.216  0.00  0.00    +0.000 C 
ATOM     26  C   UNL     1       0.982  12.274  20.866  0.00  0.00    +0.000 C 
ATOM     27  C   UNL     1       3.636  14.558  21.309  0.00  0.00    +0.000 C 
ATOM     28  C   UNL     1       2.794  15.752  20.964  0.00  0.00    +0.000 C 
ENDBRANCH   6  21
BRANCH   4  29
ATOM     29  N   UNL     1      -3.313  12.108  17.201  0.00  0.00    +0.000 N 
ATOM     30  H   UNL     1      -3.468  12.176  16.196  0.00  0.00    +0.000 HD
BRANCH  29  31
ATOM     31  S   UNL     1      -4.779  11.693  17.958  0.00  0.00    +0.000 S 
ATOM     32  O   UNL     1      -5.792  12.434  17.240  0.00  0.00    +0.000 OA
ATOM     33  O   UNL     1      -4.859  10.262  18.113  0.00  0.00    +0.000 OA
BRANCH  31  34
ATOM     34  C   UNL     1      -4.573  12.439  19.555  0.00  0.00    +0.000 C 
BRANCH  34  35
ATOM     35  C   UNL     1      -5.837  12.255  20.375  0.00  0.00    +0.000 C 
BRANCH  35  36
ATOM     36  O   UNL     1      -6.749  11.410  19.673  0.00  0.00    +0.000 OA
ATOM     37  H   UNL     1      -7.465  11.971  19.324  0.00  0.00    +0.000 HD
ENDBRANCH  35  36
ENDBRANCH  34  35
ENDBRANCH  31  34
ENDBRANCH  29  31
ENDBRANCH   4  29
TORSDOF 9
ENDMDL
MODEL 7
REMARK VINA RESULT:      -7.0      3.991      5.251
REMARK  Name = 
REMARK  9 active torsions:
REMARK  status: ('A' for Active; 'I' for Inactive)
REMARK    1  A    between atoms: C_2  and  C_14
REMARK    2  A    between atoms: C_8  and  O_9
REMARK    3  A    between atoms: O_9  and  C_10
REMARK    4  A    between atoms: C_17  and  N_18
REMARK    5  A    between atoms: N_18  and  S_19
REMARK    6  A    between atoms: S_19  and  C_22
REMARK    7  A    between atoms: C_22  and  C_23
REMARK    8  A    between atoms: C_23  and  O_24
REMARK    9  A    between atoms: C_26  and  N_27
REMARK                            x       y       z     vdW  Elec       q    Type
REMARK                         _______ _______ _______ _____ _____    ______ ____
ROOT
ATOM      1  C   UNL     1      -0.270  11.653  20.882  0.00  0.00    +0.000 A 
ATOM      2  C   UNL     1      -1.178  11.214  21.875  0.00  0.00    +0.000 A 
ATOM      3  C   UNL     1      -1.573  12.051  22.912  0.00  0.00    +0.000 A 
ATOM      4  C   UNL     1      -1.049  13.330  22.982  0.00  0.00    +0.000 A 
ATOM      5  C   UNL     1      -0.179  13.788  21.987  0.00  0.00    +0.000 A 
ATOM      6  C   UNL     1       0.248  12.978  20.905  0.00  0.00    +0.000 A 
ENDROOT
BRANCH   1   8
ATOM      7  O   UNL     1      -0.209  10.548  18.789  0.00  0.00    +0.000 OA
ATOM      8  C   UNL     1       0.194  10.579  19.947  0.00  0.00    +0.000 C 
ATOM      9  N   UNL     1       1.077   9.665  20.498  0.00  0.00    +0.000 N 
ATOM     10  C   UNL     1       1.627   8.584  19.802  0.00  0.00    +0.000 A 
ATOM     11  C   UNL     1       1.976   8.661  18.462  0.00  0.00    +0.000 A 
ATOM     12  C   UNL     1       2.468   7.521  17.836  0.00  0.00    +0.000 A 
ATOM     13  C   UNL     1       2.567   6.337  18.558  0.00  0.00    +0.000 A 
ATOM     14  C   UNL     1       2.200   6.347  19.898  0.00  0.00    +0.000 A 
ATOM     15  N   UNL     1       1.789   7.465  20.536  0.00  0.00    +0.000 NA
ATOM     16  H   UNL     1       1.089   9.544  21.502  0.00  0.00    +0.000 HD
BRANCH  14  17
ATOM     17  O   UNL     1       2.221   5.252  20.709  0.00  0.00    +0.000 OA
BRANCH  17  18
ATOM     18  C   UNL     1       1.695   4.088  20.108  0.00  0.00    +0.000 C 
ATOM     19  F   UNL     1       2.138   3.010  20.805  0.00  0.00    +0.000 F 
ATOM     20  F   UNL     1       0.347   4.118  20.260  0.00  0.00    +0.000 F 
ENDBRANCH  17  18
ENDBRANCH  14  17
ENDBRANCH   1   8
BRANCH   6  21
ATOM     21  N   UNL     1       1.065  13.560  19.942  0.00  0.00    +0.000 N 
ATOM     22  C   UNL     1       0.547  14.330  18.804  0.00  0.00    +0.000 C 
ATOM     23  C   UNL     1       1.284  15.673  18.724  0.00  0.00    +0.000 C 
ATOM     24  C   UNL     1       2.788  15.489  18.685  0.00  0.00    +0.000 C 
ATOM     25  C   UNL     1       3.313  14.575  19.780  0.00  0.00    +0.000 C 
ATOM     26  C   UNL     1       2.508  13.267  19.856  0.00  0.00    +0.000 C 
ATOM     27  C   UNL     1       3.508  15.546  17.354  0.00  0.00    +0.000 C 
ATOM     28  C   UNL     1       3.621  16.697  18.312  0.00  0.00    +0.000 C 
ENDBRANCH   6  21
BRANCH   4  29
ATOM     29  N   UNL     1      -1.450  14.187  24.047  0.00  0.00    +0.000 N 
ATOM     30  H   UNL     1      -0.827  14.972  24.232  0.00  0.00    +0.000 HD
BRANCH  29  31
ATOM     31  S   UNL     1      -3.057  14.746  24.044  0.00  0.00    +0.000 S 
ATOM     32  O   UNL     1      -3.257  15.294  22.721  0.00  0.00    +0.000 OA
ATOM     33  O   UNL     1      -3.927  13.730  24.580  0.00  0.00    +0.000 OA
BRANCH  31  34
ATOM     34  C   UNL     1      -2.962  16.094  25.195  0.00  0.00    +0.000 C 
BRANCH  34  35
ATOM     35  C   UNL     1      -1.612  16.083  25.888  0.00  0.00    +0.000 C 
BRANCH  35  36
ATOM     36  O   UNL     1      -0.660  16.799  25.103  0.00  0.00    +0.000 OA
ATOM     37  H   UNL     1      -1.058  17.654  24.859  0.00  0.00    +0.000 HD
ENDBRANCH  35  36
ENDBRANCH  34  35
ENDBRANCH  31  34
ENDBRANCH  29  31
ENDBRANCH   4  29
TORSDOF 9
ENDMDL
MODEL 8
REMARK VINA RESULT:      -7.0      0.961      1.304
REMARK  Name = 
REMARK  9 active torsions:
REMARK  status: ('A' for Active; 'I' for Inactive)
REMARK    1  A    between atoms: C_2  and  C_14
REMARK    2  A    between atoms: C_8  and  O_9
REMARK    3  A    between atoms: O_9  and  C_10
REMARK    4  A    between atoms: C_17  and  N_18
REMARK    5  A    between atoms: N_18  and  S_19
REMARK    6  A    between atoms: S_19  and  C_22
REMARK    7  A    between atoms: C_22  and  C_23
REMARK    8  A    between atoms: C_23  and  O_24
REMARK    9  A    between atoms: C_26  and  N_27
REMARK                            x       y       z     vdW  Elec       q    Type
REMARK                         _______ _______ _______ _____ _____    ______ ____
ROOT
ATOM      1  C   UNL     1      -0.176  10.116  18.662  0.00  0.00    +0.000 A 
ATOM      2  C   UNL     1      -1.326   9.458  18.166  0.00  0.00    +0.000 A 
ATOM      3  C   UNL     1      -2.503  10.154  17.916  0.00  0.00    +0.000 A 
ATOM      4  C   UNL     1      -2.552  11.512  18.178  0.00  0.00    +0.000 A 
ATOM      5  C   UNL     1      -1.411  12.180  18.634  0.00  0.00    +0.000 A 
ATOM      6  C   UNL     1      -0.185  11.519  18.897  0.00  0.00    +0.000 A 
ENDROOT
BRANCH   1   8
ATOM      7  O   UNL     1       1.334   9.157  20.213  0.00  0.00    +0.000 OA
ATOM      8  C   UNL     1       0.943   9.200  19.052  0.00  0.00    +0.000 C 
ATOM      9  N   UNL     1       1.468   8.445  18.016  0.00  0.00    +0.000 N 
ATOM     10  C   UNL     1       2.518   7.533  18.161  0.00  0.00    +0.000 A 
ATOM     11  C   UNL     1       2.671   6.747  19.294  0.00  0.00    +0.000 A 
ATOM     12  C   UNL     1       3.775   5.905  19.374  0.00  0.00    +0.000 A 
ATOM     13  C   UNL     1       4.702   5.895  18.338  0.00  0.00    +0.000 A 
ATOM     14  C   UNL     1       4.471   6.710  17.238  0.00  0.00    +0.000 A 
ATOM     15  N   UNL     1       3.367   7.479  17.115  0.00  0.00    +0.000 NA
ATOM     16  H   UNL     1       1.348   8.772  17.066  0.00  0.00    +0.000 HD
BRANCH  14  17
ATOM     17  O   UNL     1       5.313   6.817  16.170  0.00  0.00    +0.000 OA
BRANCH  17  18
ATOM     18  C   UNL     1       5.845   5.583  15.740  0.00  0.00    +0.000 C 
ATOM     19  F   UNL     1       5.385   5.334  14.487  0.00  0.00    +0.000 F 
ATOM     20  F   UNL     1       7.190   5.728  15.634  0.00  0.00    +0.000 F 
ENDBRANCH  17  18
ENDBRANCH  14  17
ENDBRANCH   1   8
BRANCH   6  21
ATOM     21  N   UNL     1       0.899  12.296  19.289  0.00  0.00    +0.000 N 
ATOM     22  C   UNL     1       2.050  12.571  18.418  0.00  0.00    +0.000 C 
ATOM     23  C   UNL     1       2.322  14.081  18.400  0.00  0.00    +0.000 C 
ATOM     24  C   UNL     1       2.485  14.640  19.799  0.00  0.00    +0.000 C 
ATOM     25  C   UNL     1       1.365  14.238  20.744  0.00  0.00    +0.000 C 
ATOM     26  C   UNL     1       1.094  12.726  20.687  0.00  0.00    +0.000 C 
ATOM     27  C   UNL     1       3.878  14.868  20.349  0.00  0.00    +0.000 C 
ATOM     28  C   UNL     1       3.044  16.042  19.920  0.00  0.00    +0.000 C 
ENDBRANCH   6  21
BRANCH   4  29
ATOM     29  N   UNL     1      -3.759  12.225  17.925  0.00  0.00    +0.000 N 
ATOM     30  H   UNL     1      -4.179  12.059  17.012  0.00  0.00    +0.000 HD
BRANCH  29  31
ATOM     31  S   UNL     1      -4.976  12.155  19.112  0.00  0.00    +0.000 S 
ATOM     32  O   UNL     1      -5.647  10.894  18.884  0.00  0.00    +0.000 OA
ATOM     33  O   UNL     1      -4.421  12.492  20.399  0.00  0.00    +0.000 OA
BRANCH  31  34
ATOM     34  C   UNL     1      -6.055  13.462  18.586  0.00  0.00    +0.000 C 
BRANCH  34  35
ATOM     35  C   UNL     1      -6.279  13.371  17.088  0.00  0.00    +0.000 C 
BRANCH  35  36
ATOM     36  O   UNL     1      -6.800  12.085  16.754  0.00  0.00    +0.000 OA
ATOM     37  H   UNL     1      -7.250  12.160  15.894  0.00  0.00    +0.000 HD
ENDBRANCH  35  36
ENDBRANCH  34  35
ENDBRANCH  31  34
ENDBRANCH  29  31
ENDBRANCH   4  29
TORSDOF 9
ENDMDL
MODEL 9
REMARK VINA RESULT:      -7.0      7.480     10.484
REMARK  Name = 
REMARK  9 active torsions:
REMARK  status: ('A' for Active; 'I' for Inactive)
REMARK    1  A    between atoms: C_2  and  C_14
REMARK    2  A    between atoms: C_8  and  O_9
REMARK    3  A    between atoms: O_9  and  C_10
REMARK    4  A    between atoms: C_17  and  N_18
REMARK    5  A    between atoms: N_18  and  S_19
REMARK    6  A    between atoms: S_19  and  C_22
REMARK    7  A    between atoms: C_22  and  C_23
REMARK    8  A    between atoms: C_23  and  O_24
REMARK    9  A    between atoms: C_26  and  N_27
REMARK                            x       y       z     vdW  Elec       q    Type
REMARK                         _______ _______ _______ _____ _____    ______ ____
ROOT
ATOM      1  C   UNL     1       6.741   5.979  16.601  0.00  0.00    +0.000 A 
ATOM      2  C   UNL     1       7.534   5.867  15.434  0.00  0.00    +0.000 A 
ATOM      3  C   UNL     1       7.288   4.879  14.487  0.00  0.00    +0.000 A 
ATOM      4  C   UNL     1       6.259   3.979  14.705  0.00  0.00    +0.000 A 
ATOM      5  C   UNL     1       5.446   4.101  15.836  0.00  0.00    +0.000 A 
ATOM      6  C   UNL     1       5.650   5.095  16.827  0.00  0.00    +0.000 A 
ENDROOT
BRANCH   1   8
ATOM      7  O   UNL     1       7.183   6.728  18.803  0.00  0.00    +0.000 OA
ATOM      8  C   UNL     1       7.249   6.970  17.603  0.00  0.00    +0.000 C 
ATOM      9  N   UNL     1       7.771   8.133  17.061  0.00  0.00    +0.000 N 
ATOM     10  C   UNL     1       8.293   9.188  17.817  0.00  0.00    +0.000 A 
ATOM     11  C   UNL     1       9.007   8.983  18.988  0.00  0.00    +0.000 A 
ATOM     12  C   UNL     1       9.444  10.092  19.704  0.00  0.00    +0.000 A 
ATOM     13  C   UNL     1       9.131  11.366  19.243  0.00  0.00    +0.000 A 
ATOM     14  C   UNL     1       8.415  11.483  18.058  0.00  0.00    +0.000 A 
ATOM     15  N   UNL     1       8.047  10.415  17.317  0.00  0.00    +0.000 NA
ATOM     16  H   UNL     1       7.484   8.410  16.131  0.00  0.00    +0.000 HD
BRANCH  14  17
ATOM     17  O   UNL     1       8.019  12.669  17.513  0.00  0.00    +0.000 OA
BRANCH  17  18
ATOM     18  C   UNL     1       8.272  13.786  18.338  0.00  0.00    +0.000 C 
ATOM     19  F   UNL     1       9.046  14.661  17.644  0.00  0.00    +0.000 F 
ATOM     20  F   UNL     1       7.089  14.411  18.561  0.00  0.00    +0.000 F 
ENDBRANCH  17  18
ENDBRANCH  14  17
ENDBRANCH   1   8
BRANCH   6  21
ATOM     21  N   UNL     1       4.741   5.160  17.877  0.00  0.00    +0.000 N 
ATOM     22  C   UNL     1       3.667   6.160  17.953  0.00  0.00    +0.000 C 
ATOM     23  C   UNL     1       2.335   5.453  18.234  0.00  0.00    +0.000 C 
ATOM     24  C   UNL     1       2.416   4.568  19.463  0.00  0.00    +0.000 C 
ATOM     25  C   UNL     1       3.610   3.628  19.453  0.00  0.00    +0.000 C 
ATOM     26  C   UNL     1       4.912   4.373  19.113  0.00  0.00    +0.000 C 
ATOM     27  C   UNL     1       1.886   5.085  20.784  0.00  0.00    +0.000 C 
ATOM     28  C   UNL     1       1.110   4.047  20.024  0.00  0.00    +0.000 C 
ENDBRANCH   6  21
BRANCH   4  29
ATOM     29  N   UNL     1       6.009   2.964  13.737  0.00  0.00    +0.000 N 
ATOM     30  H   UNL     1       5.138   2.451  13.860  0.00  0.00    +0.000 HD
BRANCH  29  31
ATOM     31  S   UNL     1       6.176   3.384  12.097  0.00  0.00    +0.000 S 
ATOM     32  O   UNL     1       4.823   3.450  11.590  0.00  0.00    +0.000 OA
ATOM     33  O   UNL     1       7.085   4.495  11.969  0.00  0.00    +0.000 OA
BRANCH  31  34
ATOM     34  C   UNL     1       6.945   1.927  11.437  0.00  0.00    +0.000 C 
BRANCH  34  35
ATOM     35  C   UNL     1       5.883   0.905  11.074  0.00  0.00    +0.000 C 
BRANCH  35  36
ATOM     36  O   UNL     1       6.271  -0.384  11.547  0.00  0.00    +0.000 OA
ATOM     37  H   UNL     1       5.460  -0.878  11.763  0.00  0.00    +0.000 HD
ENDBRANCH  35  36
ENDBRANCH  34  35
ENDBRANCH  31  34
ENDBRANCH  29  31
ENDBRANCH   4  29
TORSDOF 9
ENDMDL
