MODEL 1
REMARK VINA RESULT:      -9.4      0.000      0.000
REMARK  Name = 
REMARK  7 active torsions:
REMARK  status: ('A' for Active; 'I' for Inactive)
REMARK    1  A    between atoms: C_1  and  O_2
REMARK    2  A    between atoms: O_2  and  C_3
REMARK    3  A    between atoms: C_7  and  C_8
REMARK    4  A    between atoms: C_10  and  C_11
REMARK    5  A    between atoms: N_13  and  C_14
REMARK    6  A    between atoms: C_29  and  O_30
REMARK    7  A    between atoms: O_30  and  C_31
REMARK                            x       y       z     vdW  Elec       q    Type
REMARK                         _______ _______ _______ _____ _____    ______ ____
ROOT
ATOM      1  C   UNL     1       1.466   8.410  19.942  0.00  0.00    +0.000 C 
ATOM      2  O   UNL     1       1.984   9.185  19.140  0.00  0.00    +0.000 OA
ATOM      3  N   UNL     1       0.507   8.802  20.878  0.00  0.00    +0.000 N 
ATOM      4  H   UNL     1       0.308   8.212  21.680  0.00  0.00    +0.000 HD
ENDROOT
BRANCH   3   5
ATOM      5  C   UNL     1      -0.029  10.088  20.956  0.00  0.00    +0.000 C 
ATOM      6  C   UNL     1      -0.451  10.836  19.922  0.00  0.00    +0.000 C 
ATOM      7 CL   UNL     1      -1.413  10.120  18.654  0.00  0.00    +0.000 Cl
ATOM      8  C   UNL     1      -0.722  12.276  20.111  0.00  0.00    +0.000 C 
ATOM      9  O   UNL     1      -0.390  13.146  19.316  0.00  0.00    +0.000 OA
ATOM     10  C   UNL     1      -1.519  12.560  21.292  0.00  0.00    +0.000 A 
ATOM     11  C   UNL     1      -2.488  13.554  21.234  0.00  0.00    +0.000 A 
ATOM     12  C   UNL     1      -3.457  13.603  22.227  0.00  0.00    +0.000 A 
ATOM     13  C   UNL     1      -3.424  12.674  23.274  0.00  0.00    +0.000 A 
ATOM     14  C   UNL     1      -2.387  11.732  23.371  0.00  0.00    +0.000 A 
ATOM     15  C   UNL     1      -1.421  11.674  22.368  0.00  0.00    +0.000 A 
ATOM     16  C   UNL     1      -0.362  10.628  22.326  0.00  0.00    +0.000 C 
ATOM     17  O   UNL     1       0.102  10.133  23.344  0.00  0.00    +0.000 OA
ENDBRANCH   3   5
BRANCH   1  20
ATOM     18  C   UNL     1       3.645   5.397  19.022  0.00  0.00    +0.000 A 
ATOM     19  C   UNL     1       2.987   6.656  19.023  0.00  0.00    +0.000 A 
ATOM     20  C   UNL     1       1.950   6.995  19.924  0.00  0.00    +0.000 A 
ATOM     21  C   UNL     1       1.494   6.028  20.807  0.00  0.00    +0.000 A 
ATOM     22  C   UNL     1       2.069   4.756  20.792  0.00  0.00    +0.000 A 
ATOM     23  C   UNL     1       3.132   4.431  19.926  0.00  0.00    +0.000 A 
BRANCH  18  28
ATOM     24  C   UNL     1       6.077   4.257  16.240  0.00  0.00    +0.000 A 
ATOM     25  C   UNL     1       7.305   4.540  16.831  0.00  0.00    +0.000 A 
ATOM     26  C   UNL     1       7.354   5.181  18.061  0.00  0.00    +0.000 A 
ATOM     27  C   UNL     1       6.166   5.488  18.733  0.00  0.00    +0.000 A 
ATOM     28  C   UNL     1       4.894   5.197  18.193  0.00  0.00    +0.000 A 
ATOM     29  C   UNL     1       4.891   4.631  16.893  0.00  0.00    +0.000 A 
BRANCH  24  31
ATOM     30  C   UNL     1       6.514   4.331  13.888  0.00  0.00    +0.000 C 
ATOM     31  O   UNL     1       6.183   3.588  15.051  0.00  0.00    +0.000 OA
ENDBRANCH  24  31
ENDBRANCH  18  28
BRANCH  23  32
ATOM     32  O   UNL     1       3.761   3.212  20.004  0.00  0.00    +0.000 OA
ATOM     33  C   UNL     1       3.086   2.088  19.450  0.00  0.00    +0.000 C 
ENDBRANCH  23  32
ENDBRANCH   1  20
TORSDOF 5
ENDMDL
MODEL 2
REMARK VINA RESULT:      -9.3      1.032      1.539
REMARK  Name = 
REMARK  7 active torsions:
REMARK  status: ('A' for Active; 'I' for Inactive)
REMARK    1  A    between atoms: C_1  and  O_2
REMARK    2  A    between atoms: O_2  and  C_3
REMARK    3  A    between atoms: C_7  and  C_8
REMARK    4  A    between atoms: C_10  and  C_11
REMARK    5  A    between atoms: N_13  and  C_14
REMARK    6  A    between atoms: C_29  and  O_30
REMARK    7  A    between atoms: O_30  and  C_31
REMARK                            x       y       z     vdW  Elec       q    Type
REMARK                         _______ _______ _______ _____ _____    ______ ____
ROOT
ATOM      1  C   UNL     1       1.278   8.626  19.900  0.00  0.00    +0.000 C 
ATOM      2  O   UNL     1       1.755   9.414  19.086  0.00  0.00    +0.000 OA
ATOM      3  N   UNL     1       0.336   8.995  20.863  0.00  0.00    +0.000 N 
ATOM      4  H   UNL     1       0.173   8.399  21.669  0.00  0.00    +0.000 HD
ENDROOT
BRANCH   3   5
ATOM      5  C   UNL     1      -0.227  10.268  20.958  0.00  0.00    +0.000 C 
ATOM      6  C   UNL     1      -0.684  11.013  19.936  0.00  0.00    +0.000 C 
ATOM      7 CL   UNL     1      -1.651  10.283  18.680  0.00  0.00    +0.000 Cl
ATOM      8  C   UNL     1      -0.983  12.444  20.139  0.00  0.00    +0.000 C 
ATOM      9  O   UNL     1      -0.684  13.327  19.344  0.00  0.00    +0.000 OA
ATOM     10  C   UNL     1      -1.766  12.704  21.335  0.00  0.00    +0.000 A 
ATOM     11  C   UNL     1      -2.757  13.676  21.300  0.00  0.00    +0.000 A 
ATOM     12  C   UNL     1      -3.710  13.697  22.310  0.00  0.00    +0.000 A 
ATOM     13  C   UNL     1      -3.638  12.763  23.351  0.00  0.00    +0.000 A 
ATOM     14  C   UNL     1      -2.579  11.844  23.424  0.00  0.00    +0.000 A 
ATOM     15  C   UNL     1      -1.629  11.813  22.404  0.00  0.00    +0.000 A 
ATOM     16  C   UNL     1      -0.548  10.792  22.337  0.00  0.00    +0.000 C 
ATOM     17  O   UNL     1      -0.056  10.301  23.344  0.00  0.00    +0.000 OA
ENDBRANCH   3   5
BRANCH   1  20
ATOM     18  C   UNL     1       3.401   5.631  18.804  0.00  0.00    +0.000 A 
ATOM     19  C   UNL     1       2.715   6.875  18.849  0.00  0.00    +0.000 A 
ATOM     20  C   UNL     1       1.793   7.223  19.866  0.00  0.00    +0.000 A 
ATOM     21  C   UNL     1       1.481   6.278  20.832  0.00  0.00    +0.000 A 
ATOM     22  C   UNL     1       2.084   5.019  20.784  0.00  0.00    +0.000 A 
ATOM     23  C   UNL     1       3.035   4.687  19.799  0.00  0.00    +0.000 A 
BRANCH  18  28
ATOM     24  C   UNL     1       6.668   6.135  16.799  0.00  0.00    +0.000 A 
ATOM     25  C   UNL     1       6.481   5.230  15.759  0.00  0.00    +0.000 A 
ATOM     26  C   UNL     1       5.372   4.395  15.753  0.00  0.00    +0.000 A 
ATOM     27  C   UNL     1       4.411   4.508  16.763  0.00  0.00    +0.000 A 
ATOM     28  C   UNL     1       4.537   5.430  17.827  0.00  0.00    +0.000 A 
ATOM     29  C   UNL     1       5.731   6.192  17.844  0.00  0.00    +0.000 A 
BRANCH  24  31
ATOM     30  C   UNL     1       7.946   8.026  17.523  0.00  0.00    +0.000 C 
ATOM     31  O   UNL     1       7.781   6.917  16.651  0.00  0.00    +0.000 OA
ENDBRANCH  24  31
ENDBRANCH  18  28
BRANCH  23  32
ATOM     32  O   UNL     1       3.702   3.486  19.834  0.00  0.00    +0.000 OA
ATOM     33  C   UNL     1       2.970   2.319  19.475  0.00  0.00    +0.000 C 
ENDBRANCH  23  32
ENDBRANCH   1  20
TORSDOF 5
ENDMDL
MODEL 3
REMARK VINA RESULT:      -9.0      1.460      1.981
REMARK  Name = 
REMARK  7 active torsions:
REMARK  status: ('A' for Active; 'I' for Inactive)
REMARK    1  A    between atoms: C_1  and  O_2
REMARK    2  A    between atoms: O_2  and  C_3
REMARK    3  A    between atoms: C_7  and  C_8
REMARK    4  A    between atoms: C_10  and  C_11
REMARK    5  A    between atoms: N_13  and  C_14
REMARK    6  A    between atoms: C_29  and  O_30
REMARK    7  A    between atoms: O_30  and  C_31
REMARK                            x       y       z     vdW  Elec       q    Type
REMARK                         _______ _______ _______ _____ _____    ______ ____
ROOT
ATOM      1  C   UNL     1       1.219   7.183  20.479  0.00  0.00    +0.000 C 
ATOM      2  O   UNL     1       0.168   7.108  21.113  0.00  0.00    +0.000 OA
ATOM      3  N   UNL     1       1.732   8.385  19.984  0.00  0.00    +0.000 N 
ATOM      4  H   UNL     1       2.437   8.374  19.254  0.00  0.00    +0.000 HD
ENDROOT
BRANCH   3   5
ATOM      5  C   UNL     1       1.160   9.635  20.222  0.00  0.00    +0.000 C 
ATOM      6  C   UNL     1       0.615  10.447  19.299  0.00  0.00    +0.000 C 
ATOM      7 CL   UNL     1      -0.437   9.798  18.068  0.00  0.00    +0.000 Cl
ATOM      8  C   UNL     1       0.313  11.853  19.636  0.00  0.00    +0.000 C 
ATOM      9  O   UNL     1       0.537  12.800  18.892  0.00  0.00    +0.000 OA
ATOM     10  C   UNL     1      -0.377  12.004  20.906  0.00  0.00    +0.000 A 
ATOM     11  C   UNL     1      -1.382  12.956  21.023  0.00  0.00    +0.000 A 
ATOM     12  C   UNL     1      -2.253  12.881  22.102  0.00  0.00    +0.000 A 
ATOM     13  C   UNL     1      -2.087  11.870  23.057  0.00  0.00    +0.000 A 
ATOM     14  C   UNL     1      -1.013  10.970  22.976  0.00  0.00    +0.000 A 
ATOM     15  C   UNL     1      -0.146  11.037  21.887  0.00  0.00    +0.000 A 
ATOM     16  C   UNL     1       0.940  10.045  21.658  0.00  0.00    +0.000 C 
ATOM     17  O   UNL     1       1.516   9.488  22.583  0.00  0.00    +0.000 OA
ENDBRANCH   3   5
BRANCH   1  20
ATOM     18  C   UNL     1       3.639   4.751  18.776  0.00  0.00    +0.000 A 
ATOM     19  C   UNL     1       2.784   5.848  19.064  0.00  0.00    +0.000 A 
ATOM     20  C   UNL     1       1.931   5.900  20.192  0.00  0.00    +0.000 A 
ATOM     21  C   UNL     1       1.864   4.794  21.026  0.00  0.00    +0.000 A 
ATOM     22  C   UNL     1       2.639   3.668  20.740  0.00  0.00    +0.000 A 
ATOM     23  C   UNL     1       3.522   3.633  19.643  0.00  0.00    +0.000 A 
BRANCH  18  28
ATOM     24  C   UNL     1       6.632   5.995  16.668  0.00  0.00    +0.000 A 
ATOM     25  C   UNL     1       6.426   5.298  15.481  0.00  0.00    +0.000 A 
ATOM     26  C   UNL     1       5.402   4.365  15.390  0.00  0.00    +0.000 A 
ATOM     27  C   UNL     1       4.540   4.170  16.474  0.00  0.00    +0.000 A 
ATOM     28  C   UNL     1       4.686   4.872  17.692  0.00  0.00    +0.000 A 
ATOM     29  C   UNL     1       5.802   5.741  17.773  0.00  0.00    +0.000 A 
BRANCH  24  31
ATOM     30  C   UNL     1       7.739   7.895  17.614  0.00  0.00    +0.000 C 
ATOM     31  O   UNL     1       7.648   6.908  16.597  0.00  0.00    +0.000 OA
ENDBRANCH  24  31
ENDBRANCH  18  28
BRANCH  23  32
ATOM     32  O   UNL     1       4.361   2.562  19.443  0.00  0.00    +0.000 OA
ATOM     33  C   UNL     1       3.818   1.416  18.797  0.00  0.00    +0.000 C 
ENDBRANCH  23  32
ENDBRANCH   1  20
TORSDOF 5
ENDMDL
MODEL 4
REMARK VINA RESULT:      -8.8      1.137      1.280
REMARK  Name = 
REMARK  7 active torsions:
REMARK  status: ('A' for Active; 'I' for Inactive)
REMARK    1  A    between atoms: C_1  and  O_2
REMARK    2  A    between atoms: O_2  and  C_3
REMARK    3  A    between atoms: C_7  and  C_8
REMARK    4  A    between atoms: C_10  and  C_11
REMARK    5  A    between atoms: N_13  and  C_14
REMARK    6  A    between atoms: C_29  and  O_30
REMARK    7  A    between atoms: O_30  and  C_31
REMARK                            x       y       z     vdW  Elec       q    Type
REMARK                         _______ _______ _______ _____ _____    ______ ____
ROOT
ATOM      1  C   UNL     1       1.109   7.181  20.549  0.00  0.00    +0.000 C 
ATOM      2  O   UNL     1       0.024   7.132  21.125  0.00  0.00    +0.000 OA
ATOM      3  N   UNL     1       1.689   8.372  20.106  0.00  0.00    +0.000 N 
ATOM      4  H   UNL     1       2.431   8.349  19.414  0.00  0.00    +0.000 HD
ENDROOT
BRANCH   3   5
ATOM      5  C   UNL     1       1.148   9.637  20.336  0.00  0.00    +0.000 C 
ATOM      6  C   UNL     1       0.655  10.472  19.404  0.00  0.00    +0.000 C 
ATOM      7 CL   UNL     1      -0.379   9.863  18.138  0.00  0.00    +0.000 Cl
ATOM      8  C   UNL     1       0.386  11.884  19.743  0.00  0.00    +0.000 C 
ATOM      9  O   UNL     1       0.659  12.828  19.013  0.00  0.00    +0.000 OA
ATOM     10  C   UNL     1      -0.337  12.047  20.993  0.00  0.00    +0.000 A 
ATOM     11  C   UNL     1      -1.315  13.029  21.088  0.00  0.00    +0.000 A 
ATOM     12  C   UNL     1      -2.220  12.972  22.141  0.00  0.00    +0.000 A 
ATOM     13  C   UNL     1      -2.112  11.951  23.093  0.00  0.00    +0.000 A 
ATOM     14  C   UNL     1      -1.064  11.019  23.036  0.00  0.00    +0.000 A 
ATOM     15  C   UNL     1      -0.163  11.067  21.973  0.00  0.00    +0.000 A 
ATOM     16  C   UNL     1       0.899  10.044  21.768  0.00  0.00    +0.000 C 
ATOM     17  O   UNL     1       1.430   9.464  22.705  0.00  0.00    +0.000 OA
ENDBRANCH   3   5
BRANCH   1  20
ATOM     18  C   UNL     1       3.751   4.749  19.214  0.00  0.00    +0.000 A 
ATOM     19  C   UNL     1       2.919   5.882  19.422  0.00  0.00    +0.000 A 
ATOM     20  C   UNL     1       1.791   5.878  20.277  0.00  0.00    +0.000 A 
ATOM     21  C   UNL     1       1.426   4.690  20.890  0.00  0.00    +0.000 A 
ATOM     22  C   UNL     1       2.178   3.536  20.658  0.00  0.00    +0.000 A 
ATOM     23  C   UNL     1       3.328   3.549  19.844  0.00  0.00    +0.000 A 
BRANCH  18  28
ATOM     24  C   UNL     1       6.539   4.437  16.554  0.00  0.00    +0.000 A 
ATOM     25  C   UNL     1       7.640   4.898  17.271  0.00  0.00    +0.000 A 
ATOM     26  C   UNL     1       7.474   5.398  18.555  0.00  0.00    +0.000 A 
ATOM     27  C   UNL     1       6.209   5.382  19.150  0.00  0.00    +0.000 A 
ATOM     28  C   UNL     1       5.063   4.899  18.479  0.00  0.00    +0.000 A 
ATOM     29  C   UNL     1       5.262   4.490  17.137  0.00  0.00    +0.000 A 
BRANCH  24  31
ATOM     30  C   UNL     1       6.089   4.358  14.204  0.00  0.00    +0.000 C 
ATOM     31  O   UNL     1       6.858   3.938  15.321  0.00  0.00    +0.000 OA
ENDBRANCH  24  31
ENDBRANCH  18  28
BRANCH  23  32
ATOM     32  O   UNL     1       4.120   2.433  19.720  0.00  0.00    +0.000 OA
ATOM     33  C   UNL     1       3.723   1.450  18.771  0.00  0.00    +0.000 C 
ENDBRANCH  23  32
ENDBRANCH   1  20
TORSDOF 5
ENDMDL
MODEL 5
REMARK VINA RESULT:      -8.4      2.004      2.895
REMARK  Name = 
REMARK  7 active torsions:
REMARK  status: ('A' for Active; 'I' for Inactive)
REMARK    1  A    between atoms: C_1  and  O_2
REMARK    2  A    between atoms: O_2  and  C_3
REMARK    3  A    between atoms: C_7  and  C_8
REMARK    4  A    between atoms: C_10  and  C_11
REMARK    5  A    between atoms: N_13  and  C_14
REMARK    6  A    between atoms: C_29  and  O_30
REMARK    7  A    between atoms: O_30  and  C_31
REMARK                            x       y       z     vdW  Elec       q    Type
REMARK                         _______ _______ _______ _____ _____    ______ ____
ROOT
ATOM      1  C   UNL     1       1.568   8.152  20.665  0.00  0.00    +0.000 C 
ATOM      2  O   UNL     1       2.087   8.550  21.705  0.00  0.00    +0.000 OA
ATOM      3  N   UNL     1       0.658   8.908  19.923  0.00  0.00    +0.000 N 
ATOM      4  H   UNL     1       0.061   8.457  19.238  0.00  0.00    +0.000 HD
ENDROOT
BRANCH   3   5
ATOM      5  C   UNL     1       0.300  10.221  20.230  0.00  0.00    +0.000 C 
ATOM      6  C   UNL     1      -0.595  10.604  21.157  0.00  0.00    +0.000 C 
ATOM      7 CL   UNL     1      -0.609   9.849  22.730  0.00  0.00    +0.000 Cl
ATOM      8  C   UNL     1      -1.090  11.995  21.178  0.00  0.00    +0.000 C 
ATOM      9  O   UNL     1      -2.262  12.304  21.358  0.00  0.00    +0.000 OA
ATOM     10  C   UNL     1      -0.031  12.984  21.067  0.00  0.00    +0.000 A 
ATOM     11  C   UNL     1      -0.113  14.153  21.814  0.00  0.00    +0.000 A 
ATOM     12  C   UNL     1       1.028  14.930  21.967  0.00  0.00    +0.000 A 
ATOM     13  C   UNL     1       2.221  14.539  21.348  0.00  0.00    +0.000 A 
ATOM     14  C   UNL     1       2.267  13.405  20.521  0.00  0.00    +0.000 A 
ATOM     15  C   UNL     1       1.127  12.617  20.378  0.00  0.00    +0.000 A 
ATOM     16  C   UNL     1       1.122  11.333  19.624  0.00  0.00    +0.000 C 
ATOM     17  O   UNL     1       1.852  11.143  18.661  0.00  0.00    +0.000 OA
ENDBRANCH   3   5
BRANCH   1  20
ATOM     18  C   UNL     1       3.341   5.349  18.747  0.00  0.00    +0.000 A 
ATOM     19  C   UNL     1       2.812   6.605  19.150  0.00  0.00    +0.000 A 
ATOM     20  C   UNL     1       1.907   6.763  20.227  0.00  0.00    +0.000 A 
ATOM     21  C   UNL     1       1.450   5.630  20.882  0.00  0.00    +0.000 A 
ATOM     22  C   UNL     1       1.894   4.370  20.472  0.00  0.00    +0.000 A 
ATOM     23  C   UNL     1       2.829   4.215  19.430  0.00  0.00    +0.000 A 
BRANCH  18  28
ATOM     24  C   UNL     1       6.590   6.157  16.813  0.00  0.00    +0.000 A 
ATOM     25  C   UNL     1       6.413   5.388  15.667  0.00  0.00    +0.000 A 
ATOM     26  C   UNL     1       5.318   4.543  15.558  0.00  0.00    +0.000 A 
ATOM     27  C   UNL     1       4.360   4.511  16.577  0.00  0.00    +0.000 A 
ATOM     28  C   UNL     1       4.476   5.292  17.749  0.00  0.00    +0.000 A 
ATOM     29  C   UNL     1       5.658   6.065  17.860  0.00  0.00    +0.000 A 
BRANCH  24  31
ATOM     30  C   UNL     1       7.736   8.095  17.626  0.00  0.00    +0.000 C 
ATOM     31  O   UNL     1       7.690   6.970  16.762  0.00  0.00    +0.000 OA
ENDBRANCH  24  31
ENDBRANCH  18  28
BRANCH  23  32
ATOM     32  O   UNL     1       3.342   2.979  19.116  0.00  0.00    +0.000 OA
ATOM     33  C   UNL     1       2.468   2.047  18.490  0.00  0.00    +0.000 C 
ENDBRANCH  23  32
ENDBRANCH   1  20
TORSDOF 5
ENDMDL
MODEL 6
REMARK VINA RESULT:      -8.4      2.181      2.851
REMARK  Name = 
REMARK  7 active torsions:
REMARK  status: ('A' for Active; 'I' for Inactive)
REMARK    1  A    between atoms: C_1  and  O_2
REMARK    2  A    between atoms: O_2  and  C_3
REMARK    3  A    between atoms: C_7  and  C_8
REMARK    4  A    between atoms: C_10  and  C_11
REMARK    5  A    between atoms: N_13  and  C_14
REMARK    6  A    between atoms: C_29  and  O_30
REMARK    7  A    between atoms: O_30  and  C_31
REMARK                            x       y       z     vdW  Elec       q    Type
REMARK                         _______ _______ _______ _____ _____    ______ ____
ROOT
ATOM      1  C   UNL     1       1.688   8.248  19.821  0.00  0.00    +0.000 C 
ATOM      2  O   UNL     1       1.670   8.792  20.923  0.00  0.00    +0.000 OA
ATOM      3  N   UNL     1       1.247   8.871  18.651  0.00  0.00    +0.000 N 
ATOM      4  H   UNL     1       1.029   8.315  17.830  0.00  0.00    +0.000 HD
ENDROOT
BRANCH   3   5
ATOM      5  C   UNL     1       0.816  10.197  18.586  0.00  0.00    +0.000 C 
ATOM      6  C   UNL     1      -0.357  10.673  19.039  0.00  0.00    +0.000 C 
ATOM      7 CL   UNL     1      -0.968  10.171  20.594  0.00  0.00    +0.000 Cl
ATOM      8  C   UNL     1      -0.807  12.024  18.649  0.00  0.00    +0.000 C 
ATOM      9  O   UNL     1      -1.957  12.298  18.328  0.00  0.00    +0.000 OA
ATOM     10  C   UNL     1       0.228  13.035  18.782  0.00  0.00    +0.000 A 
ATOM     11  C   UNL     1      -0.113  14.300  19.245  0.00  0.00    +0.000 A 
ATOM     12  C   UNL     1       0.896  15.148  19.682  0.00  0.00    +0.000 A 
ATOM     13  C   UNL     1       2.230  14.725  19.623  0.00  0.00    +0.000 A 
ATOM     14  C   UNL     1       2.569  13.481  19.068  0.00  0.00    +0.000 A 
ATOM     15  C   UNL     1       1.556  12.624  18.641  0.00  0.00    +0.000 A 
ATOM     16  C   UNL     1       1.819  11.241  18.158  0.00  0.00    +0.000 C 
ATOM     17  O   UNL     1       2.854  10.941  17.579  0.00  0.00    +0.000 OA
ENDBRANCH   3   5
BRANCH   1  20
ATOM     18  C   UNL     1       3.803   5.228  18.779  0.00  0.00    +0.000 A 
ATOM     19  C   UNL     1       3.152   6.491  18.820  0.00  0.00    +0.000 A 
ATOM     20  C   UNL     1       2.162   6.831  19.772  0.00  0.00    +0.000 A 
ATOM     21  C   UNL     1       1.745   5.862  20.672  0.00  0.00    +0.000 A 
ATOM     22  C   UNL     1       2.312   4.586  20.622  0.00  0.00    +0.000 A 
ATOM     23  C   UNL     1       3.329   4.260  19.703  0.00  0.00    +0.000 A 
BRANCH  18  28
ATOM     24  C   UNL     1       6.063   4.188  15.820  0.00  0.00    +0.000 A 
ATOM     25  C   UNL     1       7.326   4.346  16.385  0.00  0.00    +0.000 A 
ATOM     26  C   UNL     1       7.456   4.876  17.661  0.00  0.00    +0.000 A 
ATOM     27  C   UNL     1       6.313   5.194  18.402  0.00  0.00    +0.000 A 
ATOM     28  C   UNL     1       5.008   5.026  17.889  0.00  0.00    +0.000 A 
ATOM     29  C   UNL     1       4.926   4.575  16.548  0.00  0.00    +0.000 A 
BRANCH  24  31
ATOM     30  C   UNL     1       6.776   4.298  13.538  0.00  0.00    +0.000 C 
ATOM     31  O   UNL     1       6.087   3.619  14.577  0.00  0.00    +0.000 OA
ENDBRANCH  24  31
ENDBRANCH  18  28
BRANCH  23  32
ATOM     32  O   UNL     1       3.955   3.037  19.744  0.00  0.00    +0.000 OA
ATOM     33  C   UNL     1       3.372   1.977  18.994  0.00  0.00    +0.000 C 
ENDBRANCH  23  32
ENDBRANCH   1  20
TORSDOF 5
ENDMDL
MODEL 7
REMARK VINA RESULT:      -8.3      1.354      1.376
REMARK  Name = 
REMARK  7 active torsions:
REMARK  status: ('A' for Active; 'I' for Inactive)
REMARK    1  A    between atoms: C_1  and  O_2
REMARK    2  A    between atoms: O_2  and  C_3
REMARK    3  A    between atoms: C_7  and  C_8
REMARK    4  A    between atoms: C_10  and  C_11
REMARK    5  A    between atoms: N_13  and  C_14
REMARK    6  A    between atoms: C_29  and  O_30
REMARK    7  A    between atoms: O_30  and  C_31
REMARK                            x       y       z     vdW  Elec       q    Type
REMARK                         _______ _______ _______ _____ _____    ______ ____
ROOT
ATOM      1  C   UNL     1       1.479   8.410  21.205  0.00  0.00    +0.000 C 
ATOM      2  O   UNL     1       2.144   8.623  22.216  0.00  0.00    +0.000 OA
ATOM      3  N   UNL     1       0.504   9.290  20.729  0.00  0.00    +0.000 N 
ATOM      4  H   UNL     1      -0.194   8.965  20.067  0.00  0.00    +0.000 HD
ENDROOT
BRANCH   3   5
ATOM      5  C   UNL     1       0.234  10.537  21.293  0.00  0.00    +0.000 C 
ATOM      6  C   UNL     1       0.514  11.733  20.747  0.00  0.00    +0.000 C 
ATOM      7 CL   UNL     1       0.193  12.024  19.056  0.00  0.00    +0.000 Cl
ATOM      8  C   UNL     1       0.443  12.957  21.569  0.00  0.00    +0.000 C 
ATOM      9  O   UNL     1       1.269  13.860  21.529  0.00  0.00    +0.000 OA
ATOM     10  C   UNL     1      -0.769  13.043  22.367  0.00  0.00    +0.000 A 
ATOM     11  C   UNL     1      -1.392  14.275  22.524  0.00  0.00    +0.000 A 
ATOM     12  C   UNL     1      -2.699  14.309  22.993  0.00  0.00    +0.000 A 
ATOM     13  C   UNL     1      -3.349  13.112  23.322  0.00  0.00    +0.000 A 
ATOM     14  C   UNL     1      -2.677  11.882  23.245  0.00  0.00    +0.000 A 
ATOM     15  C   UNL     1      -1.370  11.845  22.763  0.00  0.00    +0.000 A 
ATOM     16  C   UNL     1      -0.629  10.575  22.531  0.00  0.00    +0.000 C 
ATOM     17  O   UNL     1      -0.822   9.578  23.213  0.00  0.00    +0.000 OA
ENDBRANCH   3   5
BRANCH   1  20
ATOM     18  C   UNL     1       3.232   5.803  19.012  0.00  0.00    +0.000 A 
ATOM     19  C   UNL     1       2.806   7.019  19.612  0.00  0.00    +0.000 A 
ATOM     20  C   UNL     1       1.710   7.110  20.503  0.00  0.00    +0.000 A 
ATOM     21  C   UNL     1       0.961   5.971  20.753  0.00  0.00    +0.000 A 
ATOM     22  C   UNL     1       1.306   4.769  20.130  0.00  0.00    +0.000 A 
ATOM     23  C   UNL     1       2.423   4.668  19.278  0.00  0.00    +0.000 A 
BRANCH  18  28
ATOM     24  C   UNL     1       5.849   5.656  16.170  0.00  0.00    +0.000 A 
ATOM     25  C   UNL     1       6.990   5.297  16.882  0.00  0.00    +0.000 A 
ATOM     26  C   UNL     1       6.947   5.202  18.265  0.00  0.00    +0.000 A 
ATOM     27  C   UNL     1       5.739   5.410  18.939  0.00  0.00    +0.000 A 
ATOM     28  C   UNL     1       4.545   5.748  18.265  0.00  0.00    +0.000 A 
ATOM     29  C   UNL     1       4.659   5.929  16.864  0.00  0.00    +0.000 A 
BRANCH  24  31
ATOM     30  C   UNL     1       6.593   4.521  14.198  0.00  0.00    +0.000 C 
ATOM     31  O   UNL     1       6.031   5.670  14.814  0.00  0.00    +0.000 OA
ENDBRANCH  24  31
ENDBRANCH  18  28
BRANCH  23  32
ATOM     32  O   UNL     1       2.815   3.454  18.765  0.00  0.00    +0.000 OA
ATOM     33  C   UNL     1       1.791   2.540  18.388  0.00  0.00    +0.000 C 
ENDBRANCH  23  32
ENDBRANCH   1  20
TORSDOF 5
ENDMDL
MODEL 8
REMARK VINA RESULT:      -8.2      1.845      2.443
REMARK  Name = 
REMARK  7 active torsions:
REMARK  status: ('A' for Active; 'I' for Inactive)
REMARK    1  A    between atoms: C_1  and  O_2
REMARK    2  A    between atoms: O_2  and  C_3
REMARK    3  A    between atoms: C_7  and  C_8
REMARK    4  A    between atoms: C_10  and  C_11
REMARK    5  A    between atoms: N_13  and  C_14
REMARK    6  A    between atoms: C_29  and  O_30
REMARK    7  A    between atoms: O_30  and  C_31
REMARK                            x       y       z     vdW  Elec       q    Type
REMARK                         _______ _______ _______ _____ _____    ______ ____
ROOT
ATOM      1  C   UNL     1       1.419   8.439  20.840  0.00  0.00    +0.000 C 
ATOM      2  O   UNL     1       1.873   8.797  21.925  0.00  0.00    +0.000 OA
ATOM      3  N   UNL     1       0.537   9.216  20.085  0.00  0.00    +0.000 N 
ATOM      4  H   UNL     1      -0.015   8.787  19.348  0.00  0.00    +0.000 HD
ENDROOT
BRANCH   3   5
ATOM      5  C   UNL     1       0.139  10.507  20.431  0.00  0.00    +0.000 C 
ATOM      6  C   UNL     1      -0.774  10.834  21.363  0.00  0.00    +0.000 C 
ATOM      7 CL   UNL     1      -0.777  10.028  22.911  0.00  0.00    +0.000 Cl
ATOM      8  C   UNL     1      -1.309  12.209  21.425  0.00  0.00    +0.000 C 
ATOM      9  O   UNL     1      -2.490  12.478  21.606  0.00  0.00    +0.000 OA
ATOM     10  C   UNL     1      -0.277  13.230  21.356  0.00  0.00    +0.000 A 
ATOM     11  C   UNL     1      -0.398  14.371  22.139  0.00  0.00    +0.000 A 
ATOM     12  C   UNL     1       0.718  15.176  22.326  0.00  0.00    +0.000 A 
ATOM     13  C   UNL     1       1.927  14.839  21.705  0.00  0.00    +0.000 A 
ATOM     14  C   UNL     1       2.012  13.735  20.842  0.00  0.00    +0.000 A 
ATOM     15  C   UNL     1       0.896  12.919  20.664  0.00  0.00    +0.000 A 
ATOM     16  C   UNL     1       0.933  11.661  19.869  0.00  0.00    +0.000 C 
ATOM     17  O   UNL     1       1.675  11.524  18.906  0.00  0.00    +0.000 OA
ENDBRANCH   3   5
BRANCH   1  20
ATOM     18  C   UNL     1       3.454   5.737  19.043  0.00  0.00    +0.000 A 
ATOM     19  C   UNL     1       2.884   6.974  19.448  0.00  0.00    +0.000 A 
ATOM     20  C   UNL     1       1.806   7.078  20.359  0.00  0.00    +0.000 A 
ATOM     21  C   UNL     1       1.221   5.913  20.831  0.00  0.00    +0.000 A 
ATOM     22  C   UNL     1       1.709   4.675  20.406  0.00  0.00    +0.000 A 
ATOM     23  C   UNL     1       2.811   4.571  19.534  0.00  0.00    +0.000 A 
BRANCH  18  28
ATOM     24  C   UNL     1       5.991   5.612  16.129  0.00  0.00    +0.000 A 
ATOM     25  C   UNL     1       7.171   5.343  16.818  0.00  0.00    +0.000 A 
ATOM     26  C   UNL     1       7.173   5.304  18.205  0.00  0.00    +0.000 A 
ATOM     27  C   UNL     1       5.976   5.474  18.908  0.00  0.00    +0.000 A 
ATOM     28  C   UNL     1       4.746   5.721  18.258  0.00  0.00    +0.000 A 
ATOM     29  C   UNL     1       4.809   5.850  16.848  0.00  0.00    +0.000 A 
BRANCH  24  31
ATOM     30  C   UNL     1       6.408   4.332  14.150  0.00  0.00    +0.000 C 
ATOM     31  O   UNL     1       6.132   5.579  14.769  0.00  0.00    +0.000 OA
ENDBRANCH  24  31
ENDBRANCH  18  28
BRANCH  23  32
ATOM     32  O   UNL     1       3.349   3.347  19.217  0.00  0.00    +0.000 OA
ATOM     33  C   UNL     1       3.734   2.501  20.295  0.00  0.00    +0.000 C 
ENDBRANCH  23  32
ENDBRANCH   1  20
TORSDOF 5
ENDMDL
MODEL 9
REMARK VINA RESULT:      -8.2      2.865      9.901
REMARK  Name = 
REMARK  7 active torsions:
REMARK  status: ('A' for Active; 'I' for Inactive)
REMARK    1  A    between atoms: C_1  and  O_2
REMARK    2  A    between atoms: O_2  and  C_3
REMARK    3  A    between atoms: C_7  and  C_8
REMARK    4  A    between atoms: C_10  and  C_11
REMARK    5  A    between atoms: N_13  and  C_14
REMARK    6  A    between atoms: C_29  and  O_30
REMARK    7  A    between atoms: O_30  and  C_31
REMARK                            x       y       z     vdW  Elec       q    Type
REMARK                         _______ _______ _______ _____ _____    ______ ____
ROOT
ATOM      1  C   UNL     1       1.826   7.969  19.695  0.00  0.00    +0.000 C 
ATOM      2  O   UNL     1       2.070   7.265  20.673  0.00  0.00    +0.000 OA
ATOM      3  N   UNL     1       2.365   7.734  18.428  0.00  0.00    +0.000 N 
ATOM      4  H   UNL     1       2.359   8.471  17.729  0.00  0.00    +0.000 HD
ENDROOT
BRANCH   3   5
ATOM      5  C   UNL     1       3.168   6.638  18.110  0.00  0.00    +0.000 C 
ATOM      6  C   UNL     1       2.817   5.344  18.204  0.00  0.00    +0.000 C 
ATOM      7 CL   UNL     1       1.250   4.815  17.649  0.00  0.00    +0.000 Cl
ATOM      8  C   UNL     1       3.848   4.290  18.117  0.00  0.00    +0.000 C 
ATOM      9  O   UNL     1       3.882   3.303  18.841  0.00  0.00    +0.000 OA
ATOM     10  C   UNL     1       4.772   4.479  17.011  0.00  0.00    +0.000 A 
ATOM     11  C   UNL     1       5.211   3.372  16.296  0.00  0.00    +0.000 A 
ATOM     12  C   UNL     1       5.813   3.569  15.061  0.00  0.00    +0.000 A 
ATOM     13  C   UNL     1       5.989   4.871  14.575  0.00  0.00    +0.000 A 
ATOM     14  C   UNL     1       5.624   5.984  15.348  0.00  0.00    +0.000 A 
ATOM     15  C   UNL     1       5.008   5.788  16.582  0.00  0.00    +0.000 A 
ATOM     16  C   UNL     1       4.476   6.907  17.407  0.00  0.00    +0.000 C 
ATOM     17  O   UNL     1       4.986   8.019  17.398  0.00  0.00    +0.000 OA
ENDBRANCH   3   5
BRANCH   1  20
ATOM     18  C   UNL     1      -0.931  10.543  19.027  0.00  0.00    +0.000 A 
ATOM     19  C   UNL     1       0.064   9.540  18.881  0.00  0.00    +0.000 A 
ATOM     20  C   UNL     1       0.949   9.159  19.919  0.00  0.00    +0.000 A 
ATOM     21  C   UNL     1       0.896   9.845  21.122  0.00  0.00    +0.000 A 
ATOM     22  C   UNL     1      -0.024  10.884  21.283  0.00  0.00    +0.000 A 
ATOM     23  C   UNL     1      -0.934  11.234  20.267  0.00  0.00    +0.000 A 
BRANCH  18  28
ATOM     24  C   UNL     1      -4.208  11.489  17.206  0.00  0.00    +0.000 A 
ATOM     25  C   UNL     1      -4.081  10.750  16.033  0.00  0.00    +0.000 A 
ATOM     26  C   UNL     1      -2.916  10.039  15.782  0.00  0.00    +0.000 A 
ATOM     27  C   UNL     1      -1.895  10.017  16.737  0.00  0.00    +0.000 A 
ATOM     28  C   UNL     1      -1.984  10.725  17.957  0.00  0.00    +0.000 A 
ATOM     29  C   UNL     1      -3.148  11.515  18.127  0.00  0.00    +0.000 A 
BRANCH  24  31
ATOM     30  C   UNL     1      -6.463  11.407  18.004  0.00  0.00    +0.000 C 
ATOM     31  O   UNL     1      -5.423  12.105  17.336  0.00  0.00    +0.000 OA
ENDBRANCH  24  31
ENDBRANCH  18  28
BRANCH  23  32
ATOM     32  O   UNL     1      -1.908  12.180  20.483  0.00  0.00    +0.000 OA
ATOM     33  C   UNL     1      -2.269  12.452  21.833  0.00  0.00    +0.000 C 
ENDBRANCH  23  32
ENDBRANCH   1  20
TORSDOF 5
ENDMDL
