MODEL 1
REMARK VINA RESULT:      -8.7      0.000      0.000
REMARK  Name = 
REMARK  6 active torsions:
REMARK  status: ('A' for Active; 'I' for Inactive)
REMARK    1  A    between atoms: S_2  and  N_4
REMARK    2  A    between atoms: S_2  and  C_23
REMARK    3  A    between atoms: N_4  and  C_5
REMARK    4  A    between atoms: C_8  and  N_9
REMARK    5  A    between atoms: N_9  and  S_10
REMARK    6  A    between atoms: S_10  and  C_13
REMARK                            x       y       z     vdW  Elec       q    Type
REMARK                         _______ _______ _______ _____ _____    ______ ____
ROOT
ATOM      1  C   UNL     1       2.050   5.113  19.001  0.00  0.00    +0.000 A 
ATOM      2  C   UNL     1       2.352   6.366  18.468  0.00  0.00    +0.000 A 
ATOM      3  C   UNL     1       2.236   7.518  19.261  0.00  0.00    +0.000 A 
ATOM      4  C   UNL     1       1.831   7.401  20.593  0.00  0.00    +0.000 A 
ATOM      5  C   UNL     1       1.543   6.149  21.123  0.00  0.00    +0.000 A 
ATOM      6  C   UNL     1       1.638   5.005  20.328  0.00  0.00    +0.000 A 
ENDROOT
BRANCH   1   7
ATOM      7  N   UNL     1       2.228   3.948  18.201  0.00  0.00    +0.000 N 
ATOM      8  H   UNL     1       1.405   3.367  18.046  0.00  0.00    +0.000 HD
BRANCH   7  10
ATOM      9  O   UNL     1       3.770   2.844  19.882  0.00  0.00    +0.000 OA
ATOM     10  S   UNL     1       3.622   3.012  18.453  0.00  0.00    +0.000 S 
ATOM     11  O   UNL     1       3.607   1.885  17.548  0.00  0.00    +0.000 OA
BRANCH  10  12
ATOM     12  C   UNL     1       4.930   4.112  17.946  0.00  0.00    +0.000 A 
ATOM     13  C   UNL     1       5.682   4.768  18.934  0.00  0.00    +0.000 A 
ATOM     14  C   UNL     1       6.648   5.703  18.558  0.00  0.00    +0.000 A 
ATOM     15  C   UNL     1       6.873   5.947  17.206  0.00  0.00    +0.000 A 
ATOM     16  F   UNL     1       7.782   6.866  16.851  0.00  0.00    +0.000 F 
ATOM     17  C   UNL     1       6.156   5.257  16.232  0.00  0.00    +0.000 A 
ATOM     18  F   UNL     1       6.388   5.498  14.934  0.00  0.00    +0.000 F 
ATOM     19  C   UNL     1       5.178   4.334  16.590  0.00  0.00    +0.000 A 
ENDBRANCH  10  12
ENDBRANCH   7  10
ENDBRANCH   1   7
BRANCH   4  20
ATOM     20  N   UNL     1       1.752   8.530  21.451  0.00  0.00    +0.000 N 
ATOM     21  H   UNL     1       2.480   9.241  21.389  0.00  0.00    +0.000 HD
BRANCH  20  22
ATOM     22  S   UNL     1       0.255   9.162  21.890  0.00  0.00    +0.000 S 
ATOM     23  O   UNL     1      -0.708   8.102  21.686  0.00  0.00    +0.000 OA
ATOM     24  O   UNL     1       0.369   9.831  23.168  0.00  0.00    +0.000 OA
BRANCH  22  25
ATOM     25  C   UNL     1      -0.052  10.395  20.644  0.00  0.00    +0.000 A 
ATOM     26  C   UNL     1       0.406  11.711  20.804  0.00  0.00    +0.000 A 
ATOM     27  C   UNL     1       0.179  12.647  19.787  0.00  0.00    +0.000 A 
ATOM     28  C   UNL     1      -0.481  12.255  18.625  0.00  0.00    +0.000 A 
ATOM     29  F   UNL     1      -0.703  13.155  17.657  0.00  0.00    +0.000 F 
ATOM     30  C   UNL     1      -0.907  10.940  18.463  0.00  0.00    +0.000 A 
ATOM     31  F   UNL     1      -1.528  10.565  17.337  0.00  0.00    +0.000 F 
ATOM     32  C   UNL     1      -0.692  10.002  19.464  0.00  0.00    +0.000 A 
ENDBRANCH  22  25
ENDBRANCH  20  22
ENDBRANCH   4  20
TORSDOF 6
ENDMDL
MODEL 2
REMARK VINA RESULT:      -8.6      0.551      1.256
REMARK  Name = 
REMARK  6 active torsions:
REMARK  status: ('A' for Active; 'I' for Inactive)
REMARK    1  A    between atoms: S_2  and  N_4
REMARK    2  A    between atoms: S_2  and  C_23
REMARK    3  A    between atoms: N_4  and  C_5
REMARK    4  A    between atoms: C_8  and  N_9
REMARK    5  A    between atoms: N_9  and  S_10
REMARK    6  A    between atoms: S_10  and  C_13
REMARK                            x       y       z     vdW  Elec       q    Type
REMARK                         _______ _______ _______ _____ _____    ______ ____
ROOT
ATOM      1  C   UNL     1       2.053   5.048  19.075  0.00  0.00    +0.000 A 
ATOM      2  C   UNL     1       2.351   6.295  18.525  0.00  0.00    +0.000 A 
ATOM      3  C   UNL     1       2.242   7.456  19.306  0.00  0.00    +0.000 A 
ATOM      4  C   UNL     1       1.851   7.354  20.643  0.00  0.00    +0.000 A 
ATOM      5  C   UNL     1       1.568   6.107  21.190  0.00  0.00    +0.000 A 
ATOM      6  C   UNL     1       1.655   4.954  20.406  0.00  0.00    +0.000 A 
ENDROOT
BRANCH   1   7
ATOM      7  N   UNL     1       2.222   3.874  18.285  0.00  0.00    +0.000 N 
ATOM      8  H   UNL     1       1.422   3.247  18.217  0.00  0.00    +0.000 HD
BRANCH   7  10
ATOM      9  O   UNL     1       3.863   2.715  19.830  0.00  0.00    +0.000 OA
ATOM     10  S   UNL     1       3.683   3.021  18.428  0.00  0.00    +0.000 S 
ATOM     11  O   UNL     1       3.735   1.996  17.409  0.00  0.00    +0.000 OA
BRANCH  10  12
ATOM     12  C   UNL     1       4.902   4.259  18.031  0.00  0.00    +0.000 A 
ATOM     13  C   UNL     1       5.000   4.709  16.704  0.00  0.00    +0.000 A 
ATOM     14  C   UNL     1       6.008   5.609  16.355  0.00  0.00    +0.000 A 
ATOM     15  C   UNL     1       6.882   6.071  17.334  0.00  0.00    +0.000 A 
ATOM     16  F   UNL     1       7.865   6.914  16.988  0.00  0.00    +0.000 F 
ATOM     17  C   UNL     1       6.748   5.656  18.657  0.00  0.00    +0.000 A 
ATOM     18  F   UNL     1       7.593   6.115  19.590  0.00  0.00    +0.000 F 
ATOM     19  C   UNL     1       5.759   4.747  19.019  0.00  0.00    +0.000 A 
ENDBRANCH  10  12
ENDBRANCH   7  10
ENDBRANCH   1   7
BRANCH   4  20
ATOM     20  N   UNL     1       1.781   8.491  21.491  0.00  0.00    +0.000 N 
ATOM     21  H   UNL     1       2.515   9.196  21.421  0.00  0.00    +0.000 HD
BRANCH  20  22
ATOM     22  S   UNL     1       0.289   9.139  21.925  0.00  0.00    +0.000 S 
ATOM     23  O   UNL     1      -0.685   8.092  21.709  0.00  0.00    +0.000 OA
ATOM     24  O   UNL     1       0.404   9.799  23.207  0.00  0.00    +0.000 OA
BRANCH  22  25
ATOM     25  C   UNL     1       0.006  10.383  20.683  0.00  0.00    +0.000 A 
ATOM     26  C   UNL     1       0.522  11.679  20.830  0.00  0.00    +0.000 A 
ATOM     27  C   UNL     1       0.309  12.622  19.817  0.00  0.00    +0.000 A 
ATOM     28  C   UNL     1      -0.394  12.256  18.671  0.00  0.00    +0.000 A 
ATOM     29  F   UNL     1      -0.601  13.164  17.708  0.00  0.00    +0.000 F 
ATOM     30  C   UNL     1      -0.878  10.961  18.523  0.00  0.00    +0.000 A 
ATOM     31  F   UNL     1      -1.540  10.611  17.412  0.00  0.00    +0.000 F 
ATOM     32  C   UNL     1      -0.679  10.016  19.519  0.00  0.00    +0.000 A 
ENDBRANCH  22  25
ENDBRANCH  20  22
ENDBRANCH   4  20
TORSDOF 6
ENDMDL
MODEL 3
REMARK VINA RESULT:      -8.5      2.494      8.927
REMARK  Name = 
REMARK  6 active torsions:
REMARK  status: ('A' for Active; 'I' for Inactive)
REMARK    1  A    between atoms: S_2  and  N_4
REMARK    2  A    between atoms: S_2  and  C_23
REMARK    3  A    between atoms: N_4  and  C_5
REMARK    4  A    between atoms: C_8  and  N_9
REMARK    5  A    between atoms: N_9  and  S_10
REMARK    6  A    between atoms: S_10  and  C_13
REMARK                            x       y       z     vdW  Elec       q    Type
REMARK                         _______ _______ _______ _____ _____    ______ ____
ROOT
ATOM      1  C   UNL     1       1.257   9.410  18.829  0.00  0.00    +0.000 A 
ATOM      2  C   UNL     1       1.127   8.991  20.154  0.00  0.00    +0.000 A 
ATOM      3  C   UNL     1       1.720   7.792  20.578  0.00  0.00    +0.000 A 
ATOM      4  C   UNL     1       2.457   7.028  19.670  0.00  0.00    +0.000 A 
ATOM      5  C   UNL     1       2.595   7.456  18.354  0.00  0.00    +0.000 A 
ATOM      6  C   UNL     1       1.986   8.638  17.927  0.00  0.00    +0.000 A 
ENDROOT
BRANCH   1   7
ATOM      7  N   UNL     1       0.696  10.656  18.429  0.00  0.00    +0.000 N 
ATOM      8  H   UNL     1       1.341  11.439  18.328  0.00  0.00    +0.000 HD
BRANCH   7  10
ATOM      9  O   UNL     1      -1.072  10.180  20.181  0.00  0.00    +0.000 OA
ATOM     10  S   UNL     1      -0.771  11.135  19.138  0.00  0.00    +0.000 S 
ATOM     11  O   UNL     1      -0.733  12.558  19.392  0.00  0.00    +0.000 OA
BRANCH  10  12
ATOM     12  C   UNL     1      -1.952  10.837  17.837  0.00  0.00    +0.000 A 
ATOM     13  C   UNL     1      -1.677   9.835  16.892  0.00  0.00    +0.000 A 
ATOM     14  C   UNL     1      -2.543   9.648  15.814  0.00  0.00    +0.000 A 
ATOM     15  C   UNL     1      -3.683  10.438  15.708  0.00  0.00    +0.000 A 
ATOM     16  F   UNL     1      -4.497  10.273  14.655  0.00  0.00    +0.000 F 
ATOM     17  C   UNL     1      -3.973  11.398  16.674  0.00  0.00    +0.000 A 
ATOM     18  F   UNL     1      -5.079  12.146  16.563  0.00  0.00    +0.000 F 
ATOM     19  C   UNL     1      -3.112  11.608  17.747  0.00  0.00    +0.000 A 
ENDBRANCH  10  12
ENDBRANCH   7  10
ENDBRANCH   1   7
BRANCH   4  20
ATOM     20  N   UNL     1       3.124   5.838  20.063  0.00  0.00    +0.000 N 
ATOM     21  H   UNL     1       3.284   5.674  21.057  0.00  0.00    +0.000 HD
BRANCH  20  22
ATOM     22  S   UNL     1       2.908   4.414  19.191  0.00  0.00    +0.000 S 
ATOM     23  O   UNL     1       3.069   3.331  20.137  0.00  0.00    +0.000 OA
ATOM     24  O   UNL     1       1.717   4.523  18.377  0.00  0.00    +0.000 OA
BRANCH  22  25
ATOM     25  C   UNL     1       4.320   4.378  18.108  0.00  0.00    +0.000 A 
ATOM     26  C   UNL     1       4.175   4.084  16.744  0.00  0.00    +0.000 A 
ATOM     27  C   UNL     1       5.302   4.100  15.914  0.00  0.00    +0.000 A 
ATOM     28  C   UNL     1       6.547   4.425  16.448  0.00  0.00    +0.000 A 
ATOM     29  F   UNL     1       7.624   4.432  15.651  0.00  0.00    +0.000 F 
ATOM     30  C   UNL     1       6.676   4.742  17.796  0.00  0.00    +0.000 A 
ATOM     31  F   UNL     1       7.873   5.068  18.301  0.00  0.00    +0.000 F 
ATOM     32  C   UNL     1       5.569   4.727  18.632  0.00  0.00    +0.000 A 
ENDBRANCH  22  25
ENDBRANCH  20  22
ENDBRANCH   4  20
TORSDOF 6
ENDMDL
MODEL 4
REMARK VINA RESULT:      -8.4      2.120      2.551
REMARK  Name = 
REMARK  6 active torsions:
REMARK  status: ('A' for Active; 'I' for Inactive)
REMARK    1  A    between atoms: S_2  and  N_4
REMARK    2  A    between atoms: S_2  and  C_23
REMARK    3  A    between atoms: N_4  and  C_5
REMARK    4  A    between atoms: C_8  and  N_9
REMARK    5  A    between atoms: N_9  and  S_10
REMARK    6  A    between atoms: S_10  and  C_13
REMARK                            x       y       z     vdW  Elec       q    Type
REMARK                         _______ _______ _______ _____ _____    ______ ____
ROOT
ATOM      1  C   UNL     1       2.594   5.821  19.012  0.00  0.00    +0.000 A 
ATOM      2  C   UNL     1       2.647   6.927  18.163  0.00  0.00    +0.000 A 
ATOM      3  C   UNL     1       2.119   8.160  18.573  0.00  0.00    +0.000 A 
ATOM      4  C   UNL     1       1.554   8.279  19.845  0.00  0.00    +0.000 A 
ATOM      5  C   UNL     1       1.514   7.178  20.693  0.00  0.00    +0.000 A 
ATOM      6  C   UNL     1       2.021   5.945  20.275  0.00  0.00    +0.000 A 
ENDROOT
BRANCH   1   7
ATOM      7  N   UNL     1       3.185   4.592  18.602  0.00  0.00    +0.000 N 
ATOM      8  H   UNL     1       2.628   3.749  18.730  0.00  0.00    +0.000 HD
BRANCH   7  10
ATOM      9  O   UNL     1       5.279   5.484  19.719  0.00  0.00    +0.000 OA
ATOM     10  S   UNL     1       4.821   4.330  18.977  0.00  0.00    +0.000 S 
ATOM     11  O   UNL     1       4.982   2.984  19.479  0.00  0.00    +0.000 OA
BRANCH  10  12
ATOM     12  C   UNL     1       5.609   4.423  17.381  0.00  0.00    +0.000 A 
ATOM     13  C   UNL     1       6.975   4.745  17.320  0.00  0.00    +0.000 A 
ATOM     14  C   UNL     1       7.588   4.914  16.078  0.00  0.00    +0.000 A 
ATOM     15  C   UNL     1       6.843   4.731  14.916  0.00  0.00    +0.000 A 
ATOM     16  F   UNL     1       7.430   4.922  13.726  0.00  0.00    +0.000 F 
ATOM     17  C   UNL     1       5.501   4.366  14.985  0.00  0.00    +0.000 A 
ATOM     18  F   UNL     1       4.798   4.187  13.859  0.00  0.00    +0.000 F 
ATOM     19  C   UNL     1       4.869   4.209  16.215  0.00  0.00    +0.000 A 
ENDBRANCH  10  12
ENDBRANCH   7  10
ENDBRANCH   1   7
BRANCH   4  20
ATOM     20  N   UNL     1       1.056   9.518  20.329  0.00  0.00    +0.000 N 
ATOM     21  H   UNL     1       1.219   9.761  21.305  0.00  0.00    +0.000 HD
BRANCH  20  22
ATOM     22  S   UNL     1       1.002  10.865  19.320  0.00  0.00    +0.000 S 
ATOM     23  O   UNL     1       1.147  12.020  20.178  0.00  0.00    +0.000 OA
ATOM     24  O   UNL     1       1.882  10.659  18.191  0.00  0.00    +0.000 OA
BRANCH  22  25
ATOM     25  C   UNL     1      -0.676  10.863  18.724  0.00  0.00    +0.000 A 
ATOM     26  C   UNL     1      -1.645  11.703  19.293  0.00  0.00    +0.000 A 
ATOM     27  C   UNL     1      -2.945  11.701  18.775  0.00  0.00    +0.000 A 
ATOM     28  C   UNL     1      -3.256  10.880  17.692  0.00  0.00    +0.000 A 
ATOM     29  F   UNL     1      -4.503  10.877  17.205  0.00  0.00    +0.000 F 
ATOM     30  C   UNL     1      -2.281  10.072  17.117  0.00  0.00    +0.000 A 
ATOM     31  F   UNL     1      -2.580   9.297  16.067  0.00  0.00    +0.000 F 
ATOM     32  C   UNL     1      -0.988  10.060  17.621  0.00  0.00    +0.000 A 
ENDBRANCH  22  25
ENDBRANCH  20  22
ENDBRANCH   4  20
TORSDOF 6
ENDMDL
MODEL 5
REMARK VINA RESULT:      -8.4      2.126      2.744
REMARK  Name = 
REMARK  6 active torsions:
REMARK  status: ('A' for Active; 'I' for Inactive)
REMARK    1  A    between atoms: S_2  and  N_4
REMARK    2  A    between atoms: S_2  and  C_23
REMARK    3  A    between atoms: N_4  and  C_5
REMARK    4  A    between atoms: C_8  and  N_9
REMARK    5  A    between atoms: N_9  and  S_10
REMARK    6  A    between atoms: S_10  and  C_13
REMARK                            x       y       z     vdW  Elec       q    Type
REMARK                         _______ _______ _______ _____ _____    ______ ____
ROOT
ATOM      1  C   UNL     1       2.595   5.830  19.010  0.00  0.00    +0.000 A 
ATOM      2  C   UNL     1       2.660   6.924  18.146  0.00  0.00    +0.000 A 
ATOM      3  C   UNL     1       2.140   8.167  18.539  0.00  0.00    +0.000 A 
ATOM      4  C   UNL     1       1.572   8.307  19.807  0.00  0.00    +0.000 A 
ATOM      5  C   UNL     1       1.521   7.218  20.670  0.00  0.00    +0.000 A 
ATOM      6  C   UNL     1       2.019   5.975  20.270  0.00  0.00    +0.000 A 
ENDROOT
BRANCH   1   7
ATOM      7  N   UNL     1       3.178   4.591  18.618  0.00  0.00    +0.000 N 
ATOM      8  H   UNL     1       2.616   3.753  18.761  0.00  0.00    +0.000 HD
BRANCH   7  10
ATOM      9  O   UNL     1       5.273   5.478  19.734  0.00  0.00    +0.000 OA
ATOM     10  S   UNL     1       4.813   4.325  18.992  0.00  0.00    +0.000 S 
ATOM     11  O   UNL     1       4.971   2.978  19.495  0.00  0.00    +0.000 OA
BRANCH  10  12
ATOM     12  C   UNL     1       5.601   4.415  17.396  0.00  0.00    +0.000 A 
ATOM     13  C   UNL     1       6.965   4.740  17.334  0.00  0.00    +0.000 A 
ATOM     14  C   UNL     1       7.579   4.906  16.092  0.00  0.00    +0.000 A 
ATOM     15  C   UNL     1       6.834   4.718  14.931  0.00  0.00    +0.000 A 
ATOM     16  F   UNL     1       7.421   4.907  13.741  0.00  0.00    +0.000 F 
ATOM     17  C   UNL     1       5.493   4.351  15.001  0.00  0.00    +0.000 A 
ATOM     18  F   UNL     1       4.790   4.166  13.875  0.00  0.00    +0.000 F 
ATOM     19  C   UNL     1       4.862   4.196  16.231  0.00  0.00    +0.000 A 
ENDBRANCH  10  12
ENDBRANCH   7  10
ENDBRANCH   1   7
BRANCH   4  20
ATOM     20  N   UNL     1       1.084   9.557  20.273  0.00  0.00    +0.000 N 
ATOM     21  H   UNL     1       1.260   9.818  21.243  0.00  0.00    +0.000 HD
BRANCH  20  22
ATOM     22  S   UNL     1       1.018  10.884  19.239  0.00  0.00    +0.000 S 
ATOM     23  O   UNL     1       1.121  12.057  20.078  0.00  0.00    +0.000 OA
ATOM     24  O   UNL     1       1.924  10.677  18.130  0.00  0.00    +0.000 OA
BRANCH  22  25
ATOM     25  C   UNL     1      -0.648  10.833  18.612  0.00  0.00    +0.000 A 
ATOM     26  C   UNL     1      -1.014   9.920  17.612  0.00  0.00    +0.000 A 
ATOM     27  C   UNL     1      -2.340   9.883  17.167  0.00  0.00    +0.000 A 
ATOM     28  C   UNL     1      -3.282  10.738  17.735  0.00  0.00    +0.000 A 
ATOM     29  F   UNL     1      -4.549  10.704  17.302  0.00  0.00    +0.000 F 
ATOM     30  C   UNL     1      -2.915  11.620  18.746  0.00  0.00    +0.000 A 
ATOM     31  F   UNL     1      -3.828  12.430  19.299  0.00  0.00    +0.000 F 
ATOM     32  C   UNL     1      -1.603  11.672  19.195  0.00  0.00    +0.000 A 
ENDBRANCH  22  25
ENDBRANCH  20  22
ENDBRANCH   4  20
TORSDOF 6
ENDMDL
MODEL 6
REMARK VINA RESULT:      -8.4      1.104      1.750
REMARK  Name = 
REMARK  6 active torsions:
REMARK  status: ('A' for Active; 'I' for Inactive)
REMARK    1  A    between atoms: S_2  and  N_4
REMARK    2  A    between atoms: S_2  and  C_23
REMARK    3  A    between atoms: N_4  and  C_5
REMARK    4  A    between atoms: C_8  and  N_9
REMARK    5  A    between atoms: N_9  and  S_10
REMARK    6  A    between atoms: S_10  and  C_13
REMARK                            x       y       z     vdW  Elec       q    Type
REMARK                         _______ _______ _______ _____ _____    ______ ____
ROOT
ATOM      1  C   UNL     1       2.333   5.586  18.661  0.00  0.00    +0.000 A 
ATOM      2  C   UNL     1       2.504   6.931  18.331  0.00  0.00    +0.000 A 
ATOM      3  C   UNL     1       2.275   7.930  19.290  0.00  0.00    +0.000 A 
ATOM      4  C   UNL     1       1.891   7.568  20.583  0.00  0.00    +0.000 A 
ATOM      5  C   UNL     1       1.734   6.226  20.911  0.00  0.00    +0.000 A 
ATOM      6  C   UNL     1       1.941   5.234  19.950  0.00  0.00    +0.000 A 
ENDROOT
BRANCH   1   7
ATOM      7  N   UNL     1       2.624   4.583  17.692  0.00  0.00    +0.000 N 
ATOM      8  H   UNL     1       1.828   4.099  17.279  0.00  0.00    +0.000 HD
BRANCH   7  10
ATOM      9  O   UNL     1       4.472   3.898  19.285  0.00  0.00    +0.000 OA
ATOM     10  S   UNL     1       3.914   3.524  18.004  0.00  0.00    +0.000 S 
ATOM     11  O   UNL     1       3.495   2.170  17.718  0.00  0.00    +0.000 OA
BRANCH  10  12
ATOM     12  C   UNL     1       5.118   4.001  16.780  0.00  0.00    +0.000 A 
ATOM     13  C   UNL     1       6.203   4.801  17.176  0.00  0.00    +0.000 A 
ATOM     14  C   UNL     1       7.106   5.261  16.217  0.00  0.00    +0.000 A 
ATOM     15  C   UNL     1       6.935   4.895  14.885  0.00  0.00    +0.000 A 
ATOM     16  F   UNL     1       7.789   5.363  13.964  0.00  0.00    +0.000 F 
ATOM     17  C   UNL     1       5.884   4.063  14.508  0.00  0.00    +0.000 A 
ATOM     18  F   UNL     1       5.736   3.713  13.223  0.00  0.00    +0.000 F 
ATOM     19  C   UNL     1       4.965   3.608  15.449  0.00  0.00    +0.000 A 
ENDBRANCH  10  12
ENDBRANCH   7  10
ENDBRANCH   1   7
BRANCH   4  20
ATOM     20  N   UNL     1       1.702   8.536  21.605  0.00  0.00    +0.000 N 
ATOM     21  H   UNL     1       2.445   9.213  21.778  0.00  0.00    +0.000 HD
BRANCH  20  22
ATOM     22  S   UNL     1       0.168   9.154  21.919  0.00  0.00    +0.000 S 
ATOM     23  O   UNL     1      -0.762   8.073  21.676  0.00  0.00    +0.000 OA
ATOM     24  O   UNL     1       0.180   9.858  23.183  0.00  0.00    +0.000 OA
BRANCH  22  25
ATOM     25  C   UNL     1      -0.067  10.349  20.621  0.00  0.00    +0.000 A 
ATOM     26  C   UNL     1      -0.786  10.024  19.462  0.00  0.00    +0.000 A 
ATOM     27  C   UNL     1      -0.981  10.999  18.477  0.00  0.00    +0.000 A 
ATOM     28  C   UNL     1      -0.476  12.284  18.669  0.00  0.00    +0.000 A 
ATOM     29  F   UNL     1      -0.660  13.212  17.721  0.00  0.00    +0.000 F 
ATOM     30  C   UNL     1       0.211  12.605  19.834  0.00  0.00    +0.000 A 
ATOM     31  F   UNL     1       0.682  13.845  20.021  0.00  0.00    +0.000 F 
ATOM     32  C   UNL     1       0.417  11.647  20.818  0.00  0.00    +0.000 A 
ENDBRANCH  22  25
ENDBRANCH  20  22
ENDBRANCH   4  20
TORSDOF 6
ENDMDL
MODEL 7
REMARK VINA RESULT:      -8.3      2.010      9.065
REMARK  Name = 
REMARK  6 active torsions:
REMARK  status: ('A' for Active; 'I' for Inactive)
REMARK    1  A    between atoms: S_2  and  N_4
REMARK    2  A    between atoms: S_2  and  C_23
REMARK    3  A    between atoms: N_4  and  C_5
REMARK    4  A    between atoms: C_8  and  N_9
REMARK    5  A    between atoms: N_9  and  S_10
REMARK    6  A    between atoms: S_10  and  C_13
REMARK                            x       y       z     vdW  Elec       q    Type
REMARK                         _______ _______ _______ _____ _____    ______ ____
ROOT
ATOM      1  C   UNL     1       1.587   8.201  19.956  0.00  0.00    +0.000 A 
ATOM      2  C   UNL     1       2.166   8.187  18.687  0.00  0.00    +0.000 A 
ATOM      3  C   UNL     1       2.781   7.022  18.203  0.00  0.00    +0.000 A 
ATOM      4  C   UNL     1       2.795   5.870  18.994  0.00  0.00    +0.000 A 
ATOM      5  C   UNL     1       2.205   5.885  20.253  0.00  0.00    +0.000 A 
ATOM      6  C   UNL     1       1.612   7.051  20.743  0.00  0.00    +0.000 A 
ENDROOT
BRANCH   1   7
ATOM      7  N   UNL     1       0.918   9.374  20.410  0.00  0.00    +0.000 N 
ATOM      8  H   UNL     1       1.383  10.264  20.239  0.00  0.00    +0.000 HD
BRANCH   7  10
ATOM      9  O   UNL     1      -0.735   8.212  21.940  0.00  0.00    +0.000 OA
ATOM     10  S   UNL     1       0.181   9.331  21.939  0.00  0.00    +0.000 S 
ATOM     11  O   UNL     1       1.194   9.491  22.958  0.00  0.00    +0.000 OA
BRANCH  10  12
ATOM     12  C   UNL     1      -0.830  10.799  21.929  0.00  0.00    +0.000 A 
ATOM     13  C   UNL     1      -1.429  11.214  23.129  0.00  0.00    +0.000 A 
ATOM     14  C   UNL     1      -2.298  12.306  23.124  0.00  0.00    +0.000 A 
ATOM     15  C   UNL     1      -2.534  12.987  21.932  0.00  0.00    +0.000 A 
ATOM     16  F   UNL     1      -3.391  14.017  21.927  0.00  0.00    +0.000 F 
ATOM     17  C   UNL     1      -1.900  12.597  20.756  0.00  0.00    +0.000 A 
ATOM     18  F   UNL     1      -2.131  13.265  19.618  0.00  0.00    +0.000 F 
ATOM     19  C   UNL     1      -1.043  11.500  20.740  0.00  0.00    +0.000 A 
ENDBRANCH  10  12
ENDBRANCH   7  10
ENDBRANCH   1   7
BRANCH   4  20
ATOM     20  N   UNL     1       3.354   4.651  18.528  0.00  0.00    +0.000 N 
ATOM     21  H   UNL     1       3.005   4.258  17.654  0.00  0.00    +0.000 HD
BRANCH  20  22
ATOM     22  S   UNL     1       4.977   4.298  18.803  0.00  0.00    +0.000 S 
ATOM     23  O   UNL     1       5.483   5.356  19.649  0.00  0.00    +0.000 OA
ATOM     24  O   UNL     1       5.111   2.909  19.184  0.00  0.00    +0.000 OA
BRANCH  22  25
ATOM     25  C   UNL     1       5.720   4.508  17.199  0.00  0.00    +0.000 A 
ATOM     26  C   UNL     1       7.069   4.873  17.071  0.00  0.00    +0.000 A 
ATOM     27  C   UNL     1       7.629   4.994  15.795  0.00  0.00    +0.000 A 
ATOM     28  C   UNL     1       6.848   4.734  14.671  0.00  0.00    +0.000 A 
ATOM     29  F   UNL     1       7.388   4.858  13.451  0.00  0.00    +0.000 F 
ATOM     30  C   UNL     1       5.520   4.346  14.809  0.00  0.00    +0.000 A 
ATOM     31  F   UNL     1       4.778   4.082  13.725  0.00  0.00    +0.000 F 
ATOM     32  C   UNL     1       4.948   4.225  16.067  0.00  0.00    +0.000 A 
ENDBRANCH  22  25
ENDBRANCH  20  22
ENDBRANCH   4  20
TORSDOF 6
ENDMDL
MODEL 8
REMARK VINA RESULT:      -8.3      2.853      3.485
REMARK  Name = 
REMARK  6 active torsions:
REMARK  status: ('A' for Active; 'I' for Inactive)
REMARK    1  A    between atoms: S_2  and  N_4
REMARK    2  A    between atoms: S_2  and  C_23
REMARK    3  A    between atoms: N_4  and  C_5
REMARK    4  A    between atoms: C_8  and  N_9
REMARK    5  A    between atoms: N_9  and  S_10
REMARK    6  A    between atoms: S_10  and  C_13
REMARK                            x       y       z     vdW  Elec       q    Type
REMARK                         _______ _______ _______ _____ _____    ______ ____
ROOT
ATOM      1  C   UNL     1       2.636   7.257  19.458  0.00  0.00    +0.000 A 
ATOM      2  C   UNL     1       1.758   7.656  20.466  0.00  0.00    +0.000 A 
ATOM      3  C   UNL     1       0.875   8.726  20.252  0.00  0.00    +0.000 A 
ATOM      4  C   UNL     1       0.868   9.377  19.017  0.00  0.00    +0.000 A 
ATOM      5  C   UNL     1       1.735   8.967  18.010  0.00  0.00    +0.000 A 
ATOM      6  C   UNL     1       2.629   7.917  18.232  0.00  0.00    +0.000 A 
ENDROOT
BRANCH   1   7
ATOM      7  N   UNL     1       3.486   6.134  19.672  0.00  0.00    +0.000 N 
ATOM      8  H   UNL     1       4.475   6.328  19.822  0.00  0.00    +0.000 HD
BRANCH   7  10
ATOM      9  O   UNL     1       3.579   3.607  19.508  0.00  0.00    +0.000 OA
ATOM     10  S   UNL     1       3.254   4.761  18.699  0.00  0.00    +0.000 S 
ATOM     11  O   UNL     1       1.991   4.879  18.006  0.00  0.00    +0.000 OA
BRANCH  10  12
ATOM     12  C   UNL     1       4.562   4.907  17.496  0.00  0.00    +0.000 A 
ATOM     13  C   UNL     1       4.542   4.065  16.372  0.00  0.00    +0.000 A 
ATOM     14  C   UNL     1       5.603   4.099  15.467  0.00  0.00    +0.000 A 
ATOM     15  C   UNL     1       6.652   4.990  15.677  0.00  0.00    +0.000 A 
ATOM     16  F   UNL     1       7.683   4.998  14.820  0.00  0.00    +0.000 F 
ATOM     17  C   UNL     1       6.642   5.854  16.769  0.00  0.00    +0.000 A 
ATOM     18  F   UNL     1       7.655   6.710  16.954  0.00  0.00    +0.000 F 
ATOM     19  C   UNL     1       5.599   5.822  17.689  0.00  0.00    +0.000 A 
ENDBRANCH  10  12
ENDBRANCH   7  10
ENDBRANCH   1   7
BRANCH   4  20
ATOM     20  N   UNL     1      -0.045  10.427  18.731  0.00  0.00    +0.000 N 
ATOM     21  H   UNL     1      -1.028  10.194  18.594  0.00  0.00    +0.000 HD
BRANCH  20  22
ATOM     22  S   UNL     1       0.179  11.955  19.401  0.00  0.00    +0.000 S 
ATOM     23  O   UNL     1       1.537  11.986  19.896  0.00  0.00    +0.000 OA
ATOM     24  O   UNL     1      -0.303  12.961  18.479  0.00  0.00    +0.000 OA
BRANCH  22  25
ATOM     25  C   UNL     1      -0.897  11.943  20.819  0.00  0.00    +0.000 A 
ATOM     26  C   UNL     1      -0.496  11.345  22.023  0.00  0.00    +0.000 A 
ATOM     27  C   UNL     1      -1.354  11.385  23.129  0.00  0.00    +0.000 A 
ATOM     28  C   UNL     1      -2.583  12.033  23.026  0.00  0.00    +0.000 A 
ATOM     29  F   UNL     1      -3.403  12.063  24.085  0.00  0.00    +0.000 F 
ATOM     30  C   UNL     1      -2.959  12.648  21.836  0.00  0.00    +0.000 A 
ATOM     31  F   UNL     1      -4.135  13.282  21.746  0.00  0.00    +0.000 F 
ATOM     32  C   UNL     1      -2.122  12.613  20.729  0.00  0.00    +0.000 A 
ENDBRANCH  22  25
ENDBRANCH  20  22
ENDBRANCH   4  20
TORSDOF 6
ENDMDL
MODEL 9
REMARK VINA RESULT:      -8.3      2.877      9.228
REMARK  Name = 
REMARK  6 active torsions:
REMARK  status: ('A' for Active; 'I' for Inactive)
REMARK    1  A    between atoms: S_2  and  N_4
REMARK    2  A    between atoms: S_2  and  C_23
REMARK    3  A    between atoms: N_4  and  C_5
REMARK    4  A    between atoms: C_8  and  N_9
REMARK    5  A    between atoms: N_9  and  S_10
REMARK    6  A    between atoms: S_10  and  C_13
REMARK                            x       y       z     vdW  Elec       q    Type
REMARK                         _______ _______ _______ _____ _____    ______ ____
ROOT
ATOM      1  C   UNL     1       0.749   9.672  18.820  0.00  0.00    +0.000 A 
ATOM      2  C   UNL     1       0.561   9.119  20.086  0.00  0.00    +0.000 A 
ATOM      3  C   UNL     1       1.315   8.006  20.491  0.00  0.00    +0.000 A 
ATOM      4  C   UNL     1       2.267   7.466  19.624  0.00  0.00    +0.000 A 
ATOM      5  C   UNL     1       2.460   8.028  18.367  0.00  0.00    +0.000 A 
ATOM      6  C   UNL     1       1.694   9.122  17.957  0.00  0.00    +0.000 A 
ENDROOT
BRANCH   1   7
ATOM      7  N   UNL     1       0.016  10.835  18.446  0.00  0.00    +0.000 N 
ATOM      8  H   UNL     1      -0.162  10.966  17.451  0.00  0.00    +0.000 HD
BRANCH   7  10
ATOM      9  O   UNL     1       1.710  12.143  19.804  0.00  0.00    +0.000 OA
ATOM     10  S   UNL     1       0.397  12.299  19.216  0.00  0.00    +0.000 S 
ATOM     11  O   UNL     1       0.081  13.397  18.331  0.00  0.00    +0.000 OA
BRANCH  10  12
ATOM     12  C   UNL     1      -0.752  12.337  20.578  0.00  0.00    +0.000 A 
ATOM     13  C   UNL     1      -0.287  12.016  21.863  0.00  0.00    +0.000 A 
ATOM     14  C   UNL     1      -1.190  11.949  22.926  0.00  0.00    +0.000 A 
ATOM     15  C   UNL     1      -2.533  12.233  22.701  0.00  0.00    +0.000 A 
ATOM     16  F   UNL     1      -3.400  12.141  23.719  0.00  0.00    +0.000 F 
ATOM     17  C   UNL     1      -2.978  12.598  21.433  0.00  0.00    +0.000 A 
ATOM     18  F   UNL     1      -4.273  12.875  21.232  0.00  0.00    +0.000 F 
ATOM     19  C   UNL     1      -2.095  12.653  20.359  0.00  0.00    +0.000 A 
ENDBRANCH  10  12
ENDBRANCH   7  10
ENDBRANCH   1   7
BRANCH   4  20
ATOM     20  N   UNL     1       3.094   6.377  20.007  0.00  0.00    +0.000 N 
ATOM     21  H   UNL     1       3.413   6.324  20.974  0.00  0.00    +0.000 HD
BRANCH  20  22
ATOM     22  S   UNL     1       2.887   4.862  19.303  0.00  0.00    +0.000 S 
ATOM     23  O   UNL     1       3.028   3.896  20.369  0.00  0.00    +0.000 OA
ATOM     24  O   UNL     1       1.710   4.878  18.462  0.00  0.00    +0.000 OA
BRANCH  22  25
ATOM     25  C   UNL     1       4.316   4.698  18.254  0.00  0.00    +0.000 A 
ATOM     26  C   UNL     1       4.233   4.035  17.021  0.00  0.00    +0.000 A 
ATOM     27  C   UNL     1       5.368   3.956  16.206  0.00  0.00    +0.000 A 
ATOM     28  C   UNL     1       6.558   4.553  16.620  0.00  0.00    +0.000 A 
ATOM     29  F   UNL     1       7.643   4.469  15.839  0.00  0.00    +0.000 F 
ATOM     30  C   UNL     1       6.622   5.233  17.831  0.00  0.00    +0.000 A 
ATOM     31  F   UNL     1       7.763   5.817  18.218  0.00  0.00    +0.000 F 
ATOM     32  C   UNL     1       5.506   5.316  18.652  0.00  0.00    +0.000 A 
ENDBRANCH  22  25
ENDBRANCH  20  22
ENDBRANCH   4  20
TORSDOF 6
ENDMDL
