MODEL 1
REMARK VINA RESULT:      -7.6      0.000      0.000
REMARK  Name = 
REMARK  6 active torsions:
REMARK  status: ('A' for Active; 'I' for Inactive)
REMARK    1  A    between atoms: C_1  and  C_2
REMARK    2  A    between atoms: C_2  and  C_3
REMARK    3  A    between atoms: C_3  and  N_4
REMARK    4  A    between atoms: C_8  and  C_9
REMARK    5  A    between atoms: N_11  and  C_12
REMARK    6  A    between atoms: C_12  and  C_13
REMARK                            x       y       z     vdW  Elec       q    Type
REMARK                         _______ _______ _______ _____ _____    ______ ____
ROOT
ATOM      1  C   UNL     1       7.234   5.057  15.722  0.00  0.00    +0.000 A 
ATOM      2  C   UNL     1       6.357   5.851  16.431  0.00  0.00    +0.000 A 
ATOM      3  N   UNL     1       6.477   5.403  17.714  0.00  0.00    +0.000 N 
ATOM      4  N   UNL     1       7.377   4.407  17.811  0.00  0.00    +0.000 NA
ATOM      5  N   UNL     1       7.841   4.182  16.588  0.00  0.00    +0.000 NA
ENDROOT
BRANCH   1  10
ATOM      6  N   UNL     1       6.792   4.492  13.259  0.00  0.00    +0.000 N 
ATOM      7  C   UNL     1       7.343   4.814  12.085  0.00  0.00    +0.000 A 
ATOM      8  C   UNL     1       8.362   5.695  12.377  0.00  0.00    +0.000 A 
ATOM      9  N   UNL     1       8.432   5.894  13.730  0.00  0.00    +0.000 NA
ATOM     10  C   UNL     1       7.483   5.153  14.263  0.00  0.00    +0.000 A 
BRANCH   6  11
ATOM     11  C   UNL     1       5.639   3.625  13.420  0.00  0.00    +0.000 C 
BRANCH  11  13
ATOM     12  C   UNL     1       4.122   3.312  11.432  0.00  0.00    +0.000 C 
ATOM     13  C   UNL     1       5.356   2.810  12.162  0.00  0.00    +0.000 C 
ENDBRANCH  11  13
ENDBRANCH   6  11
ENDBRANCH   1  10
BRANCH   3  14
ATOM     14  C   UNL     1       5.776   5.877  18.891  0.00  0.00    +0.000 C 
BRANCH  14  15
ATOM     15  C   UNL     1       4.592   5.026  19.158  0.00  0.00    +0.000 A 
ATOM     16  C   UNL     1       3.394   5.374  19.742  0.00  0.00    +0.000 A 
ATOM     17  C   UNL     1       2.594   4.212  19.790  0.00  0.00    +0.000 A 
ATOM     18  C   UNL     1       1.326   3.913  20.326  0.00  0.00    +0.000 A 
ATOM     19  C   UNL     1       0.562   2.994  19.634  0.00  0.00    +0.000 A 
ATOM     20  C   UNL     1       1.202   2.028  18.876  0.00  0.00    +0.000 A 
ATOM     21  C   UNL     1       2.606   2.035  18.725  0.00  0.00    +0.000 A 
ATOM     22  C   UNL     1       3.245   3.218  19.080  0.00  0.00    +0.000 A 
ATOM     23  N   UNL     1       4.536   3.676  18.872  0.00  0.00    +0.000 N 
ATOM     24  H   UNL     1       5.281   3.124  18.465  0.00  0.00    +0.000 HD
ENDBRANCH  14  15
ENDBRANCH   3  14
TORSDOF 5
ENDMDL
MODEL 2
REMARK VINA RESULT:      -7.3      0.887      1.221
REMARK  Name = 
REMARK  6 active torsions:
REMARK  status: ('A' for Active; 'I' for Inactive)
REMARK    1  A    between atoms: C_1  and  C_2
REMARK    2  A    between atoms: C_2  and  C_3
REMARK    3  A    between atoms: C_3  and  N_4
REMARK    4  A    between atoms: C_8  and  C_9
REMARK    5  A    between atoms: N_11  and  C_12
REMARK    6  A    between atoms: C_12  and  C_13
REMARK                            x       y       z     vdW  Elec       q    Type
REMARK                         _______ _______ _______ _____ _____    ______ ____
ROOT
ATOM      1  C   UNL     1       6.930   5.144  15.513  0.00  0.00    +0.000 A 
ATOM      2  C   UNL     1       6.080   6.065  16.090  0.00  0.00    +0.000 A 
ATOM      3  N   UNL     1       6.055   5.704  17.405  0.00  0.00    +0.000 N 
ATOM      4  N   UNL     1       6.845   4.642  17.645  0.00  0.00    +0.000 NA
ATOM      5  N   UNL     1       7.380   4.284  16.484  0.00  0.00    +0.000 NA
ENDROOT
BRANCH   1  10
ATOM      6  N   UNL     1       6.679   4.374  13.079  0.00  0.00    +0.000 N 
ATOM      7  C   UNL     1       7.333   4.583  11.932  0.00  0.00    +0.000 A 
ATOM      8  C   UNL     1       8.346   5.468  12.233  0.00  0.00    +0.000 A 
ATOM      9  N   UNL     1       8.309   5.783  13.565  0.00  0.00    +0.000 NA
ATOM     10  C   UNL     1       7.301   5.108  14.077  0.00  0.00    +0.000 A 
BRANCH   6  11
ATOM     11  C   UNL     1       5.496   3.544  13.215  0.00  0.00    +0.000 C 
BRANCH  11  13
ATOM     12  C   UNL     1       3.965   3.256  11.235  0.00  0.00    +0.000 C 
ATOM     13  C   UNL     1       5.206   2.747  11.948  0.00  0.00    +0.000 C 
ENDBRANCH  11  13
ENDBRANCH   6  11
ENDBRANCH   1  10
BRANCH   3  14
ATOM     14  C   UNL     1       5.314   6.326  18.484  0.00  0.00    +0.000 C 
BRANCH  14  15
ATOM     15  C   UNL     1       4.108   5.524  18.804  0.00  0.00    +0.000 A 
ATOM     16  C   UNL     1       3.334   4.757  17.963  0.00  0.00    +0.000 A 
ATOM     17  C   UNL     1       2.290   4.204  18.735  0.00  0.00    +0.000 A 
ATOM     18  C   UNL     1       1.162   3.414  18.440  0.00  0.00    +0.000 A 
ATOM     19  C   UNL     1       0.781   2.496  19.400  0.00  0.00    +0.000 A 
ATOM     20  C   UNL     1       1.077   2.755  20.728  0.00  0.00    +0.000 A 
ATOM     21  C   UNL     1       1.842   3.883  21.095  0.00  0.00    +0.000 A 
ATOM     22  C   UNL     1       2.543   4.499  20.063  0.00  0.00    +0.000 A 
ATOM     23  N   UNL     1       3.541   5.459  20.062  0.00  0.00    +0.000 N 
ATOM     24  H   UNL     1       3.870   5.946  20.887  0.00  0.00    +0.000 HD
ENDBRANCH  14  15
ENDBRANCH   3  14
TORSDOF 5
ENDMDL
MODEL 3
REMARK VINA RESULT:      -7.1      5.754      7.991
REMARK  Name = 
REMARK  6 active torsions:
REMARK  status: ('A' for Active; 'I' for Inactive)
REMARK    1  A    between atoms: C_1  and  C_2
REMARK    2  A    between atoms: C_2  and  C_3
REMARK    3  A    between atoms: C_3  and  N_4
REMARK    4  A    between atoms: C_8  and  C_9
REMARK    5  A    between atoms: N_11  and  C_12
REMARK    6  A    between atoms: C_12  and  C_13
REMARK                            x       y       z     vdW  Elec       q    Type
REMARK                         _______ _______ _______ _____ _____    ______ ____
ROOT
ATOM      1  C   UNL     1       0.690   9.651  19.052  0.00  0.00    +0.000 A 
ATOM      2  C   UNL     1       1.495   9.357  17.972  0.00  0.00    +0.000 A 
ATOM      3  N   UNL     1       2.307   8.363  18.434  0.00  0.00    +0.000 N 
ATOM      4  N   UNL     1       2.025   8.041  19.710  0.00  0.00    +0.000 NA
ATOM      5  N   UNL     1       1.037   8.836  20.101  0.00  0.00    +0.000 NA
ENDROOT
BRANCH   1  10
ATOM      6  N   UNL     1      -1.453  10.764  18.184  0.00  0.00    +0.000 N 
ATOM      7  C   UNL     1      -2.173  11.843  18.504  0.00  0.00    +0.000 A 
ATOM      8  C   UNL     1      -1.549  12.401  19.599  0.00  0.00    +0.000 A 
ATOM      9  N   UNL     1      -0.444  11.662  19.932  0.00  0.00    +0.000 NA
ATOM     10  C   UNL     1      -0.384  10.675  19.063  0.00  0.00    +0.000 A 
BRANCH   6  11
ATOM     11  C   UNL     1      -1.783   9.838  17.116  0.00  0.00    +0.000 C 
BRANCH  11  13
ATOM     12  C   UNL     1      -2.967  10.206  14.923  0.00  0.00    +0.000 C 
ATOM     13  C   UNL     1      -3.100  10.194  16.436  0.00  0.00    +0.000 C 
ENDBRANCH  11  13
ENDBRANCH   6  11
ENDBRANCH   1  10
BRANCH   3  14
ATOM     14  C   UNL     1       3.363   7.673  17.719  0.00  0.00    +0.000 C 
BRANCH  14  15
ATOM     15  C   UNL     1       3.155   6.206  17.793  0.00  0.00    +0.000 A 
ATOM     16  C   UNL     1       4.085   5.197  17.687  0.00  0.00    +0.000 A 
ATOM     17  C   UNL     1       3.395   3.971  17.806  0.00  0.00    +0.000 A 
ATOM     18  C   UNL     1       3.772   2.618  17.708  0.00  0.00    +0.000 A 
ATOM     19  C   UNL     1       3.106   1.729  18.530  0.00  0.00    +0.000 A 
ATOM     20  C   UNL     1       1.814   2.027  18.930  0.00  0.00    +0.000 A 
ATOM     21  C   UNL     1       1.216   3.260  18.594  0.00  0.00    +0.000 A 
ATOM     22  C   UNL     1       2.086   4.253  18.155  0.00  0.00    +0.000 A 
ATOM     23  N   UNL     1       1.917   5.613  17.953  0.00  0.00    +0.000 N 
ATOM     24  H   UNL     1       1.032   6.099  18.028  0.00  0.00    +0.000 HD
ENDBRANCH  14  15
ENDBRANCH   3  14
TORSDOF 5
ENDMDL
MODEL 4
REMARK VINA RESULT:      -7.1      0.746      1.016
REMARK  Name = 
REMARK  6 active torsions:
REMARK  status: ('A' for Active; 'I' for Inactive)
REMARK    1  A    between atoms: C_1  and  C_2
REMARK    2  A    between atoms: C_2  and  C_3
REMARK    3  A    between atoms: C_3  and  N_4
REMARK    4  A    between atoms: C_8  and  C_9
REMARK    5  A    between atoms: N_11  and  C_12
REMARK    6  A    between atoms: C_12  and  C_13
REMARK                            x       y       z     vdW  Elec       q    Type
REMARK                         _______ _______ _______ _____ _____    ______ ____
ROOT
ATOM      1  C   UNL     1       6.705   5.445  15.492  0.00  0.00    +0.000 A 
ATOM      2  C   UNL     1       6.959   4.627  16.572  0.00  0.00    +0.000 A 
ATOM      3  N   UNL     1       6.271   5.214  17.593  0.00  0.00    +0.000 N 
ATOM      4  N   UNL     1       5.616   6.316  17.184  0.00  0.00    +0.000 NA
ATOM      5  N   UNL     1       5.885   6.471  15.894  0.00  0.00    +0.000 NA
ENDROOT
BRANCH   1  10
ATOM      6  N   UNL     1       6.681   4.415  13.142  0.00  0.00    +0.000 N 
ATOM      7  C   UNL     1       7.464   4.469  12.060  0.00  0.00    +0.000 A 
ATOM      8  C   UNL     1       8.480   5.346  12.376  0.00  0.00    +0.000 A 
ATOM      9  N   UNL     1       8.315   5.810  13.654  0.00  0.00    +0.000 NA
ATOM     10  C   UNL     1       7.227   5.234  14.119  0.00  0.00    +0.000 A 
BRANCH   6  11
ATOM     11  C   UNL     1       5.452   3.649  13.234  0.00  0.00    +0.000 C 
BRANCH  11  13
ATOM     12  C   UNL     1       3.966   3.288  11.230  0.00  0.00    +0.000 C 
ATOM     13  C   UNL     1       5.200   2.817  11.981  0.00  0.00    +0.000 C 
ENDBRANCH  11  13
ENDBRANCH   6  11
ENDBRANCH   1  10
BRANCH   3  14
ATOM     14  C   UNL     1       6.186   4.780  18.974  0.00  0.00    +0.000 C 
BRANCH  14  15
ATOM     15  C   UNL     1       4.834   4.243  19.259  0.00  0.00    +0.000 A 
ATOM     16  C   UNL     1       3.783   4.852  19.907  0.00  0.00    +0.000 A 
ATOM     17  C   UNL     1       2.716   3.928  19.944  0.00  0.00    +0.000 A 
ATOM     18  C   UNL     1       1.432   3.932  20.522  0.00  0.00    +0.000 A 
ATOM     19  C   UNL     1       0.438   3.270  19.828  0.00  0.00    +0.000 A 
ATOM     20  C   UNL     1       0.788   2.213  19.005  0.00  0.00    +0.000 A 
ATOM     21  C   UNL     1       2.141   1.874  18.794  0.00  0.00    +0.000 A 
ATOM     22  C   UNL     1       3.071   2.839  19.167  0.00  0.00    +0.000 A 
ATOM     23  N   UNL     1       4.428   2.966  18.921  0.00  0.00    +0.000 N 
ATOM     24  H   UNL     1       4.996   2.266  18.460  0.00  0.00    +0.000 HD
ENDBRANCH  14  15
ENDBRANCH   3  14
TORSDOF 5
ENDMDL
MODEL 5
REMARK VINA RESULT:      -7.1      5.748      7.442
REMARK  Name = 
REMARK  6 active torsions:
REMARK  status: ('A' for Active; 'I' for Inactive)
REMARK    1  A    between atoms: C_1  and  C_2
REMARK    2  A    between atoms: C_2  and  C_3
REMARK    3  A    between atoms: C_3  and  N_4
REMARK    4  A    between atoms: C_8  and  C_9
REMARK    5  A    between atoms: N_11  and  C_12
REMARK    6  A    between atoms: C_12  and  C_13
REMARK                            x       y       z     vdW  Elec       q    Type
REMARK                         _______ _______ _______ _____ _____    ______ ____
ROOT
ATOM      1  C   UNL     1       2.817   6.965  18.474  0.00  0.00    +0.000 A 
ATOM      2  C   UNL     1       2.768   8.177  17.818  0.00  0.00    +0.000 A 
ATOM      3  N   UNL     1       2.046   8.972  18.658  0.00  0.00    +0.000 N 
ATOM      4  N   UNL     1       1.679   8.316  19.773  0.00  0.00    +0.000 NA
ATOM      5  N   UNL     1       2.141   7.076  19.664  0.00  0.00    +0.000 NA
ENDROOT
BRANCH   1  10
ATOM      6  N   UNL     1       2.918   4.528  17.679  0.00  0.00    +0.000 N 
ATOM      7  C   UNL     1       3.878   3.682  17.292  0.00  0.00    +0.000 A 
ATOM      8  C   UNL     1       5.052   4.403  17.329  0.00  0.00    +0.000 A 
ATOM      9  N   UNL     1       4.801   5.681  17.752  0.00  0.00    +0.000 NA
ATOM     10  C   UNL     1       3.504   5.749  17.973  0.00  0.00    +0.000 A 
BRANCH   6  11
ATOM     11  C   UNL     1       1.505   4.204  17.735  0.00  0.00    +0.000 C 
BRANCH  11  13
ATOM     12  C   UNL     1       0.974   3.648  20.135  0.00  0.00    +0.000 C 
ATOM     13  C   UNL     1       1.210   3.095  18.740  0.00  0.00    +0.000 C 
ENDBRANCH  11  13
ENDBRANCH   6  11
ENDBRANCH   1  10
BRANCH   3  14
ATOM     14  C   UNL     1       1.677  10.362  18.469  0.00  0.00    +0.000 C 
BRANCH  14  15
ATOM     15  C   UNL     1       0.213  10.478  18.265  0.00  0.00    +0.000 A 
ATOM     16  C   UNL     1      -0.670  11.367  18.837  0.00  0.00    +0.000 A 
ATOM     17  C   UNL     1      -1.956  11.066  18.340  0.00  0.00    +0.000 A 
ATOM     18  C   UNL     1      -3.249  11.557  18.599  0.00  0.00    +0.000 A 
ATOM     19  C   UNL     1      -4.125  11.592  17.530  0.00  0.00    +0.000 A 
ATOM     20  C   UNL     1      -3.959  10.681  16.501  0.00  0.00    +0.000 A 
ATOM     21  C   UNL     1      -2.860   9.796  16.484  0.00  0.00    +0.000 A 
ATOM     22  C   UNL     1      -1.814  10.115  17.344  0.00  0.00    +0.000 A 
ATOM     23  N   UNL     1      -0.518   9.637  17.449  0.00  0.00    +0.000 N 
ATOM     24  H   UNL     1      -0.149   8.859  16.916  0.00  0.00    +0.000 HD
ENDBRANCH  14  15
ENDBRANCH   3  14
TORSDOF 5
ENDMDL
MODEL 6
REMARK VINA RESULT:      -7.0      1.605      7.106
REMARK  Name = 
REMARK  6 active torsions:
REMARK  status: ('A' for Active; 'I' for Inactive)
REMARK    1  A    between atoms: C_1  and  C_2
REMARK    2  A    between atoms: C_2  and  C_3
REMARK    3  A    between atoms: C_3  and  N_4
REMARK    4  A    between atoms: C_8  and  C_9
REMARK    5  A    between atoms: N_11  and  C_12
REMARK    6  A    between atoms: C_12  and  C_13
REMARK                            x       y       z     vdW  Elec       q    Type
REMARK                         _______ _______ _______ _____ _____    ______ ____
ROOT
ATOM      1  C   UNL     1       3.450   5.270  19.150  0.00  0.00    +0.000 A 
ATOM      2  C   UNL     1       4.767   5.079  18.788  0.00  0.00    +0.000 A 
ATOM      3  N   UNL     1       5.051   6.163  18.011  0.00  0.00    +0.000 N 
ATOM      4  N   UNL     1       3.994   6.989  17.902  0.00  0.00    +0.000 NA
ATOM      5  N   UNL     1       3.001   6.442  18.592  0.00  0.00    +0.000 NA
ENDROOT
BRANCH   1  10
ATOM      6  N   UNL     1       1.746   3.404  19.594  0.00  0.00    +0.000 N 
ATOM      7  C   UNL     1       1.223   2.817  20.675  0.00  0.00    +0.000 A 
ATOM      8  C   UNL     1       1.842   3.404  21.758  0.00  0.00    +0.000 A 
ATOM      9  N   UNL     1       2.731   4.353  21.328  0.00  0.00    +0.000 NA
ATOM     10  C   UNL     1       2.661   4.357  20.013  0.00  0.00    +0.000 A 
BRANCH   6  11
ATOM     11  C   UNL     1       1.420   3.052  18.224  0.00  0.00    +0.000 C 
BRANCH  11  13
ATOM     12  C   UNL     1       3.542   1.705  18.410  0.00  0.00    +0.000 C 
ATOM     13  C   UNL     1       2.176   1.813  17.756  0.00  0.00    +0.000 C 
ENDBRANCH  11  13
ENDBRANCH   6  11
ENDBRANCH   1  10
BRANCH   3  14
ATOM     14  C   UNL     1       6.301   6.481  17.349  0.00  0.00    +0.000 C 
BRANCH  14  15
ATOM     15  C   UNL     1       6.421   5.713  16.087  0.00  0.00    +0.000 A 
ATOM     16  C   UNL     1       5.510   4.858  15.508  0.00  0.00    +0.000 A 
ATOM     17  C   UNL     1       6.093   4.358  14.323  0.00  0.00    +0.000 A 
ATOM     18  C   UNL     1       5.700   3.412  13.358  0.00  0.00    +0.000 A 
ATOM     19  C   UNL     1       6.087   3.658  12.055  0.00  0.00    +0.000 A 
ATOM     20  C   UNL     1       7.239   4.392  11.827  0.00  0.00    +0.000 A 
ATOM     21  C   UNL     1       7.955   4.970  12.897  0.00  0.00    +0.000 A 
ATOM     22  C   UNL     1       7.274   5.047  14.108  0.00  0.00    +0.000 A 
ATOM     23  N   UNL     1       7.546   5.724  15.285  0.00  0.00    +0.000 N 
ATOM     24  H   UNL     1       8.400   6.237  15.468  0.00  0.00    +0.000 HD
ENDBRANCH  14  15
ENDBRANCH   3  14
TORSDOF 5
ENDMDL
MODEL 7
REMARK VINA RESULT:      -7.0      6.001      8.021
REMARK  Name = 
REMARK  6 active torsions:
REMARK  status: ('A' for Active; 'I' for Inactive)
REMARK    1  A    between atoms: C_1  and  C_2
REMARK    2  A    between atoms: C_2  and  C_3
REMARK    3  A    between atoms: C_3  and  N_4
REMARK    4  A    between atoms: C_8  and  C_9
REMARK    5  A    between atoms: N_11  and  C_12
REMARK    6  A    between atoms: C_12  and  C_13
REMARK                            x       y       z     vdW  Elec       q    Type
REMARK                         _______ _______ _______ _____ _____    ______ ____
ROOT
ATOM      1  C   UNL     1       2.732   7.515  18.295  0.00  0.00    +0.000 A 
ATOM      2  C   UNL     1       1.946   8.075  19.281  0.00  0.00    +0.000 A 
ATOM      3  N   UNL     1       1.592   9.287  18.764  0.00  0.00    +0.000 N 
ATOM      4  N   UNL     1       2.103   9.472  17.533  0.00  0.00    +0.000 NA
ATOM      5  N   UNL     1       2.814   8.390  17.241  0.00  0.00    +0.000 NA
ENDROOT
BRANCH   1  10
ATOM      6  N   UNL     1       3.116   5.190  19.310  0.00  0.00    +0.000 N 
ATOM      7  C   UNL     1       3.916   4.149  19.054  0.00  0.00    +0.000 A 
ATOM      8  C   UNL     1       4.641   4.499  17.935  0.00  0.00    +0.000 A 
ATOM      9  N   UNL     1       4.286   5.756  17.524  0.00  0.00    +0.000 NA
ATOM     10  C   UNL     1       3.367   6.176  18.368  0.00  0.00    +0.000 A 
BRANCH   6  11
ATOM     11  C   UNL     1       2.133   5.233  20.377  0.00  0.00    +0.000 C 
BRANCH  11  13
ATOM     12  C   UNL     1       1.282   2.987  21.139  0.00  0.00    +0.000 C 
ATOM     13  C   UNL     1       2.308   4.084  21.364  0.00  0.00    +0.000 C 
ENDBRANCH  11  13
ENDBRANCH   6  11
ENDBRANCH   1  10
BRANCH   3  14
ATOM     14  C   UNL     1       0.768  10.309  19.378  0.00  0.00    +0.000 C 
BRANCH  14  15
ATOM     15  C   UNL     1      -0.533  10.407  18.674  0.00  0.00    +0.000 A 
ATOM     16  C   UNL     1      -1.686  11.045  19.076  0.00  0.00    +0.000 A 
ATOM     17  C   UNL     1      -2.656  10.839  18.072  0.00  0.00    +0.000 A 
ATOM     18  C   UNL     1      -4.018  11.169  17.939  0.00  0.00    +0.000 A 
ATOM     19  C   UNL     1      -4.461  11.471  16.666  0.00  0.00    +0.000 A 
ATOM     20  C   UNL     1      -3.810  10.911  15.580  0.00  0.00    +0.000 A 
ATOM     21  C   UNL     1      -2.651  10.125  15.756  0.00  0.00    +0.000 A 
ATOM     22  C   UNL     1      -2.031  10.230  16.997  0.00  0.00    +0.000 A 
ATOM     23  N   UNL     1      -0.796   9.807  17.458  0.00  0.00    +0.000 N 
ATOM     24  H   UNL     1      -0.149   9.238  16.925  0.00  0.00    +0.000 HD
ENDBRANCH  14  15
ENDBRANCH   3  14
TORSDOF 5
ENDMDL
MODEL 8
REMARK VINA RESULT:      -7.0      5.931      7.703
REMARK  Name = 
REMARK  6 active torsions:
REMARK  status: ('A' for Active; 'I' for Inactive)
REMARK    1  A    between atoms: C_1  and  C_2
REMARK    2  A    between atoms: C_2  and  C_3
REMARK    3  A    between atoms: C_3  and  N_4
REMARK    4  A    between atoms: C_8  and  C_9
REMARK    5  A    between atoms: N_11  and  C_12
REMARK    6  A    between atoms: C_12  and  C_13
REMARK                            x       y       z     vdW  Elec       q    Type
REMARK                         _______ _______ _______ _____ _____    ______ ____
ROOT
ATOM      1  C   UNL     1       2.574   7.304  18.753  0.00  0.00    +0.000 A 
ATOM      2  C   UNL     1       1.881   8.150  19.593  0.00  0.00    +0.000 A 
ATOM      3  N   UNL     1       1.656   9.256  18.827  0.00  0.00    +0.000 N 
ATOM      4  N   UNL     1       2.157   9.113  17.586  0.00  0.00    +0.000 NA
ATOM      5  N   UNL     1       2.733   7.918  17.535  0.00  0.00    +0.000 NA
ENDROOT
BRANCH   1  10
ATOM      6  N   UNL     1       4.205   5.327  18.657  0.00  0.00    +0.000 N 
ATOM      7  C   UNL     1       4.261   4.100  19.184  0.00  0.00    +0.000 A 
ATOM      8  C   UNL     1       3.145   3.984  19.985  0.00  0.00    +0.000 A 
ATOM      9  N   UNL     1       2.410   5.138  19.930  0.00  0.00    +0.000 NA
ATOM     10  C   UNL     1       3.053   5.947  19.114  0.00  0.00    +0.000 A 
BRANCH   6  11
ATOM     11  C   UNL     1       5.217   5.898  17.788  0.00  0.00    +0.000 C 
BRANCH  11  13
ATOM     12  C   UNL     1       6.602   4.681  16.070  0.00  0.00    +0.000 C 
ATOM     13  C   UNL     1       5.231   5.238  16.413  0.00  0.00    +0.000 C 
ENDBRANCH  11  13
ENDBRANCH   6  11
ENDBRANCH   1  10
BRANCH   3  14
ATOM     14  C   UNL     1       0.969  10.475  19.205  0.00  0.00    +0.000 C 
BRANCH  14  15
ATOM     15  C   UNL     1      -0.378  10.516  18.585  0.00  0.00    +0.000 A 
ATOM     16  C   UNL     1      -1.507  11.174  19.019  0.00  0.00    +0.000 A 
ATOM     17  C   UNL     1      -2.540  10.892  18.099  0.00  0.00    +0.000 A 
ATOM     18  C   UNL     1      -3.912  11.203  18.037  0.00  0.00    +0.000 A 
ATOM     19  C   UNL     1      -4.443  11.411  16.778  0.00  0.00    +0.000 A 
ATOM     20  C   UNL     1      -3.860  10.778  15.693  0.00  0.00    +0.000 A 
ATOM     21  C   UNL     1      -2.683  10.014  15.845  0.00  0.00    +0.000 A 
ATOM     22  C   UNL     1      -1.983  10.211  17.030  0.00  0.00    +0.000 A 
ATOM     23  N   UNL     1      -0.715   9.829  17.435  0.00  0.00    +0.000 N 
ATOM     24  H   UNL     1      -0.100   9.227  16.902  0.00  0.00    +0.000 HD
ENDBRANCH  14  15
ENDBRANCH   3  14
TORSDOF 5
ENDMDL
MODEL 9
REMARK VINA RESULT:      -7.0      6.087      8.080
REMARK  Name = 
REMARK  6 active torsions:
REMARK  status: ('A' for Active; 'I' for Inactive)
REMARK    1  A    between atoms: C_1  and  C_2
REMARK    2  A    between atoms: C_2  and  C_3
REMARK    3  A    between atoms: C_3  and  N_4
REMARK    4  A    between atoms: C_8  and  C_9
REMARK    5  A    between atoms: N_11  and  C_12
REMARK    6  A    between atoms: C_12  and  C_13
REMARK                            x       y       z     vdW  Elec       q    Type
REMARK                         _______ _______ _______ _____ _____    ______ ____
ROOT
ATOM      1  C   UNL     1       2.321   7.436  19.041  0.00  0.00    +0.000 A 
ATOM      2  C   UNL     1       2.066   8.606  18.355  0.00  0.00    +0.000 A 
ATOM      3  N   UNL     1       1.435   9.391  19.276  0.00  0.00    +0.000 N 
ATOM      4  N   UNL     1       1.315   8.768  20.462  0.00  0.00    +0.000 NA
ATOM      5  N   UNL     1       1.849   7.561  20.324  0.00  0.00    +0.000 NA
ENDROOT
BRANCH   1  10
ATOM      6  N   UNL     1       2.718   4.919  18.743  0.00  0.00    +0.000 N 
ATOM      7  C   UNL     1       3.584   4.155  18.070  0.00  0.00    +0.000 A 
ATOM      8  C   UNL     1       4.390   5.028  17.371  0.00  0.00    +0.000 A 
ATOM      9  N   UNL     1       4.017   6.319  17.634  0.00  0.00    +0.000 NA
ATOM     10  C   UNL     1       3.007   6.248  18.476  0.00  0.00    +0.000 A 
BRANCH   6  11
ATOM     11  C   UNL     1       1.642   4.412  19.575  0.00  0.00    +0.000 C 
BRANCH  11  13
ATOM     12  C   UNL     1       1.442   2.745  21.454  0.00  0.00    +0.000 C 
ATOM     13  C   UNL     1       2.132   4.005  20.960  0.00  0.00    +0.000 C 
ENDBRANCH  11  13
ENDBRANCH   6  11
ENDBRANCH   1  10
BRANCH   3  14
ATOM     14  C   UNL     1       0.930  10.738  19.099  0.00  0.00    +0.000 C 
BRANCH  14  15
ATOM     15  C   UNL     1      -0.430  10.701  18.510  0.00  0.00    +0.000 A 
ATOM     16  C   UNL     1      -1.581  11.311  18.958  0.00  0.00    +0.000 A 
ATOM     17  C   UNL     1      -2.619  10.962  18.068  0.00  0.00    +0.000 A 
ATOM     18  C   UNL     1      -4.005  11.205  18.031  0.00  0.00    +0.000 A 
ATOM     19  C   UNL     1      -4.573  11.363  16.782  0.00  0.00    +0.000 A 
ATOM     20  C   UNL     1      -3.984  10.739  15.695  0.00  0.00    +0.000 A 
ATOM     21  C   UNL     1      -2.768  10.036  15.833  0.00  0.00    +0.000 A 
ATOM     22  C   UNL     1      -2.052  10.289  16.998  0.00  0.00    +0.000 A 
ATOM     23  N   UNL     1      -0.759   9.977  17.381  0.00  0.00    +0.000 N 
ATOM     24  H   UNL     1      -0.126   9.396  16.844  0.00  0.00    +0.000 HD
ENDBRANCH  14  15
ENDBRANCH   3  14
TORSDOF 5
ENDMDL
