MODEL 1
REMARK VINA RESULT:      -7.3      0.000      0.000
REMARK  Name = 
REMARK  6 active torsions:
REMARK  status: ('A' for Active; 'I' for Inactive)
REMARK    1  A    between atoms: C_2  and  C_3
REMARK    2  A    between atoms: C_6  and  N_7
REMARK    3  A    between atoms: N_10  and  C_11
REMARK    4  A    between atoms: C_11  and  C_12
REMARK    5  A    between atoms: C_12  and  C_13
REMARK    6  A    between atoms: C_13  and  C_15
REMARK                            x       y       z     vdW  Elec       q    Type
REMARK                         _______ _______ _______ _____ _____    ______ ____
ROOT
ATOM      1  N   UNL     1      -0.511  11.265  22.280  0.00  0.00    +0.000 N 
ATOM      2  C   UNL     1      -0.212  10.028  23.014  0.00  0.00    +0.000 C 
ATOM      3  C   UNL     1      -0.611   8.799  22.171  0.00  0.00    +0.000 C 
ATOM      4  N   UNL     1       0.008   8.755  20.821  0.00  0.00    +0.000 NA
ATOM      5  C   UNL     1      -0.367  10.018  20.131  0.00  0.00    +0.000 C 
ATOM      6  C   UNL     1      -0.011  11.322  20.895  0.00  0.00    +0.000 C 
ENDROOT
BRANCH   1  10
ATOM      7  C   UNL     1      -2.894  14.335  23.921  0.00  0.00    +0.000 A 
ATOM      8  C   UNL     1      -3.405  13.047  23.776  0.00  0.00    +0.000 A 
ATOM      9  C   UNL     1      -2.610  12.036  23.222  0.00  0.00    +0.000 A 
ATOM     10  C   UNL     1      -1.292  12.274  22.806  0.00  0.00    +0.000 A 
ATOM     11  C   UNL     1      -0.809  13.584  22.957  0.00  0.00    +0.000 A 
ATOM     12  C   UNL     1      -1.595  14.603  23.507  0.00  0.00    +0.000 A 
BRANCH   7  14
ATOM     13  N   UNL     1      -4.351  16.210  24.967  0.00  0.00    +0.000 NA
ATOM     14  C   UNL     1      -3.697  15.372  24.497  0.00  0.00    +0.000 C 
ENDBRANCH   7  14
ENDBRANCH   1  10
BRANCH   4  15
ATOM     15  C   UNL     1       1.480   8.601  20.851  0.00  0.00    +0.000 C 
BRANCH  15  16
ATOM     16  C   UNL     1       1.925   7.244  20.314  0.00  0.00    +0.000 C 
BRANCH  16  17
ATOM     17  C   UNL     1       2.386   7.293  18.866  0.00  0.00    +0.000 C 
ATOM     18  O   UNL     1       2.110   8.248  18.144  0.00  0.00    +0.000 OA
BRANCH  17  19
ATOM     19  C   UNL     1       3.190   6.153  18.378  0.00  0.00    +0.000 A 
ATOM     20  C   UNL     1       4.492   6.290  17.929  0.00  0.00    +0.000 A 
ATOM     21  S   UNL     1       5.199   4.828  17.433  0.00  0.00    +0.000 S 
ATOM     22  C   UNL     1       3.776   3.940  17.800  0.00  0.00    +0.000 A 
ATOM     23  C   UNL     1       3.603   2.550  17.643  0.00  0.00    +0.000 A 
ATOM     24  C   UNL     1       2.379   1.977  17.982  0.00  0.00    +0.000 A 
ATOM     25  C   UNL     1       1.346   2.767  18.462  0.00  0.00    +0.000 A 
ATOM     26  C   UNL     1       1.523   4.146  18.618  0.00  0.00    +0.000 A 
ATOM     27  C   UNL     1       2.759   4.767  18.292  0.00  0.00    +0.000 A 
ENDBRANCH  17  19
ENDBRANCH  16  17
ENDBRANCH  15  16
ENDBRANCH   4  15
TORSDOF 6
ENDMDL
MODEL 2
REMARK VINA RESULT:      -7.0      1.176      1.652
REMARK  Name = 
REMARK  6 active torsions:
REMARK  status: ('A' for Active; 'I' for Inactive)
REMARK    1  A    between atoms: C_2  and  C_3
REMARK    2  A    between atoms: C_6  and  N_7
REMARK    3  A    between atoms: N_10  and  C_11
REMARK    4  A    between atoms: C_11  and  C_12
REMARK    5  A    between atoms: C_12  and  C_13
REMARK    6  A    between atoms: C_13  and  C_15
REMARK                            x       y       z     vdW  Elec       q    Type
REMARK                         _______ _______ _______ _____ _____    ______ ____
ROOT
ATOM      1  N   UNL     1      -0.181  12.021  21.028  0.00  0.00    +0.000 N 
ATOM      2  C   UNL     1       0.160  10.619  21.304  0.00  0.00    +0.000 C 
ATOM      3  C   UNL     1      -0.388   9.707  20.186  0.00  0.00    +0.000 C 
ATOM      4  N   UNL     1       0.055  10.081  18.818  0.00  0.00    +0.000 NA
ATOM      5  C   UNL     1      -0.354  11.494  18.601  0.00  0.00    +0.000 C 
ATOM      6  C   UNL     1       0.144  12.501  19.673  0.00  0.00    +0.000 C 
ENDROOT
BRANCH   1  10
ATOM      7  C   UNL     1      -2.243  14.477  23.768  0.00  0.00    +0.000 A 
ATOM      8  C   UNL     1      -1.090  14.939  23.136  0.00  0.00    +0.000 A 
ATOM      9  C   UNL     1      -0.407  14.114  22.235  0.00  0.00    +0.000 A 
ATOM     10  C   UNL     1      -0.850  12.818  21.934  0.00  0.00    +0.000 A 
ATOM     11  C   UNL     1      -2.009  12.379  22.593  0.00  0.00    +0.000 A 
ATOM     12  C   UNL     1      -2.699  13.193  23.498  0.00  0.00    +0.000 A 
BRANCH   7  14
ATOM     13  N   UNL     1      -3.529  16.007  25.422  0.00  0.00    +0.000 NA
ATOM     14  C   UNL     1      -2.954  15.319  24.683  0.00  0.00    +0.000 C 
ENDBRANCH   7  14
ENDBRANCH   1  10
BRANCH   4  15
ATOM     15  C   UNL     1       1.512   9.928  18.607  0.00  0.00    +0.000 C 
BRANCH  15  16
ATOM     16  C   UNL     1       1.850   8.649  17.847  0.00  0.00    +0.000 C 
BRANCH  16  17
ATOM     17  C   UNL     1       2.396   7.546  18.741  0.00  0.00    +0.000 C 
ATOM     18  O   UNL     1       2.218   7.568  19.957  0.00  0.00    +0.000 OA
BRANCH  17  19
ATOM     19  C   UNL     1       3.128   6.446  18.079  0.00  0.00    +0.000 A 
ATOM     20  C   UNL     1       4.299   6.645  17.367  0.00  0.00    +0.000 A 
ATOM     21  S   UNL     1       4.949   5.218  16.714  0.00  0.00    +0.000 S 
ATOM     22  C   UNL     1       3.676   4.265  17.361  0.00  0.00    +0.000 A 
ATOM     23  C   UNL     1       3.535   2.870  17.225  0.00  0.00    +0.000 A 
ATOM     24  C   UNL     1       2.436   2.239  17.806  0.00  0.00    +0.000 A 
ATOM     25  C   UNL     1       1.494   2.979  18.503  0.00  0.00    +0.000 A 
ATOM     26  C   UNL     1       1.639   4.364  18.637  0.00  0.00    +0.000 A 
ATOM     27  C   UNL     1       2.749   5.043  18.066  0.00  0.00    +0.000 A 
ENDBRANCH  17  19
ENDBRANCH  16  17
ENDBRANCH  15  16
ENDBRANCH   4  15
TORSDOF 6
ENDMDL
MODEL 3
REMARK VINA RESULT:      -7.0      0.722      1.223
REMARK  Name = 
REMARK  6 active torsions:
REMARK  status: ('A' for Active; 'I' for Inactive)
REMARK    1  A    between atoms: C_2  and  C_3
REMARK    2  A    between atoms: C_6  and  N_7
REMARK    3  A    between atoms: N_10  and  C_11
REMARK    4  A    between atoms: C_11  and  C_12
REMARK    5  A    between atoms: C_12  and  C_13
REMARK    6  A    between atoms: C_13  and  C_15
REMARK                            x       y       z     vdW  Elec       q    Type
REMARK                         _______ _______ _______ _____ _____    ______ ____
ROOT
ATOM      1  N   UNL     1      -1.050  11.196  22.073  0.00  0.00    +0.000 N 
ATOM      2  C   UNL     1      -0.454  11.228  20.731  0.00  0.00    +0.000 C 
ATOM      3  C   UNL     1       1.051  10.896  20.808  0.00  0.00    +0.000 C 
ATOM      4  N   UNL     1       1.361   9.605  21.475  0.00  0.00    +0.000 NA
ATOM      5  C   UNL     1       0.758   9.662  22.833  0.00  0.00    +0.000 C 
ATOM      6  C   UNL     1      -0.759   9.991  22.872  0.00  0.00    +0.000 C 
ENDROOT
BRANCH   1  10
ATOM      7  C   UNL     1      -3.189  14.435  23.723  0.00  0.00    +0.000 A 
ATOM      8  C   UNL     1      -3.613  13.126  23.942  0.00  0.00    +0.000 A 
ATOM      9  C   UNL     1      -2.902  12.058  23.383  0.00  0.00    +0.000 A 
ATOM     10  C   UNL     1      -1.755  12.258  22.602  0.00  0.00    +0.000 A 
ATOM     11  C   UNL     1      -1.359  13.588  22.393  0.00  0.00    +0.000 A 
ATOM     12  C   UNL     1      -2.062  14.665  22.944  0.00  0.00    +0.000 A 
BRANCH   7  14
ATOM     13  N   UNL     1      -4.481  16.429  24.767  0.00  0.00    +0.000 NA
ATOM     14  C   UNL     1      -3.905  15.534  24.301  0.00  0.00    +0.000 C 
ENDBRANCH   7  14
ENDBRANCH   1  10
BRANCH   4  15
ATOM     15  C   UNL     1       0.857   8.424  20.736  0.00  0.00    +0.000 C 
BRANCH  15  16
ATOM     16  C   UNL     1       1.991   7.540  20.227  0.00  0.00    +0.000 C 
BRANCH  16  17
ATOM     17  C   UNL     1       2.209   7.649  18.726  0.00  0.00    +0.000 C 
ATOM     18  O   UNL     1       1.730   8.579  18.080  0.00  0.00    +0.000 OA
BRANCH  17  19
ATOM     19  C   UNL     1       3.033   6.600  18.089  0.00  0.00    +0.000 A 
ATOM     20  C   UNL     1       4.238   6.868  17.463  0.00  0.00    +0.000 A 
ATOM     21  S   UNL     1       4.994   5.489  16.822  0.00  0.00    +0.000 S 
ATOM     22  C   UNL     1       3.726   4.465  17.359  0.00  0.00    +0.000 A 
ATOM     23  C   UNL     1       3.658   3.068  17.181  0.00  0.00    +0.000 A 
ATOM     24  C   UNL     1       2.553   2.376  17.672  0.00  0.00    +0.000 A 
ATOM     25  C   UNL     1       1.534   3.055  18.322  0.00  0.00    +0.000 A 
ATOM     26  C   UNL     1       1.607   4.441  18.497  0.00  0.00    +0.000 A 
ATOM     27  C   UNL     1       2.720   5.182  18.018  0.00  0.00    +0.000 A 
ENDBRANCH  17  19
ENDBRANCH  16  17
ENDBRANCH  15  16
ENDBRANCH   4  15
TORSDOF 6
ENDMDL
MODEL 4
REMARK VINA RESULT:      -6.9      4.023      9.479
REMARK  Name = 
REMARK  6 active torsions:
REMARK  status: ('A' for Active; 'I' for Inactive)
REMARK    1  A    between atoms: C_2  and  C_3
REMARK    2  A    between atoms: C_6  and  N_7
REMARK    3  A    between atoms: N_10  and  C_11
REMARK    4  A    between atoms: C_11  and  C_12
REMARK    5  A    between atoms: C_12  and  C_13
REMARK    6  A    between atoms: C_13  and  C_15
REMARK                            x       y       z     vdW  Elec       q    Type
REMARK                         _______ _______ _______ _____ _____    ______ ____
ROOT
ATOM      1  N   UNL     1       1.847   7.786  19.977  0.00  0.00    +0.000 N 
ATOM      2  C   UNL     1       1.838   8.873  18.989  0.00  0.00    +0.000 C 
ATOM      3  C   UNL     1       0.464   9.576  18.983  0.00  0.00    +0.000 C 
ATOM      4  N   UNL     1       0.032  10.088  20.309  0.00  0.00    +0.000 NA
ATOM      5  C   UNL     1       0.033   8.930  21.242  0.00  0.00    +0.000 C 
ATOM      6  C   UNL     1       1.370   8.146  21.326  0.00  0.00    +0.000 C 
ENDROOT
BRANCH   1  10
ATOM      7  C   UNL     1       2.904   3.822  19.000  0.00  0.00    +0.000 A 
ATOM      8  C   UNL     1       3.214   4.868  18.133  0.00  0.00    +0.000 A 
ATOM      9  C   UNL     1       2.851   6.179  18.462  0.00  0.00    +0.000 A 
ATOM     10  C   UNL     1       2.181   6.487  19.655  0.00  0.00    +0.000 A 
ATOM     11  C   UNL     1       1.876   5.410  20.502  0.00  0.00    +0.000 A 
ATOM     12  C   UNL     1       2.231   4.094  20.184  0.00  0.00    +0.000 A 
BRANCH   7  14
ATOM     13  N   UNL     1       3.582   1.386  18.415  0.00  0.00    +0.000 NA
ATOM     14  C   UNL     1       3.282   2.478  18.676  0.00  0.00    +0.000 C 
ENDBRANCH   7  14
ENDBRANCH   1  10
BRANCH   4  15
ATOM     15  C   UNL     1       0.894  11.172  20.833  0.00  0.00    +0.000 C 
BRANCH  15  16
ATOM     16  C   UNL     1       0.091  12.418  21.196  0.00  0.00    +0.000 C 
BRANCH  16  17
ATOM     17  C   UNL     1      -0.611  13.049  20.004  0.00  0.00    +0.000 C 
ATOM     18  O   UNL     1      -0.000  13.764  19.213  0.00  0.00    +0.000 OA
BRANCH  17  19
ATOM     19  C   UNL     1      -2.048  12.748  19.834  0.00  0.00    +0.000 A 
ATOM     20  C   UNL     1      -3.002  13.079  20.781  0.00  0.00    +0.000 A 
ATOM     21  S   UNL     1      -4.581  12.634  20.342  0.00  0.00    +0.000 S 
ATOM     22  C   UNL     1      -4.049  11.971  18.851  0.00  0.00    +0.000 A 
ATOM     23  C   UNL     1      -4.867  11.376  17.870  0.00  0.00    +0.000 A 
ATOM     24  C   UNL     1      -4.280  10.875  16.709  0.00  0.00    +0.000 A 
ATOM     25  C   UNL     1      -2.908  10.958  16.528  0.00  0.00    +0.000 A 
ATOM     26  C   UNL     1      -2.100  11.551  17.505  0.00  0.00    +0.000 A 
ATOM     27  C   UNL     1      -2.661  12.081  18.697  0.00  0.00    +0.000 A 
ENDBRANCH  17  19
ENDBRANCH  16  17
ENDBRANCH  15  16
ENDBRANCH   4  15
TORSDOF 6
ENDMDL
MODEL 5
REMARK VINA RESULT:      -6.9      1.694      2.155
REMARK  Name = 
REMARK  6 active torsions:
REMARK  status: ('A' for Active; 'I' for Inactive)
REMARK    1  A    between atoms: C_2  and  C_3
REMARK    2  A    between atoms: C_6  and  N_7
REMARK    3  A    between atoms: N_10  and  C_11
REMARK    4  A    between atoms: C_11  and  C_12
REMARK    5  A    between atoms: C_12  and  C_13
REMARK    6  A    between atoms: C_13  and  C_15
REMARK                            x       y       z     vdW  Elec       q    Type
REMARK                         _______ _______ _______ _____ _____    ______ ____
ROOT
ATOM      1  N   UNL     1      -0.822  11.482  20.504  0.00  0.00    +0.000 N 
ATOM      2  C   UNL     1      -0.918  10.218  19.761  0.00  0.00    +0.000 C 
ATOM      3  C   UNL     1      -0.506  10.432  18.290  0.00  0.00    +0.000 C 
ATOM      4  N   UNL     1       0.844  11.028  18.111  0.00  0.00    +0.000 NA
ATOM      5  C   UNL     1       0.851  12.314  18.858  0.00  0.00    +0.000 C 
ATOM      6  C   UNL     1       0.449  12.215  20.355  0.00  0.00    +0.000 C 
ENDROOT
BRANCH   1  10
ATOM      7  C   UNL     1      -4.072  13.070  22.673  0.00  0.00    +0.000 A 
ATOM      8  C   UNL     1      -4.046  13.151  21.282  0.00  0.00    +0.000 A 
ATOM      9  C   UNL     1      -2.959  12.629  20.571  0.00  0.00    +0.000 A 
ATOM     10  C   UNL     1      -1.878  12.011  21.216  0.00  0.00    +0.000 A 
ATOM     11  C   UNL     1      -1.930  11.953  22.618  0.00  0.00    +0.000 A 
ATOM     12  C   UNL     1      -3.010  12.473  23.341  0.00  0.00    +0.000 A 
BRANCH   7  14
ATOM     13  N   UNL     1      -6.089  14.019  24.001  0.00  0.00    +0.000 NA
ATOM     14  C   UNL     1      -5.186  13.591  23.407  0.00  0.00    +0.000 C 
ENDBRANCH   7  14
ENDBRANCH   1  10
BRANCH   4  15
ATOM     15  C   UNL     1       1.942  10.153  18.580  0.00  0.00    +0.000 C 
BRANCH  15  16
ATOM     16  C   UNL     1       1.964   8.817  17.843  0.00  0.00    +0.000 C 
BRANCH  16  17
ATOM     17  C   UNL     1       2.362   7.648  18.731  0.00  0.00    +0.000 C 
ATOM     18  O   UNL     1       2.052   7.621  19.920  0.00  0.00    +0.000 OA
BRANCH  17  19
ATOM     19  C   UNL     1       3.116   6.548  18.095  0.00  0.00    +0.000 A 
ATOM     20  C   UNL     1       4.315   6.745  17.432  0.00  0.00    +0.000 A 
ATOM     21  S   UNL     1       4.985   5.318  16.800  0.00  0.00    +0.000 S 
ATOM     22  C   UNL     1       3.684   4.367  17.392  0.00  0.00    +0.000 A 
ATOM     23  C   UNL     1       3.543   2.973  17.245  0.00  0.00    +0.000 A 
ATOM     24  C   UNL     1       2.420   2.345  17.779  0.00  0.00    +0.000 A 
ATOM     25  C   UNL     1       1.453   3.086  18.441  0.00  0.00    +0.000 A 
ATOM     26  C   UNL     1       1.598   4.470  18.585  0.00  0.00    +0.000 A 
ATOM     27  C   UNL     1       2.733   5.146  18.062  0.00  0.00    +0.000 A 
ENDBRANCH  17  19
ENDBRANCH  16  17
ENDBRANCH  15  16
ENDBRANCH   4  15
TORSDOF 6
ENDMDL
MODEL 6
REMARK VINA RESULT:      -6.9      3.819      5.965
REMARK  Name = 
REMARK  6 active torsions:
REMARK  status: ('A' for Active; 'I' for Inactive)
REMARK    1  A    between atoms: C_2  and  C_3
REMARK    2  A    between atoms: C_6  and  N_7
REMARK    3  A    between atoms: N_10  and  C_11
REMARK    4  A    between atoms: C_11  and  C_12
REMARK    5  A    between atoms: C_12  and  C_13
REMARK    6  A    between atoms: C_13  and  C_15
REMARK                            x       y       z     vdW  Elec       q    Type
REMARK                         _______ _______ _______ _____ _____    ______ ____
ROOT
ATOM      1  N   UNL     1       1.983   6.108  19.500  0.00  0.00    +0.000 N 
ATOM      2  C   UNL     1       1.766   5.215  20.646  0.00  0.00    +0.000 C 
ATOM      3  C   UNL     1       0.819   4.062  20.251  0.00  0.00    +0.000 C 
ATOM      4  N   UNL     1       1.266   3.279  19.070  0.00  0.00    +0.000 NA
ATOM      5  C   UNL     1       1.428   4.242  17.948  0.00  0.00    +0.000 C 
ATOM      6  C   UNL     1       2.364   5.446  18.238  0.00  0.00    +0.000 C 
ENDROOT
BRANCH   1  10
ATOM      7  C   UNL     1       1.246  10.257  19.664  0.00  0.00    +0.000 A 
ATOM      8  C   UNL     1       1.648   9.660  18.472  0.00  0.00    +0.000 A 
ATOM      9  C   UNL     1       1.899   8.284  18.428  0.00  0.00    +0.000 A 
ATOM     10  C   UNL     1       1.753   7.467  19.559  0.00  0.00    +0.000 A 
ATOM     11  C   UNL     1       1.355   8.100  20.747  0.00  0.00    +0.000 A 
ATOM     12  C   UNL     1       1.103   9.476  20.804  0.00  0.00    +0.000 A 
BRANCH   7  14
ATOM     13  N   UNL     1       0.759  12.805  19.749  0.00  0.00    +0.000 NA
ATOM     14  C   UNL     1       0.976  11.664  19.714  0.00  0.00    +0.000 C 
ENDBRANCH   7  14
ENDBRANCH   1  10
BRANCH   4  15
ATOM     15  C   UNL     1       2.524   2.534  19.297  0.00  0.00    +0.000 C 
BRANCH  15  16
ATOM     16  C   UNL     1       3.615   2.936  18.309  0.00  0.00    +0.000 C 
BRANCH  16  17
ATOM     17  C   UNL     1       4.913   3.351  18.983  0.00  0.00    +0.000 C 
ATOM     18  O   UNL     1       5.253   2.864  20.060  0.00  0.00    +0.000 OA
BRANCH  17  19
ATOM     19  C   UNL     1       5.748   4.346  18.278  0.00  0.00    +0.000 A 
ATOM     20  C   UNL     1       6.374   5.396  18.927  0.00  0.00    +0.000 A 
ATOM     21  S   UNL     1       7.284   6.390  17.894  0.00  0.00    +0.000 S 
ATOM     22  C   UNL     1       6.871   5.449  16.519  0.00  0.00    +0.000 A 
ATOM     23  C   UNL     1       7.300   5.681  15.197  0.00  0.00    +0.000 A 
ATOM     24  C   UNL     1       6.870   4.826  14.184  0.00  0.00    +0.000 A 
ATOM     25  C   UNL     1       6.028   3.764  14.476  0.00  0.00    +0.000 A 
ATOM     26  C   UNL     1       5.606   3.537  15.791  0.00  0.00    +0.000 A 
ATOM     27  C   UNL     1       6.029   4.381  16.852  0.00  0.00    +0.000 A 
ENDBRANCH  17  19
ENDBRANCH  16  17
ENDBRANCH  15  16
ENDBRANCH   4  15
TORSDOF 6
ENDMDL
MODEL 7
REMARK VINA RESULT:      -6.9      1.873      2.886
REMARK  Name = 
REMARK  6 active torsions:
REMARK  status: ('A' for Active; 'I' for Inactive)
REMARK    1  A    between atoms: C_2  and  C_3
REMARK    2  A    between atoms: C_6  and  N_7
REMARK    3  A    between atoms: N_10  and  C_11
REMARK    4  A    between atoms: C_11  and  C_12
REMARK    5  A    between atoms: C_12  and  C_13
REMARK    6  A    between atoms: C_13  and  C_15
REMARK                            x       y       z     vdW  Elec       q    Type
REMARK                         _______ _______ _______ _____ _____    ______ ____
ROOT
ATOM      1  N   UNL     1      -0.393  11.225  20.477  0.00  0.00    +0.000 N 
ATOM      2  C   UNL     1      -0.611   9.966  19.752  0.00  0.00    +0.000 C 
ATOM      3  C   UNL     1      -0.169  10.116  18.280  0.00  0.00    +0.000 C 
ATOM      4  N   UNL     1       1.234  10.571  18.105  0.00  0.00    +0.000 NA
ATOM      5  C   UNL     1       1.366  11.860  18.834  0.00  0.00    +0.000 C 
ATOM      6  C   UNL     1       0.947  11.824  20.328  0.00  0.00    +0.000 C 
ENDROOT
BRANCH   1  10
ATOM      7  C   UNL     1      -3.433  13.213  22.620  0.00  0.00    +0.000 A 
ATOM      8  C   UNL     1      -2.542  12.370  23.280  0.00  0.00    +0.000 A 
ATOM      9  C   UNL     1      -1.541  11.707  22.560  0.00  0.00    +0.000 A 
ATOM     10  C   UNL     1      -1.395  11.868  21.174  0.00  0.00    +0.000 A 
ATOM     11  C   UNL     1      -2.314  12.717  20.537  0.00  0.00    +0.000 A 
ATOM     12  C   UNL     1      -3.320  13.383  21.246  0.00  0.00    +0.000 A 
BRANCH   7  14
ATOM     13  N   UNL     1      -5.278  14.462  23.951  0.00  0.00    +0.000 NA
ATOM     14  C   UNL     1      -4.453  13.904  23.352  0.00  0.00    +0.000 C 
ENDBRANCH   7  14
ENDBRANCH   1  10
BRANCH   4  15
ATOM     15  C   UNL     1       2.236   9.597  18.594  0.00  0.00    +0.000 C 
BRANCH  15  16
ATOM     16  C   UNL     1       2.124   8.252  17.881  0.00  0.00    +0.000 C 
BRANCH  16  17
ATOM     17  C   UNL     1       2.428   7.067  18.783  0.00  0.00    +0.000 C 
ATOM     18  O   UNL     1       2.286   7.144  20.002  0.00  0.00    +0.000 OA
BRANCH  17  19
ATOM     19  C   UNL     1       2.881   5.823  18.127  0.00  0.00    +0.000 A 
ATOM     20  C   UNL     1       2.108   4.675  18.078  0.00  0.00    +0.000 A 
ATOM     21  S   UNL     1       2.852   3.388  17.258  0.00  0.00    +0.000 S 
ATOM     22  C   UNL     1       4.256   4.320  16.932  0.00  0.00    +0.000 A 
ATOM     23  C   UNL     1       5.394   3.885  16.225  0.00  0.00    +0.000 A 
ATOM     24  C   UNL     1       6.460   4.765  16.048  0.00  0.00    +0.000 A 
ATOM     25  C   UNL     1       6.401   6.048  16.568  0.00  0.00    +0.000 A 
ATOM     26  C   UNL     1       5.268   6.476  17.268  0.00  0.00    +0.000 A 
ATOM     27  C   UNL     1       4.157   5.613  17.462  0.00  0.00    +0.000 A 
ENDBRANCH  17  19
ENDBRANCH  16  17
ENDBRANCH  15  16
ENDBRANCH   4  15
TORSDOF 6
ENDMDL
MODEL 8
REMARK VINA RESULT:      -6.9      4.603     10.281
REMARK  Name = 
REMARK  6 active torsions:
REMARK  status: ('A' for Active; 'I' for Inactive)
REMARK    1  A    between atoms: C_2  and  C_3
REMARK    2  A    between atoms: C_6  and  N_7
REMARK    3  A    between atoms: N_10  and  C_11
REMARK    4  A    between atoms: C_11  and  C_12
REMARK    5  A    between atoms: C_12  and  C_13
REMARK    6  A    between atoms: C_13  and  C_15
REMARK                            x       y       z     vdW  Elec       q    Type
REMARK                         _______ _______ _______ _____ _____    ______ ____
ROOT
ATOM      1  N   UNL     1       1.825   8.063  19.857  0.00  0.00    +0.000 N 
ATOM      2  C   UNL     1       1.825   9.155  18.874  0.00  0.00    +0.000 C 
ATOM      3  C   UNL     1       0.454   9.863  18.863  0.00  0.00    +0.000 C 
ATOM      4  N   UNL     1       0.015  10.369  20.189  0.00  0.00    +0.000 NA
ATOM      5  C   UNL     1       0.006   9.207  21.116  0.00  0.00    +0.000 C 
ATOM      6  C   UNL     1       1.341   8.418  21.204  0.00  0.00    +0.000 C 
ENDROOT
BRANCH   1  10
ATOM      7  C   UNL     1       2.806   4.086  18.851  0.00  0.00    +0.000 A 
ATOM      8  C   UNL     1       2.215   4.378  20.079  0.00  0.00    +0.000 A 
ATOM      9  C   UNL     1       1.901   5.701  20.408  0.00  0.00    +0.000 A 
ATOM     10  C   UNL     1       2.157   6.765  19.530  0.00  0.00    +0.000 A 
ATOM     11  C   UNL     1       2.761   6.440  18.305  0.00  0.00    +0.000 A 
ATOM     12  C   UNL     1       3.082   5.121  17.966  0.00  0.00    +0.000 A 
BRANCH   7  14
ATOM     13  N   UNL     1       3.380   1.637  18.217  0.00  0.00    +0.000 NA
ATOM     14  C   UNL     1       3.120   2.733  18.502  0.00  0.00    +0.000 C 
ENDBRANCH   7  14
ENDBRANCH   1  10
BRANCH   4  15
ATOM     15  C   UNL     1       0.876  11.448  20.723  0.00  0.00    +0.000 C 
BRANCH  15  16
ATOM     16  C   UNL     1       0.980  12.628  19.760  0.00  0.00    +0.000 C 
BRANCH  16  17
ATOM     17  C   UNL     1       1.562  13.877  20.403  0.00  0.00    +0.000 C 
ATOM     18  O   UNL     1       1.648  13.982  21.624  0.00  0.00    +0.000 OA
BRANCH  17  19
ATOM     19  C   UNL     1       2.032  14.943  19.493  0.00  0.00    +0.000 A 
ATOM     20  C   UNL     1       3.364  15.105  19.151  0.00  0.00    +0.000 A 
ATOM     21  S   UNL     1       3.639  16.396  18.082  0.00  0.00    +0.000 S 
ATOM     22  C   UNL     1       1.971  16.798  18.034  0.00  0.00    +0.000 A 
ATOM     23  C   UNL     1       1.393  17.844  17.288  0.00  0.00    +0.000 A 
ATOM     24  C   UNL     1       0.016  18.047  17.360  0.00  0.00    +0.000 A 
ATOM     25  C   UNL     1      -0.770  17.233  18.160  0.00  0.00    +0.000 A 
ATOM     26  C   UNL     1      -0.191  16.195  18.899  0.00  0.00    +0.000 A 
ATOM     27  C   UNL     1       1.207  15.950  18.846  0.00  0.00    +0.000 A 
ENDBRANCH  17  19
ENDBRANCH  16  17
ENDBRANCH  15  16
ENDBRANCH   4  15
TORSDOF 6
ENDMDL
MODEL 9
REMARK VINA RESULT:      -6.8      4.282     10.262
REMARK  Name = 
REMARK  6 active torsions:
REMARK  status: ('A' for Active; 'I' for Inactive)
REMARK    1  A    between atoms: C_2  and  C_3
REMARK    2  A    between atoms: C_6  and  N_7
REMARK    3  A    between atoms: N_10  and  C_11
REMARK    4  A    between atoms: C_11  and  C_12
REMARK    5  A    between atoms: C_12  and  C_13
REMARK    6  A    between atoms: C_13  and  C_15
REMARK                            x       y       z     vdW  Elec       q    Type
REMARK                         _______ _______ _______ _____ _____    ______ ____
ROOT
ATOM      1  N   UNL     1       1.051   8.973  20.078  0.00  0.00    +0.000 N 
ATOM      2  C   UNL     1       0.405   8.630  21.353  0.00  0.00    +0.000 C 
ATOM      3  C   UNL     1       0.724   9.701  22.417  0.00  0.00    +0.000 C 
ATOM      4  N   UNL     1       0.364  11.087  22.018  0.00  0.00    +0.000 NA
ATOM      5  C   UNL     1       1.080  11.371  20.746  0.00  0.00    +0.000 C 
ATOM      6  C   UNL     1       0.830  10.351  19.602  0.00  0.00    +0.000 C 
ENDROOT
BRANCH   1  10
ATOM      7  C   UNL     1       3.648   6.343  18.047  0.00  0.00    +0.000 A 
ATOM      8  C   UNL     1       3.321   7.578  17.492  0.00  0.00    +0.000 A 
ATOM      9  C   UNL     1       2.451   8.441  18.169  0.00  0.00    +0.000 A 
ATOM     10  C   UNL     1       1.891   8.106  19.411  0.00  0.00    +0.000 A 
ATOM     11  C   UNL     1       2.233   6.851  19.938  0.00  0.00    +0.000 A 
ATOM     12  C   UNL     1       3.100   5.979  19.270  0.00  0.00    +0.000 A 
BRANCH   7  14
ATOM     13  N   UNL     1       5.273   4.737  16.816  0.00  0.00    +0.000 NA
ATOM     14  C   UNL     1       4.547   5.459  17.366  0.00  0.00    +0.000 C 
ENDBRANCH   7  14
ENDBRANCH   1  10
BRANCH   4  15
ATOM     15  C   UNL     1      -1.092  11.293  21.849  0.00  0.00    +0.000 C 
BRANCH  15  16
ATOM     16  C   UNL     1      -1.796  11.530  23.181  0.00  0.00    +0.000 C 
BRANCH  16  17
ATOM     17  C   UNL     1      -2.525  12.863  23.246  0.00  0.00    +0.000 C 
ATOM     18  O   UNL     1      -1.907  13.920  23.358  0.00  0.00    +0.000 OA
BRANCH  17  19
ATOM     19  C   UNL     1      -3.999  12.828  23.151  0.00  0.00    +0.000 A 
ATOM     20  C   UNL     1      -4.823  12.792  24.263  0.00  0.00    +0.000 A 
ATOM     21  S   UNL     1      -6.478  12.768  23.883  0.00  0.00    +0.000 S 
ATOM     22  C   UNL     1      -6.158  12.801  22.197  0.00  0.00    +0.000 A 
ATOM     23  C   UNL     1      -7.124  12.808  21.170  0.00  0.00    +0.000 A 
ATOM     24  C   UNL     1      -6.702  12.829  19.843  0.00  0.00    +0.000 A 
ATOM     25  C   UNL     1      -5.350  12.838  19.539  0.00  0.00    +0.000 A 
ATOM     26  C   UNL     1      -4.395  12.833  20.561  0.00  0.00    +0.000 A 
ATOM     27  C   UNL     1      -4.784  12.820  21.927  0.00  0.00    +0.000 A 
ENDBRANCH  17  19
ENDBRANCH  16  17
ENDBRANCH  15  16
ENDBRANCH   4  15
TORSDOF 6
ENDMDL
