MODEL 1
REMARK VINA RESULT:      -7.7      0.000      0.000
REMARK  Name = 
REMARK  9 active torsions:
REMARK  status: ('A' for Active; 'I' for Inactive)
REMARK    1  A    between atoms: C_1  and  C_2
REMARK    2  A    between atoms: C_2  and  C_3
REMARK    3  A    between atoms: C_2  and  N_4
REMARK    4  A    between atoms: N_7  and  C_8
REMARK    5  A    between atoms: N_7  and  C_19
REMARK    6  A    between atoms: C_8  and  C_9
REMARK    7  A    between atoms: C_11  and  C_12
REMARK    8  A    between atoms: C_19  and  C_20
REMARK    9  A    between atoms: C_19  and  C_21
REMARK                            x       y       z     vdW  Elec       q    Type
REMARK                         _______ _______ _______ _____ _____    ______ ____
ROOT
ATOM      1  N   UNL     1       3.151   6.466  19.030  0.00  0.00    +0.000 N 
ATOM      2  C   UNL     1       2.878   5.120  19.066  0.00  0.00    +0.000 C 
ATOM      3  O   UNL     1       1.725   4.708  18.941  0.00  0.00    +0.000 OA
ATOM      4  N   UNL     1       3.965   4.267  19.233  0.00  0.00    +0.000 N 
ATOM      5  H   UNL     1       3.932   6.784  19.577  0.00  0.00    +0.000 HD
ENDROOT
BRANCH   1   7
ATOM      6  C   UNL     1       1.762   8.078  20.269  0.00  0.00    +0.000 C 
ATOM      7  C   UNL     1       2.063   7.440  18.913  0.00  0.00    +0.000 C 
ATOM      8  C   UNL     1       2.418   8.512  17.887  0.00  0.00    +0.000 C 
ENDBRANCH   1   7
BRANCH   4   9
ATOM      9  C   UNL     1       3.669   2.817  19.360  0.00  0.00    +0.000 C 
ATOM     10  C   UNL     1       3.545   2.108  18.013  0.00  0.00    +0.000 C 
ATOM     11  C   UNL     1       4.660   2.093  20.278  0.00  0.00    +0.000 C 
ENDBRANCH   4   9
BRANCH   4  12
ATOM     12  C   UNL     1       5.371   4.697  19.312  0.00  0.00    +0.000 C 
BRANCH  12  13
ATOM     13  C   UNL     1       6.155   4.483  18.055  0.00  0.00    +0.000 A 
ATOM     14  C   UNL     1       5.718   4.488  16.711  0.00  0.00    +0.000 A 
ATOM     15  C   UNL     1       6.873   4.483  15.955  0.00  0.00    +0.000 A 
ATOM     16  O   UNL     1       7.932   4.391  16.809  0.00  0.00    +0.000 OA
ATOM     17  N   UNL     1       7.492   4.405  18.118  0.00  0.00    +0.000 NA
BRANCH  15  18
ATOM     18  C   UNL     1       7.019   4.614  14.535  0.00  0.00    +0.000 A 
ATOM     19  C   UNL     1       6.369   3.916  13.530  0.00  0.00    +0.000 A 
ATOM     20  C   UNL     1       6.899   4.366  12.293  0.00  0.00    +0.000 A 
ATOM     21  C   UNL     1       7.836   5.317  12.609  0.00  0.00    +0.000 A 
ATOM     22  O   UNL     1       7.917   5.477  13.955  0.00  0.00    +0.000 OA
ENDBRANCH  15  18
ENDBRANCH  12  13
ENDBRANCH   4  12
TORSDOF 5
ENDMDL
MODEL 2
REMARK VINA RESULT:      -7.1      2.180      6.794
REMARK  Name = 
REMARK  9 active torsions:
REMARK  status: ('A' for Active; 'I' for Inactive)
REMARK    1  A    between atoms: C_1  and  C_2
REMARK    2  A    between atoms: C_2  and  C_3
REMARK    3  A    between atoms: C_2  and  N_4
REMARK    4  A    between atoms: N_7  and  C_8
REMARK    5  A    between atoms: N_7  and  C_19
REMARK    6  A    between atoms: C_8  and  C_9
REMARK    7  A    between atoms: C_11  and  C_12
REMARK    8  A    between atoms: C_19  and  C_20
REMARK    9  A    between atoms: C_19  and  C_21
REMARK                            x       y       z     vdW  Elec       q    Type
REMARK                         _______ _______ _______ _____ _____    ______ ____
ROOT
ATOM      1  N   UNL     1       5.857   4.800  14.347  0.00  0.00    +0.000 N 
ATOM      2  C   UNL     1       6.762   5.106  15.336  0.00  0.00    +0.000 C 
ATOM      3  O   UNL     1       7.868   4.568  15.365  0.00  0.00    +0.000 OA
ATOM      4  N   UNL     1       6.365   6.056  16.273  0.00  0.00    +0.000 N 
ATOM      5  H   UNL     1       4.884   4.856  14.593  0.00  0.00    +0.000 HD
ENDROOT
BRANCH   1   7
ATOM      6  C   UNL     1       4.900   3.323  12.625  0.00  0.00    +0.000 C 
ATOM      7  C   UNL     1       6.168   3.772  13.352  0.00  0.00    +0.000 C 
ATOM      8  C   UNL     1       7.198   4.295  12.354  0.00  0.00    +0.000 C 
ENDBRANCH   1   7
BRANCH   4   9
ATOM      9  C   UNL     1       7.302   6.328  17.392  0.00  0.00    +0.000 C 
ATOM     10  C   UNL     1       7.527   7.819  17.639  0.00  0.00    +0.000 C 
ATOM     11  C   UNL     1       6.900   5.607  18.684  0.00  0.00    +0.000 C 
ENDBRANCH   4   9
BRANCH   4  12
ATOM     12  C   UNL     1       5.087   6.787  16.244  0.00  0.00    +0.000 C 
BRANCH  12  13
ATOM     13  C   UNL     1       4.102   6.351  17.283  0.00  0.00    +0.000 A 
ATOM     14  C   UNL     1       3.755   5.046  17.701  0.00  0.00    +0.000 A 
ATOM     15  C   UNL     1       2.990   5.222  18.836  0.00  0.00    +0.000 A 
ATOM     16  O   UNL     1       2.823   6.561  19.026  0.00  0.00    +0.000 OA
ATOM     17  N   UNL     1       3.524   7.269  18.070  0.00  0.00    +0.000 NA
BRANCH  15  18
ATOM     18  C   UNL     1       2.483   4.232  19.742  0.00  0.00    +0.000 A 
ATOM     19  C   UNL     1       1.168   3.967  20.087  0.00  0.00    +0.000 A 
ATOM     20  C   UNL     1       1.186   2.937  21.062  0.00  0.00    +0.000 A 
ATOM     21  C   UNL     1       2.508   2.624  21.252  0.00  0.00    +0.000 A 
ATOM     22  O   UNL     1       3.298   3.395  20.463  0.00  0.00    +0.000 OA
ENDBRANCH  15  18
ENDBRANCH  12  13
ENDBRANCH   4  12
TORSDOF 5
ENDMDL
MODEL 3
REMARK VINA RESULT:      -6.7      1.044      1.272
REMARK  Name = 
REMARK  9 active torsions:
REMARK  status: ('A' for Active; 'I' for Inactive)
REMARK    1  A    between atoms: C_1  and  C_2
REMARK    2  A    between atoms: C_2  and  C_3
REMARK    3  A    between atoms: C_2  and  N_4
REMARK    4  A    between atoms: N_7  and  C_8
REMARK    5  A    between atoms: N_7  and  C_19
REMARK    6  A    between atoms: C_8  and  C_9
REMARK    7  A    between atoms: C_11  and  C_12
REMARK    8  A    between atoms: C_19  and  C_20
REMARK    9  A    between atoms: C_19  and  C_21
REMARK                            x       y       z     vdW  Elec       q    Type
REMARK                         _______ _______ _______ _____ _____    ______ ____
ROOT
ATOM      1  N   UNL     1       3.080   6.546  19.208  0.00  0.00    +0.000 N 
ATOM      2  C   UNL     1       2.923   5.185  19.321  0.00  0.00    +0.000 C 
ATOM      3  O   UNL     1       1.801   4.681  19.332  0.00  0.00    +0.000 OA
ATOM      4  N   UNL     1       4.087   4.427  19.402  0.00  0.00    +0.000 N 
ATOM      5  H   UNL     1       3.884   6.946  19.659  0.00  0.00    +0.000 HD
ENDROOT
BRANCH   1   7
ATOM      6  C   UNL     1       1.686   8.081  20.536  0.00  0.00    +0.000 C 
ATOM      7  C   UNL     1       1.910   7.426  19.173  0.00  0.00    +0.000 C 
ATOM      8  C   UNL     1       2.080   8.490  18.091  0.00  0.00    +0.000 C 
ENDBRANCH   1   7
BRANCH   4   9
ATOM      9  C   UNL     1       3.924   2.966  19.611  0.00  0.00    +0.000 C 
ATOM     10  C   UNL     1       3.116   2.623  20.860  0.00  0.00    +0.000 C 
ATOM     11  C   UNL     1       3.363   2.254  18.375  0.00  0.00    +0.000 C 
ENDBRANCH   4   9
BRANCH   4  12
ATOM     12  C   UNL     1       5.453   4.968  19.318  0.00  0.00    +0.000 C 
BRANCH  12  13
ATOM     13  C   UNL     1       5.908   5.286  17.928  0.00  0.00    +0.000 A 
ATOM     14  C   UNL     1       6.295   4.412  16.887  0.00  0.00    +0.000 A 
ATOM     15  C   UNL     1       6.382   5.206  15.761  0.00  0.00    +0.000 A 
ATOM     16  O   UNL     1       6.144   6.494  16.138  0.00  0.00    +0.000 OA
ATOM     17  N   UNL     1       5.835   6.548  17.483  0.00  0.00    +0.000 NA
BRANCH  15  18
ATOM     18  C   UNL     1       6.610   4.816  14.400  0.00  0.00    +0.000 A 
ATOM     19  C   UNL     1       5.981   3.822  13.667  0.00  0.00    +0.000 A 
ATOM     20  C   UNL     1       6.598   3.785  12.391  0.00  0.00    +0.000 A 
ATOM     21  C   UNL     1       7.563   4.760  12.411  0.00  0.00    +0.000 A 
ATOM     22  O   UNL     1       7.580   5.388  13.614  0.00  0.00    +0.000 OA
ENDBRANCH  15  18
ENDBRANCH  12  13
ENDBRANCH   4  12
TORSDOF 5
ENDMDL
MODEL 4
REMARK VINA RESULT:      -6.7      2.189      4.178
REMARK  Name = 
REMARK  9 active torsions:
REMARK  status: ('A' for Active; 'I' for Inactive)
REMARK    1  A    between atoms: C_1  and  C_2
REMARK    2  A    between atoms: C_2  and  C_3
REMARK    3  A    between atoms: C_2  and  N_4
REMARK    4  A    between atoms: N_7  and  C_8
REMARK    5  A    between atoms: N_7  and  C_19
REMARK    6  A    between atoms: C_8  and  C_9
REMARK    7  A    between atoms: C_11  and  C_12
REMARK    8  A    between atoms: C_19  and  C_20
REMARK    9  A    between atoms: C_19  and  C_21
REMARK                            x       y       z     vdW  Elec       q    Type
REMARK                         _______ _______ _______ _____ _____    ______ ____
ROOT
ATOM      1  N   UNL     1       4.876   3.552  18.539  0.00  0.00    +0.000 N 
ATOM      2  C   UNL     1       4.869   4.925  18.504  0.00  0.00    +0.000 C 
ATOM      3  O   UNL     1       3.953   5.563  19.022  0.00  0.00    +0.000 OA
ATOM      4  N   UNL     1       5.947   5.540  17.873  0.00  0.00    +0.000 N 
ATOM      5  H   UNL     1       5.311   3.082  17.765  0.00  0.00    +0.000 HD
ENDROOT
BRANCH   1   7
ATOM      6  C   UNL     1       3.353   1.639  18.251  0.00  0.00    +0.000 C 
ATOM      7  C   UNL     1       3.755   2.820  19.134  0.00  0.00    +0.000 C 
ATOM      8  C   UNL     1       4.120   2.338  20.535  0.00  0.00    +0.000 C 
ENDBRANCH   1   7
BRANCH   4   9
ATOM      9  C   UNL     1       5.903   7.019  17.754  0.00  0.00    +0.000 C 
ATOM     10  C   UNL     1       7.286   7.655  17.639  0.00  0.00    +0.000 C 
ATOM     11  C   UNL     1       4.981   7.491  16.624  0.00  0.00    +0.000 C 
ENDBRANCH   4   9
BRANCH   4  12
ATOM     12  C   UNL     1       7.105   4.832  17.303  0.00  0.00    +0.000 C 
BRANCH  12  13
ATOM     13  C   UNL     1       7.010   4.573  15.832  0.00  0.00    +0.000 A 
ATOM     14  C   UNL     1       6.276   3.584  15.140  0.00  0.00    +0.000 A 
ATOM     15  C   UNL     1       6.349   3.944  13.809  0.00  0.00    +0.000 A 
ATOM     16  O   UNL     1       7.156   5.039  13.716  0.00  0.00    +0.000 OA
ATOM     17  N   UNL     1       7.560   5.443  14.973  0.00  0.00    +0.000 NA
BRANCH  15  18
ATOM     18  C   UNL     1       5.676   3.367  12.682  0.00  0.00    +0.000 A 
ATOM     19  C   UNL     1       6.146   2.422  11.784  0.00  0.00    +0.000 A 
ATOM     20  C   UNL     1       5.131   2.219  10.816  0.00  0.00    +0.000 A 
ATOM     21  C   UNL     1       4.095   3.042  11.178  0.00  0.00    +0.000 A 
ATOM     22  O   UNL     1       4.410   3.737  12.300  0.00  0.00    +0.000 OA
ENDBRANCH  15  18
ENDBRANCH  12  13
ENDBRANCH   4  12
TORSDOF 5
ENDMDL
MODEL 5
REMARK VINA RESULT:      -6.5      2.680      6.667
REMARK  Name = 
REMARK  9 active torsions:
REMARK  status: ('A' for Active; 'I' for Inactive)
REMARK    1  A    between atoms: C_1  and  C_2
REMARK    2  A    between atoms: C_2  and  C_3
REMARK    3  A    between atoms: C_2  and  N_4
REMARK    4  A    between atoms: N_7  and  C_8
REMARK    5  A    between atoms: N_7  and  C_19
REMARK    6  A    between atoms: C_8  and  C_9
REMARK    7  A    between atoms: C_11  and  C_12
REMARK    8  A    between atoms: C_19  and  C_20
REMARK    9  A    between atoms: C_19  and  C_21
REMARK                            x       y       z     vdW  Elec       q    Type
REMARK                         _______ _______ _______ _____ _____    ______ ____
ROOT
ATOM      1  N   UNL     1       5.204   4.644  17.434  0.00  0.00    +0.000 N 
ATOM      2  C   UNL     1       4.211   3.858  17.967  0.00  0.00    +0.000 C 
ATOM      3  O   UNL     1       4.020   2.717  17.549  0.00  0.00    +0.000 OA
ATOM      4  N   UNL     1       3.460   4.413  18.999  0.00  0.00    +0.000 N 
ATOM      5  H   UNL     1       5.041   5.636  17.430  0.00  0.00    +0.000 HD
ENDROOT
BRANCH   1   7
ATOM      6  C   UNL     1       5.458   4.699  14.986  0.00  0.00    +0.000 C 
ATOM      7  C   UNL     1       6.006   4.162  16.308  0.00  0.00    +0.000 C 
ATOM      8  C   UNL     1       7.466   4.570  16.484  0.00  0.00    +0.000 C 
ENDBRANCH   1   7
BRANCH   4   9
ATOM      9  C   UNL     1       2.331   3.603  19.521  0.00  0.00    +0.000 C 
ATOM     10  C   UNL     1       1.968   3.937  20.966  0.00  0.00    +0.000 C 
ATOM     11  C   UNL     1       1.097   3.661  18.613  0.00  0.00    +0.000 C 
ENDBRANCH   4   9
BRANCH   4  12
ATOM     12  C   UNL     1       3.693   5.741  19.591  0.00  0.00    +0.000 C 
BRANCH  12  13
ATOM     13  C   UNL     1       2.937   6.853  18.932  0.00  0.00    +0.000 A 
ATOM     14  C   UNL     1       1.941   7.702  19.465  0.00  0.00    +0.000 A 
ATOM     15  C   UNL     1       1.762   8.689  18.518  0.00  0.00    +0.000 A 
ATOM     16  O   UNL     1       2.549   8.388  17.445  0.00  0.00    +0.000 OA
ATOM     17  N   UNL     1       3.292   7.254  17.703  0.00  0.00    +0.000 NA
BRANCH  15  18
ATOM     18  C   UNL     1       0.966   9.880  18.598  0.00  0.00    +0.000 A 
ATOM     19  C   UNL     1      -0.375  10.046  18.291  0.00  0.00    +0.000 A 
ATOM     20  C   UNL     1      -0.682  11.418  18.477  0.00  0.00    +0.000 A 
ATOM     21  C   UNL     1       0.482  12.012  18.893  0.00  0.00    +0.000 A 
ATOM     22  O   UNL     1       1.481  11.097  18.971  0.00  0.00    +0.000 OA
ENDBRANCH  15  18
ENDBRANCH  12  13
ENDBRANCH   4  12
TORSDOF 5
ENDMDL
MODEL 6
REMARK VINA RESULT:      -6.5      2.707      6.398
REMARK  Name = 
REMARK  9 active torsions:
REMARK  status: ('A' for Active; 'I' for Inactive)
REMARK    1  A    between atoms: C_1  and  C_2
REMARK    2  A    between atoms: C_2  and  C_3
REMARK    3  A    between atoms: C_2  and  N_4
REMARK    4  A    between atoms: N_7  and  C_8
REMARK    5  A    between atoms: N_7  and  C_19
REMARK    6  A    between atoms: C_8  and  C_9
REMARK    7  A    between atoms: C_11  and  C_12
REMARK    8  A    between atoms: C_19  and  C_20
REMARK    9  A    between atoms: C_19  and  C_21
REMARK                            x       y       z     vdW  Elec       q    Type
REMARK                         _______ _______ _______ _____ _____    ______ ____
ROOT
ATOM      1  N   UNL     1       2.954   3.441  19.493  0.00  0.00    +0.000 N 
ATOM      2  C   UNL     1       3.798   3.228  18.430  0.00  0.00    +0.000 C 
ATOM      3  O   UNL     1       3.706   2.208  17.749  0.00  0.00    +0.000 OA
ATOM      4  N   UNL     1       4.733   4.225  18.165  0.00  0.00    +0.000 N 
ATOM      5  H   UNL     1       3.323   3.971  20.263  0.00  0.00    +0.000 HD
ENDROOT
BRANCH   1   7
ATOM      6  C   UNL     1       1.589   2.574  21.350  0.00  0.00    +0.000 C 
ATOM      7  C   UNL     1       1.976   2.422  19.879  0.00  0.00    +0.000 C 
ATOM      8  C   UNL     1       0.739   2.510  18.990  0.00  0.00    +0.000 C 
ENDBRANCH   1   7
BRANCH   4   9
ATOM      9  C   UNL     1       5.704   3.963  17.072  0.00  0.00    +0.000 C 
ATOM     10  C   UNL     1       5.202   4.410  15.701  0.00  0.00    +0.000 C 
ATOM     11  C   UNL     1       7.093   4.539  17.369  0.00  0.00    +0.000 C 
ENDBRANCH   4   9
BRANCH   4  12
ATOM     12  C   UNL     1       4.839   5.498  18.896  0.00  0.00    +0.000 C 
BRANCH  12  13
ATOM     13  C   UNL     1       3.789   6.504  18.543  0.00  0.00    +0.000 A 
ATOM     14  C   UNL     1       2.709   6.985  19.316  0.00  0.00    +0.000 A 
ATOM     15  C   UNL     1       2.209   8.061  18.610  0.00  0.00    +0.000 A 
ATOM     16  O   UNL     1       2.904   8.154  17.441  0.00  0.00    +0.000 OA
ATOM     17  N   UNL     1       3.898   7.196  17.399  0.00  0.00    +0.000 NA
BRANCH  15  18
ATOM     18  C   UNL     1       1.195   8.998  18.996  0.00  0.00    +0.000 A 
ATOM     19  C   UNL     1       0.522   9.919  18.210  0.00  0.00    +0.000 A 
ATOM     20  C   UNL     1      -0.341  10.653  19.063  0.00  0.00    +0.000 A 
ATOM     21  C   UNL     1      -0.154  10.136  20.321  0.00  0.00    +0.000 A 
ATOM     22  O   UNL     1       0.766   9.139  20.293  0.00  0.00    +0.000 OA
ENDBRANCH  15  18
ENDBRANCH  12  13
ENDBRANCH   4  12
TORSDOF 5
ENDMDL
MODEL 7
REMARK VINA RESULT:      -6.5      2.809      6.594
REMARK  Name = 
REMARK  9 active torsions:
REMARK  status: ('A' for Active; 'I' for Inactive)
REMARK    1  A    between atoms: C_1  and  C_2
REMARK    2  A    between atoms: C_2  and  C_3
REMARK    3  A    between atoms: C_2  and  N_4
REMARK    4  A    between atoms: N_7  and  C_8
REMARK    5  A    between atoms: N_7  and  C_19
REMARK    6  A    between atoms: C_8  and  C_9
REMARK    7  A    between atoms: C_11  and  C_12
REMARK    8  A    between atoms: C_19  and  C_20
REMARK    9  A    between atoms: C_19  and  C_21
REMARK                            x       y       z     vdW  Elec       q    Type
REMARK                         _______ _______ _______ _____ _____    ______ ____
ROOT
ATOM      1  N   UNL     1       2.615   3.604  18.807  0.00  0.00    +0.000 N 
ATOM      2  C   UNL     1       3.988   3.564  18.810  0.00  0.00    +0.000 C 
ATOM      3  O   UNL     1       4.589   2.647  19.368  0.00  0.00    +0.000 OA
ATOM      4  N   UNL     1       4.645   4.593  18.142  0.00  0.00    +0.000 N 
ATOM      5  H   UNL     1       2.190   4.515  18.791  0.00  0.00    +0.000 HD
ENDROOT
BRANCH   1   7
ATOM      6  C   UNL     1       1.411   3.121  20.900  0.00  0.00    +0.000 C 
ATOM      7  C   UNL     1       1.842   2.593  19.532  0.00  0.00    +0.000 C 
ATOM      8  C   UNL     1       0.624   2.170  18.715  0.00  0.00    +0.000 C 
ENDBRANCH   1   7
BRANCH   4   9
ATOM      9  C   UNL     1       6.128   4.604  18.214  0.00  0.00    +0.000 C 
ATOM     10  C   UNL     1       6.794   4.872  16.867  0.00  0.00    +0.000 C 
ATOM     11  C   UNL     1       6.657   5.555  19.293  0.00  0.00    +0.000 C 
ENDBRANCH   4   9
BRANCH   4  12
ATOM     12  C   UNL     1       3.979   5.672  17.393  0.00  0.00    +0.000 C 
BRANCH  12  13
ATOM     13  C   UNL     1       3.290   6.687  18.252  0.00  0.00    +0.000 A 
ATOM     14  C   UNL     1       2.639   7.884  17.880  0.00  0.00    +0.000 A 
ATOM     15  C   UNL     1       1.978   8.304  19.016  0.00  0.00    +0.000 A 
ATOM     16  O   UNL     1       2.295   7.445  20.027  0.00  0.00    +0.000 OA
ATOM     17  N   UNL     1       3.100   6.429  19.553  0.00  0.00    +0.000 NA
BRANCH  15  18
ATOM     18  C   UNL     1       1.057   9.393  19.171  0.00  0.00    +0.000 A 
ATOM     19  C   UNL     1       0.505   9.901  20.336  0.00  0.00    +0.000 A 
ATOM     20  C   UNL     1      -0.390  10.935  19.963  0.00  0.00    +0.000 A 
ATOM     21  C   UNL     1      -0.332  11.008  18.594  0.00  0.00    +0.000 A 
ATOM     22  O   UNL     1       0.536  10.086  18.106  0.00  0.00    +0.000 OA
ENDBRANCH  15  18
ENDBRANCH  12  13
ENDBRANCH   4  12
TORSDOF 5
ENDMDL
MODEL 8
REMARK VINA RESULT:      -6.5      2.883      7.223
REMARK  Name = 
REMARK  9 active torsions:
REMARK  status: ('A' for Active; 'I' for Inactive)
REMARK    1  A    between atoms: C_1  and  C_2
REMARK    2  A    between atoms: C_2  and  C_3
REMARK    3  A    between atoms: C_2  and  N_4
REMARK    4  A    between atoms: N_7  and  C_8
REMARK    5  A    between atoms: N_7  and  C_19
REMARK    6  A    between atoms: C_8  and  C_9
REMARK    7  A    between atoms: C_11  and  C_12
REMARK    8  A    between atoms: C_19  and  C_20
REMARK    9  A    between atoms: C_19  and  C_21
REMARK                            x       y       z     vdW  Elec       q    Type
REMARK                         _______ _______ _______ _____ _____    ______ ____
ROOT
ATOM      1  N   UNL     1       5.795   5.412  18.648  0.00  0.00    +0.000 N 
ATOM      2  C   UNL     1       4.975   4.600  17.902  0.00  0.00    +0.000 C 
ATOM      3  O   UNL     1       5.348   4.156  16.817  0.00  0.00    +0.000 OA
ATOM      4  N   UNL     1       3.728   4.304  18.444  0.00  0.00    +0.000 N 
ATOM      5  H   UNL     1       5.345   6.102  19.224  0.00  0.00    +0.000 HD
ENDROOT
BRANCH   1   7
ATOM      6  C   UNL     1       7.013   7.193  17.461  0.00  0.00    +0.000 C 
ATOM      7  C   UNL     1       7.102   5.821  18.130  0.00  0.00    +0.000 C 
ATOM      8  C   UNL     1       8.134   5.842  19.254  0.00  0.00    +0.000 C 
ENDBRANCH   1   7
BRANCH   4   9
ATOM      9  C   UNL     1       2.804   3.499  17.606  0.00  0.00    +0.000 C 
ATOM     10  C   UNL     1       2.840   2.008  17.932  0.00  0.00    +0.000 C 
ATOM     11  C   UNL     1       1.368   4.037  17.631  0.00  0.00    +0.000 C 
ENDBRANCH   4   9
BRANCH   4  12
ATOM     12  C   UNL     1       3.258   4.744  19.768  0.00  0.00    +0.000 C 
BRANCH  12  13
ATOM     13  C   UNL     1       2.551   6.063  19.767  0.00  0.00    +0.000 A 
ATOM     14  C   UNL     1       1.642   6.596  20.708  0.00  0.00    +0.000 A 
ATOM     15  C   UNL     1       1.489   7.921  20.353  0.00  0.00    +0.000 A 
ATOM     16  O   UNL     1       2.203   8.134  19.212  0.00  0.00    +0.000 OA
ATOM     17  N   UNL     1       2.878   6.985  18.850  0.00  0.00    +0.000 NA
BRANCH  15  18
ATOM     18  C   UNL     1       0.781   8.961  21.042  0.00  0.00    +0.000 A 
ATOM     19  C   UNL     1       0.628   9.148  22.406  0.00  0.00    +0.000 A 
ATOM     20  C   UNL     1      -0.205  10.281  22.586  0.00  0.00    +0.000 A 
ATOM     21  C   UNL     1      -0.509  10.729  21.325  0.00  0.00    +0.000 A 
ATOM     22  O   UNL     1       0.079   9.944  20.388  0.00  0.00    +0.000 OA
ENDBRANCH  15  18
ENDBRANCH  12  13
ENDBRANCH   4  12
TORSDOF 5
ENDMDL
MODEL 9
REMARK VINA RESULT:      -6.5      2.328      3.789
REMARK  Name = 
REMARK  9 active torsions:
REMARK  status: ('A' for Active; 'I' for Inactive)
REMARK    1  A    between atoms: C_1  and  C_2
REMARK    2  A    between atoms: C_2  and  C_3
REMARK    3  A    between atoms: C_2  and  N_4
REMARK    4  A    between atoms: N_7  and  C_8
REMARK    5  A    between atoms: N_7  and  C_19
REMARK    6  A    between atoms: C_8  and  C_9
REMARK    7  A    between atoms: C_11  and  C_12
REMARK    8  A    between atoms: C_19  and  C_20
REMARK    9  A    between atoms: C_19  and  C_21
REMARK                            x       y       z     vdW  Elec       q    Type
REMARK                         _______ _______ _______ _____ _____    ______ ____
ROOT
ATOM      1  N   UNL     1       3.656   4.197  17.959  0.00  0.00    +0.000 N 
ATOM      2  C   UNL     1       4.893   4.454  18.499  0.00  0.00    +0.000 C 
ATOM      3  O   UNL     1       5.239   3.929  19.557  0.00  0.00    +0.000 OA
ATOM      4  N   UNL     1       5.720   5.315  17.784  0.00  0.00    +0.000 N 
ATOM      5  H   UNL     1       3.233   4.936  17.426  0.00  0.00    +0.000 HD
ENDROOT
BRANCH   1   7
ATOM      6  C   UNL     1       1.401   4.107  18.945  0.00  0.00    +0.000 C 
ATOM      7  C   UNL     1       2.699   3.347  18.671  0.00  0.00    +0.000 C 
ATOM      8  C   UNL     1       2.416   2.080  17.870  0.00  0.00    +0.000 C 
ENDBRANCH   1   7
BRANCH   4   9
ATOM      9  C   UNL     1       7.023   5.666  18.403  0.00  0.00    +0.000 C 
ATOM     10  C   UNL     1       8.105   4.614  18.166  0.00  0.00    +0.000 C 
ATOM     11  C   UNL     1       7.509   7.062  17.999  0.00  0.00    +0.000 C 
ENDBRANCH   4   9
BRANCH   4  12
ATOM     12  C   UNL     1       5.389   5.912  16.479  0.00  0.00    +0.000 C 
BRANCH  12  13
ATOM     13  C   UNL     1       6.027   5.232  15.308  0.00  0.00    +0.000 A 
ATOM     14  C   UNL     1       5.650   4.043  14.644  0.00  0.00    +0.000 A 
ATOM     15  C   UNL     1       6.423   4.006  13.502  0.00  0.00    +0.000 A 
ATOM     16  O   UNL     1       7.272   5.072  13.535  0.00  0.00    +0.000 OA
ATOM     17  N   UNL     1       7.021   5.846  14.650  0.00  0.00    +0.000 NA
BRANCH  15  18
ATOM     18  C   UNL     1       6.360   3.087  12.402  0.00  0.00    +0.000 A 
ATOM     19  C   UNL     1       5.247   2.478  11.845  0.00  0.00    +0.000 A 
ATOM     20  C   UNL     1       5.708   1.612  10.821  0.00  0.00    +0.000 A 
ATOM     21  C   UNL     1       7.073   1.745  10.803  0.00  0.00    +0.000 A 
ATOM     22  O   UNL     1       7.478   2.630  11.748  0.00  0.00    +0.000 OA
ENDBRANCH  15  18
ENDBRANCH  12  13
ENDBRANCH   4  12
TORSDOF 5
ENDMDL
