MODEL 1
REMARK VINA RESULT:      -7.4      0.000      0.000
REMARK  Name = 
REMARK  13 active torsions:
REMARK  status: ('A' for Active; 'I' for Inactive)
REMARK    1  A    between atoms: C_1  and  C_2
REMARK    2  A    between atoms: C_2  and  O_3
REMARK    3  A    between atoms: O_3  and  C_4
REMARK    4  A    between atoms: C_4  and  C_6
REMARK    5  A    between atoms: C_6  and  N_7
REMARK    6  A    between atoms: C_6  and  C_20
REMARK    7  A    between atoms: C_8  and  C_10
REMARK    8  A    between atoms: C_11  and  C_12
REMARK    9  A    between atoms: C_15  and  O_16
REMARK   10  A    between atoms: C_17  and  O_18
REMARK   11  A    between atoms: C_20  and  C_21
REMARK   12  A    between atoms: C_20  and  C_22
REMARK   13  A    between atoms: C_22  and  C_23
REMARK                            x       y       z     vdW  Elec       q    Type
REMARK                         _______ _______ _______ _____ _____    ______ ____
ROOT
ATOM      1  N   UNL     1       6.704   7.420  17.123  0.00  0.00    +0.000 N 
ATOM      2  C   UNL     1       7.733   7.747  17.972  0.00  0.00    +0.000 C 
ATOM      3  O   UNL     1       8.209   6.963  18.792  0.00  0.00    +0.000 OA
ATOM      4  H   UNL     1       6.494   8.037  16.350  0.00  0.00    +0.000 HD
ENDROOT
BRANCH   2   5
ATOM      5  C   UNL     1       8.224   9.143  17.833  0.00  0.00    +0.000 C 
ATOM      6  C   UNL     1       9.118   9.620  18.720  0.00  0.00    +0.000 C 
BRANCH   6   7
ATOM      7  C   UNL     1       9.674  10.984  18.728  0.00  0.00    +0.000 A 
ATOM      8  C   UNL     1       9.422  11.833  19.823  0.00  0.00    +0.000 A 
ATOM      9  C   UNL     1       9.991  13.113  19.898  0.00  0.00    +0.000 A 
ATOM     10  C   UNL     1      10.825  13.542  18.876  0.00  0.00    +0.000 A 
ATOM     11  C   UNL     1      11.082  12.709  17.789  0.00  0.00    +0.000 A 
ATOM     12  C   UNL     1      10.518  11.441  17.708  0.00  0.00    +0.000 A 
BRANCH  10  13
ATOM     13  O   UNL     1      11.434  14.765  18.893  0.00  0.00    +0.000 OA
ATOM     14  H   UNL     1      10.741  15.449  18.890  0.00  0.00    +0.000 HD
ENDBRANCH  10  13
BRANCH  11  15
ATOM     15  O   UNL     1      11.917  13.126  16.793  0.00  0.00    +0.000 OA
ATOM     16  H   UNL     1      11.408  13.811  16.318  0.00  0.00    +0.000 HD
ENDBRANCH  11  15
ENDBRANCH   6   7
ENDBRANCH   2   5
BRANCH   1  17
ATOM     17  C   UNL     1       6.150   6.055  17.098  0.00  0.00    +0.000 C 
BRANCH  17  18
ATOM     18  C   UNL     1       6.891   5.212  16.049  0.00  0.00    +0.000 C 
ATOM     19  O   UNL     1       7.757   4.392  16.319  0.00  0.00    +0.000 OA
BRANCH  18  20
ATOM     20  O   UNL     1       6.465   5.503  14.786  0.00  0.00    +0.000 OA
BRANCH  20  22
ATOM     21  C   UNL     1       5.887   3.689  13.260  0.00  0.00    +0.000 C 
ATOM     22  C   UNL     1       6.971   4.627  13.766  0.00  0.00    +0.000 C 
ENDBRANCH  20  22
ENDBRANCH  18  20
ENDBRANCH  17  18
BRANCH  17  23
ATOM     23  C   UNL     1       4.620   6.061  16.823  0.00  0.00    +0.000 C 
ATOM     24  C   UNL     1       3.946   4.720  17.171  0.00  0.00    +0.000 C 
BRANCH  23  25
ATOM     25  C   UNL     1       3.874   7.199  17.562  0.00  0.00    +0.000 C 
ATOM     26  C   UNL     1       2.597   6.758  18.265  0.00  0.00    +0.000 C 
ENDBRANCH  23  25
ENDBRANCH  17  23
ENDBRANCH   1  17
TORSDOF 10
ENDMDL
MODEL 2
REMARK VINA RESULT:      -7.3      0.994      1.109
REMARK  Name = 
REMARK  13 active torsions:
REMARK  status: ('A' for Active; 'I' for Inactive)
REMARK    1  A    between atoms: C_1  and  C_2
REMARK    2  A    between atoms: C_2  and  O_3
REMARK    3  A    between atoms: O_3  and  C_4
REMARK    4  A    between atoms: C_4  and  C_6
REMARK    5  A    between atoms: C_6  and  N_7
REMARK    6  A    between atoms: C_6  and  C_20
REMARK    7  A    between atoms: C_8  and  C_10
REMARK    8  A    between atoms: C_11  and  C_12
REMARK    9  A    between atoms: C_15  and  O_16
REMARK   10  A    between atoms: C_17  and  O_18
REMARK   11  A    between atoms: C_20  and  C_21
REMARK   12  A    between atoms: C_20  and  C_22
REMARK   13  A    between atoms: C_22  and  C_23
REMARK                            x       y       z     vdW  Elec       q    Type
REMARK                         _______ _______ _______ _____ _____    ______ ____
ROOT
ATOM      1  N   UNL     1       6.688   7.305  17.020  0.00  0.00    +0.000 N 
ATOM      2  C   UNL     1       7.730   7.632  17.855  0.00  0.00    +0.000 C 
ATOM      3  O   UNL     1       8.187   6.863  18.699  0.00  0.00    +0.000 OA
ATOM      4  H   UNL     1       6.493   7.900  16.227  0.00  0.00    +0.000 HD
ENDROOT
BRANCH   2   5
ATOM      5  C   UNL     1       8.259   9.008  17.666  0.00  0.00    +0.000 C 
ATOM      6  C   UNL     1       8.821   9.648  18.708  0.00  0.00    +0.000 C 
BRANCH   6   7
ATOM      7  C   UNL     1       9.364  11.018  18.682  0.00  0.00    +0.000 A 
ATOM      8  C   UNL     1      10.615  11.282  19.274  0.00  0.00    +0.000 A 
ATOM      9  C   UNL     1      11.195  12.558  19.208  0.00  0.00    +0.000 A 
ATOM     10  C   UNL     1      10.525  13.571  18.540  0.00  0.00    +0.000 A 
ATOM     11  C   UNL     1       9.288  13.318  17.950  0.00  0.00    +0.000 A 
ATOM     12  C   UNL     1       8.707  12.057  18.014  0.00  0.00    +0.000 A 
BRANCH  10  13
ATOM     13  O   UNL     1      11.040  14.831  18.414  0.00  0.00    +0.000 OA
ATOM     14  H   UNL     1      11.114  15.034  17.466  0.00  0.00    +0.000 HD
ENDBRANCH  10  13
BRANCH  11  15
ATOM     15  O   UNL     1       8.638  14.312  17.277  0.00  0.00    +0.000 OA
ATOM     16  H   UNL     1       7.892  14.555  17.860  0.00  0.00    +0.000 HD
ENDBRANCH  11  15
ENDBRANCH   6   7
ENDBRANCH   2   5
BRANCH   1  17
ATOM     17  C   UNL     1       6.096   5.956  17.045  0.00  0.00    +0.000 C 
BRANCH  17  18
ATOM     18  C   UNL     1       6.761   5.077  15.974  0.00  0.00    +0.000 C 
ATOM     19  O   UNL     1       7.841   4.523  16.119  0.00  0.00    +0.000 OA
BRANCH  18  20
ATOM     20  O   UNL     1       5.996   5.003  14.846  0.00  0.00    +0.000 OA
BRANCH  20  22
ATOM     21  C   UNL     1       6.708   4.167  12.667  0.00  0.00    +0.000 C 
ATOM     22  C   UNL     1       6.202   3.820  14.058  0.00  0.00    +0.000 C 
ENDBRANCH  20  22
ENDBRANCH  18  20
ENDBRANCH  17  18
BRANCH  17  23
ATOM     23  C   UNL     1       4.555   6.002  16.845  0.00  0.00    +0.000 C 
ATOM     24  C   UNL     1       3.841   4.766  17.425  0.00  0.00    +0.000 C 
BRANCH  23  25
ATOM     25  C   UNL     1       3.903   7.276  17.435  0.00  0.00    +0.000 C 
ATOM     26  C   UNL     1       2.760   7.004  18.402  0.00  0.00    +0.000 C 
ENDBRANCH  23  25
ENDBRANCH  17  23
ENDBRANCH   1  17
TORSDOF 10
ENDMDL
MODEL 3
REMARK VINA RESULT:      -7.1      1.198      1.355
REMARK  Name = 
REMARK  13 active torsions:
REMARK  status: ('A' for Active; 'I' for Inactive)
REMARK    1  A    between atoms: C_1  and  C_2
REMARK    2  A    between atoms: C_2  and  O_3
REMARK    3  A    between atoms: O_3  and  C_4
REMARK    4  A    between atoms: C_4  and  C_6
REMARK    5  A    between atoms: C_6  and  N_7
REMARK    6  A    between atoms: C_6  and  C_20
REMARK    7  A    between atoms: C_8  and  C_10
REMARK    8  A    between atoms: C_11  and  C_12
REMARK    9  A    between atoms: C_15  and  O_16
REMARK   10  A    between atoms: C_17  and  O_18
REMARK   11  A    between atoms: C_20  and  C_21
REMARK   12  A    between atoms: C_20  and  C_22
REMARK   13  A    between atoms: C_22  and  C_23
REMARK                            x       y       z     vdW  Elec       q    Type
REMARK                         _______ _______ _______ _____ _____    ______ ____
ROOT
ATOM      1  N   UNL     1       6.833   6.998  16.662  0.00  0.00    +0.000 N 
ATOM      2  C   UNL     1       7.626   7.457  17.687  0.00  0.00    +0.000 C 
ATOM      3  O   UNL     1       8.020   6.744  18.609  0.00  0.00    +0.000 OA
ATOM      4  H   UNL     1       6.709   7.578  15.844  0.00  0.00    +0.000 HD
ENDROOT
BRANCH   2   5
ATOM      5  C   UNL     1       7.963   8.902  17.602  0.00  0.00    +0.000 C 
ATOM      6  C   UNL     1       8.863   9.422  18.457  0.00  0.00    +0.000 C 
BRANCH   6   7
ATOM      7  C   UNL     1       9.279  10.834  18.513  0.00  0.00    +0.000 A 
ATOM      8  C   UNL     1       8.490  11.817  17.884  0.00  0.00    +0.000 A 
ATOM      9  C   UNL     1       8.816  13.179  17.975  0.00  0.00    +0.000 A 
ATOM     10  C   UNL     1       9.932  13.559  18.705  0.00  0.00    +0.000 A 
ATOM     11  C   UNL     1      10.717  12.593  19.332  0.00  0.00    +0.000 A 
ATOM     12  C   UNL     1      10.401  11.242  19.244  0.00  0.00    +0.000 A 
BRANCH  10  13
ATOM     13  O   UNL     1      10.297  14.867  18.858  0.00  0.00    +0.000 OA
ATOM     14  H   UNL     1       9.903  15.378  18.129  0.00  0.00    +0.000 HD
ENDBRANCH  10  13
BRANCH  11  15
ATOM     15  O   UNL     1      11.805  12.970  20.066  0.00  0.00    +0.000 OA
ATOM     16  H   UNL     1      11.504  13.757  20.563  0.00  0.00    +0.000 HD
ENDBRANCH  11  15
ENDBRANCH   6   7
ENDBRANCH   2   5
BRANCH   1  17
ATOM     17  C   UNL     1       6.464   5.574  16.574  0.00  0.00    +0.000 C 
BRANCH  17  18
ATOM     18  C   UNL     1       6.850   5.023  15.193  0.00  0.00    +0.000 C 
ATOM     19  O   UNL     1       7.848   5.365  14.575  0.00  0.00    +0.000 OA
BRANCH  18  20
ATOM     20  O   UNL     1       5.935   4.113  14.747  0.00  0.00    +0.000 OA
BRANCH  20  22
ATOM     21  C   UNL     1       5.066   3.662  12.513  0.00  0.00    +0.000 C 
ATOM     22  C   UNL     1       6.240   3.532  13.469  0.00  0.00    +0.000 C 
ENDBRANCH  20  22
ENDBRANCH  18  20
ENDBRANCH  17  18
BRANCH  17  23
ATOM     23  C   UNL     1       4.951   5.356  16.855  0.00  0.00    +0.000 C 
ATOM     24  C   UNL     1       4.695   4.340  17.984  0.00  0.00    +0.000 C 
BRANCH  23  25
ATOM     25  C   UNL     1       4.198   6.668  17.185  0.00  0.00    +0.000 C 
ATOM     26  C   UNL     1       3.063   6.504  18.186  0.00  0.00    +0.000 C 
ENDBRANCH  23  25
ENDBRANCH  17  23
ENDBRANCH   1  17
TORSDOF 10
ENDMDL
MODEL 4
REMARK VINA RESULT:      -7.1      0.943      1.410
REMARK  Name = 
REMARK  13 active torsions:
REMARK  status: ('A' for Active; 'I' for Inactive)
REMARK    1  A    between atoms: C_1  and  C_2
REMARK    2  A    between atoms: C_2  and  O_3
REMARK    3  A    between atoms: O_3  and  C_4
REMARK    4  A    between atoms: C_4  and  C_6
REMARK    5  A    between atoms: C_6  and  N_7
REMARK    6  A    between atoms: C_6  and  C_20
REMARK    7  A    between atoms: C_8  and  C_10
REMARK    8  A    between atoms: C_11  and  C_12
REMARK    9  A    between atoms: C_15  and  O_16
REMARK   10  A    between atoms: C_17  and  O_18
REMARK   11  A    between atoms: C_20  and  C_21
REMARK   12  A    between atoms: C_20  and  C_22
REMARK   13  A    between atoms: C_22  and  C_23
REMARK                            x       y       z     vdW  Elec       q    Type
REMARK                         _______ _______ _______ _____ _____    ______ ____
ROOT
ATOM      1  N   UNL     1       6.654   7.439  17.122  0.00  0.00    +0.000 N 
ATOM      2  C   UNL     1       7.724   7.656  17.956  0.00  0.00    +0.000 C 
ATOM      3  O   UNL     1       8.187   6.793  18.701  0.00  0.00    +0.000 OA
ATOM      4  H   UNL     1       6.450   8.119  16.403  0.00  0.00    +0.000 HD
ENDROOT
BRANCH   2   5
ATOM      5  C   UNL     1       8.278   9.034  17.898  0.00  0.00    +0.000 C 
ATOM      6  C   UNL     1       8.993   9.502  18.939  0.00  0.00    +0.000 C 
BRANCH   6   7
ATOM      7  C   UNL     1       9.581  10.850  19.039  0.00  0.00    +0.000 A 
ATOM      8  C   UNL     1      10.128  11.281  20.263  0.00  0.00    +0.000 A 
ATOM      9  C   UNL     1      10.758  12.530  20.378  0.00  0.00    +0.000 A 
ATOM     10  C   UNL     1      10.849  13.346  19.260  0.00  0.00    +0.000 A 
ATOM     11  C   UNL     1      10.312  12.926  18.045  0.00  0.00    +0.000 A 
ATOM     12  C   UNL     1       9.684  11.692  17.925  0.00  0.00    +0.000 A 
BRANCH  10  13
ATOM     13  O   UNL     1      11.470  14.563  19.291  0.00  0.00    +0.000 OA
ATOM     14  H   UNL     1      12.259  14.515  18.723  0.00  0.00    +0.000 HD
ENDBRANCH  10  13
BRANCH  11  15
ATOM     15  O   UNL     1      10.418  13.723  16.941  0.00  0.00    +0.000 OA
ATOM     16  H   UNL     1       9.985  14.560  17.201  0.00  0.00    +0.000 HD
ENDBRANCH  11  15
ENDBRANCH   6   7
ENDBRANCH   2   5
BRANCH   1  17
ATOM     17  C   UNL     1       6.034   6.107  17.021  0.00  0.00    +0.000 C 
BRANCH  17  18
ATOM     18  C   UNL     1       5.584   5.851  15.575  0.00  0.00    +0.000 C 
ATOM     19  O   UNL     1       5.122   6.712  14.840  0.00  0.00    +0.000 OA
BRANCH  18  20
ATOM     20  O   UNL     1       5.761   4.544  15.222  0.00  0.00    +0.000 OA
BRANCH  20  22
ATOM     21  C   UNL     1       5.948   3.555  13.000  0.00  0.00    +0.000 C 
ATOM     22  C   UNL     1       6.639   4.337  14.105  0.00  0.00    +0.000 C 
ENDBRANCH  20  22
ENDBRANCH  18  20
ENDBRANCH  17  18
BRANCH  17  23
ATOM     23  C   UNL     1       4.841   5.953  18.007  0.00  0.00    +0.000 C 
ATOM     24  C   UNL     1       3.719   6.976  17.750  0.00  0.00    +0.000 C 
BRANCH  23  25
ATOM     25  C   UNL     1       4.228   4.531  18.002  0.00  0.00    +0.000 C 
ATOM     26  C   UNL     1       2.745   4.489  17.661  0.00  0.00    +0.000 C 
ENDBRANCH  23  25
ENDBRANCH  17  23
ENDBRANCH   1  17
TORSDOF 10
ENDMDL
MODEL 5
REMARK VINA RESULT:      -7.0      6.448      9.988
REMARK  Name = 
REMARK  13 active torsions:
REMARK  status: ('A' for Active; 'I' for Inactive)
REMARK    1  A    between atoms: C_1  and  C_2
REMARK    2  A    between atoms: C_2  and  O_3
REMARK    3  A    between atoms: O_3  and  C_4
REMARK    4  A    between atoms: C_4  and  C_6
REMARK    5  A    between atoms: C_6  and  N_7
REMARK    6  A    between atoms: C_6  and  C_20
REMARK    7  A    between atoms: C_8  and  C_10
REMARK    8  A    between atoms: C_11  and  C_12
REMARK    9  A    between atoms: C_15  and  O_16
REMARK   10  A    between atoms: C_17  and  O_18
REMARK   11  A    between atoms: C_20  and  C_21
REMARK   12  A    between atoms: C_20  and  C_22
REMARK   13  A    between atoms: C_22  and  C_23
REMARK                            x       y       z     vdW  Elec       q    Type
REMARK                         _______ _______ _______ _____ _____    ______ ____
ROOT
ATOM      1  N   UNL     1       0.602   9.550  18.910  0.00  0.00    +0.000 N 
ATOM      2  C   UNL     1       1.759   9.506  18.171  0.00  0.00    +0.000 C 
ATOM      3  O   UNL     1       2.385  10.510  17.833  0.00  0.00    +0.000 OA
ATOM      4  H   UNL     1       0.249   8.694  19.316  0.00  0.00    +0.000 HD
ENDROOT
BRANCH   2   5
ATOM      5  C   UNL     1       2.194   8.136  17.793  0.00  0.00    +0.000 C 
ATOM      6  C   UNL     1       2.433   7.229  18.758  0.00  0.00    +0.000 C 
BRANCH   6   7
ATOM      7  C   UNL     1       2.894   5.846  18.542  0.00  0.00    +0.000 A 
ATOM      8  C   UNL     1       2.044   4.922  17.903  0.00  0.00    +0.000 A 
ATOM      9  C   UNL     1       2.473   3.617  17.618  0.00  0.00    +0.000 A 
ATOM     10  C   UNL     1       3.762   3.238  17.966  0.00  0.00    +0.000 A 
ATOM     11  C   UNL     1       4.609   4.146  18.596  0.00  0.00    +0.000 A 
ATOM     12  C   UNL     1       4.189   5.440  18.884  0.00  0.00    +0.000 A 
BRANCH  10  13
ATOM     13  O   UNL     1       4.256   1.992  17.697  0.00  0.00    +0.000 OA
ATOM     14  H   UNL     1       4.931   1.784  18.366  0.00  0.00    +0.000 HD
ENDBRANCH  10  13
BRANCH  11  15
ATOM     15  O   UNL     1       5.883   3.778  18.921  0.00  0.00    +0.000 OA
ATOM     16  H   UNL     1       6.073   4.260  19.750  0.00  0.00    +0.000 HD
ENDBRANCH  11  15
ENDBRANCH   6   7
ENDBRANCH   2   5
BRANCH   1  17
ATOM     17  C   UNL     1       0.075  10.831  19.412  0.00  0.00    +0.000 C 
BRANCH  17  18
ATOM     18  C   UNL     1       0.339  10.946  20.921  0.00  0.00    +0.000 C 
ATOM     19  O   UNL     1       1.197  11.666  21.412  0.00  0.00    +0.000 OA
BRANCH  18  20
ATOM     20  O   UNL     1      -0.497  10.138  21.636  0.00  0.00    +0.000 OA
BRANCH  20  22
ATOM     21  C   UNL     1      -1.831  11.591  23.071  0.00  0.00    +0.000 C 
ATOM     22  C   UNL     1      -0.722  10.556  22.992  0.00  0.00    +0.000 C 
ENDBRANCH  20  22
ENDBRANCH  18  20
ENDBRANCH  17  18
BRANCH  17  23
ATOM     23  C   UNL     1      -1.440  10.990  19.101  0.00  0.00    +0.000 C 
ATOM     24  C   UNL     1      -1.963  12.410  19.394  0.00  0.00    +0.000 C 
BRANCH  23  25
ATOM     25  C   UNL     1      -1.803  10.616  17.644  0.00  0.00    +0.000 C 
ATOM     26  C   UNL     1      -3.007   9.693  17.516  0.00  0.00    +0.000 C 
ENDBRANCH  23  25
ENDBRANCH  17  23
ENDBRANCH   1  17
TORSDOF 10
ENDMDL
MODEL 6
REMARK VINA RESULT:      -7.0      1.196      1.761
REMARK  Name = 
REMARK  13 active torsions:
REMARK  status: ('A' for Active; 'I' for Inactive)
REMARK    1  A    between atoms: C_1  and  C_2
REMARK    2  A    between atoms: C_2  and  O_3
REMARK    3  A    between atoms: O_3  and  C_4
REMARK    4  A    between atoms: C_4  and  C_6
REMARK    5  A    between atoms: C_6  and  N_7
REMARK    6  A    between atoms: C_6  and  C_20
REMARK    7  A    between atoms: C_8  and  C_10
REMARK    8  A    between atoms: C_11  and  C_12
REMARK    9  A    between atoms: C_15  and  O_16
REMARK   10  A    between atoms: C_17  and  O_18
REMARK   11  A    between atoms: C_20  and  C_21
REMARK   12  A    between atoms: C_20  and  C_22
REMARK   13  A    between atoms: C_22  and  C_23
REMARK                            x       y       z     vdW  Elec       q    Type
REMARK                         _______ _______ _______ _____ _____    ______ ____
ROOT
ATOM      1  N   UNL     1       6.862   7.351  17.281  0.00  0.00    +0.000 N 
ATOM      2  C   UNL     1       7.880   7.906  18.018  0.00  0.00    +0.000 C 
ATOM      3  O   UNL     1       8.486   7.299  18.900  0.00  0.00    +0.000 OA
ATOM      4  H   UNL     1       6.543   7.830  16.451  0.00  0.00    +0.000 HD
ENDROOT
BRANCH   2   5
ATOM      5  C   UNL     1       8.187   9.319  17.674  0.00  0.00    +0.000 C 
ATOM      6  C   UNL     1       9.130   9.979  18.373  0.00  0.00    +0.000 C 
BRANCH   6   7
ATOM      7  C   UNL     1       9.525  11.383  18.167  0.00  0.00    +0.000 A 
ATOM      8  C   UNL     1      10.891  11.719  18.091  0.00  0.00    +0.000 A 
ATOM      9  C   UNL     1      11.303  13.034  17.827  0.00  0.00    +0.000 A 
ATOM     10  C   UNL     1      10.343  14.016  17.629  0.00  0.00    +0.000 A 
ATOM     11  C   UNL     1       8.990  13.692  17.700  0.00  0.00    +0.000 A 
ATOM     12  C   UNL     1       8.575  12.392  17.964  0.00  0.00    +0.000 A 
BRANCH  10  13
ATOM     13  O   UNL     1      10.670  15.312  17.343  0.00  0.00    +0.000 OA
ATOM     14  H   UNL     1      11.515  15.514  17.781  0.00  0.00    +0.000 HD
ENDBRANCH  10  13
BRANCH  11  15
ATOM     15  O   UNL     1       8.047  14.656  17.487  0.00  0.00    +0.000 OA
ATOM     16  H   UNL     1       8.255  15.351  18.142  0.00  0.00    +0.000 HD
ENDBRANCH  11  15
ENDBRANCH   6   7
ENDBRANCH   2   5
BRANCH   1  17
ATOM     17  C   UNL     1       6.482   5.939  17.463  0.00  0.00    +0.000 C 
BRANCH  17  18
ATOM     18  C   UNL     1       7.061   5.093  16.319  0.00  0.00    +0.000 C 
ATOM     19  O   UNL     1       7.779   4.117  16.485  0.00  0.00    +0.000 OA
BRANCH  18  20
ATOM     20  O   UNL     1       6.676   5.574  15.101  0.00  0.00    +0.000 OA
BRANCH  20  22
ATOM     21  C   UNL     1       5.964   3.856  13.521  0.00  0.00    +0.000 C 
ATOM     22  C   UNL     1       7.086   4.772  13.982  0.00  0.00    +0.000 C 
ENDBRANCH  20  22
ENDBRANCH  18  20
ENDBRANCH  17  18
BRANCH  17  23
ATOM     23  C   UNL     1       4.940   5.767  17.554  0.00  0.00    +0.000 C 
ATOM     24  C   UNL     1       4.171   6.992  17.022  0.00  0.00    +0.000 C 
BRANCH  23  25
ATOM     25  C   UNL     1       4.425   4.502  16.825  0.00  0.00    +0.000 C 
ATOM     26  C   UNL     1       3.499   3.630  17.662  0.00  0.00    +0.000 C 
ENDBRANCH  23  25
ENDBRANCH  17  23
ENDBRANCH   1  17
TORSDOF 10
ENDMDL
MODEL 7
REMARK VINA RESULT:      -6.8      1.412      1.838
REMARK  Name = 
REMARK  13 active torsions:
REMARK  status: ('A' for Active; 'I' for Inactive)
REMARK    1  A    between atoms: C_1  and  C_2
REMARK    2  A    between atoms: C_2  and  O_3
REMARK    3  A    between atoms: O_3  and  C_4
REMARK    4  A    between atoms: C_4  and  C_6
REMARK    5  A    between atoms: C_6  and  N_7
REMARK    6  A    between atoms: C_6  and  C_20
REMARK    7  A    between atoms: C_8  and  C_10
REMARK    8  A    between atoms: C_11  and  C_12
REMARK    9  A    between atoms: C_15  and  O_16
REMARK   10  A    between atoms: C_17  and  O_18
REMARK   11  A    between atoms: C_20  and  C_21
REMARK   12  A    between atoms: C_20  and  C_22
REMARK   13  A    between atoms: C_22  and  C_23
REMARK                            x       y       z     vdW  Elec       q    Type
REMARK                         _______ _______ _______ _____ _____    ______ ____
ROOT
ATOM      1  N   UNL     1       5.936   6.412  17.677  0.00  0.00    +0.000 N 
ATOM      2  C   UNL     1       7.302   6.308  17.775  0.00  0.00    +0.000 C 
ATOM      3  O   UNL     1       7.936   5.326  17.391  0.00  0.00    +0.000 OA
ATOM      4  H   UNL     1       5.503   7.313  17.827  0.00  0.00    +0.000 HD
ENDROOT
BRANCH   2   5
ATOM      5  C   UNL     1       7.964   7.483  18.402  0.00  0.00    +0.000 C 
ATOM      6  C   UNL     1       7.907   8.679  17.787  0.00  0.00    +0.000 C 
BRANCH   6   7
ATOM      7  C   UNL     1       8.533   9.923  18.270  0.00  0.00    +0.000 A 
ATOM      8  C   UNL     1       9.349   9.891  19.417  0.00  0.00    +0.000 A 
ATOM      9  C   UNL     1      10.017  11.041  19.866  0.00  0.00    +0.000 A 
ATOM     10  C   UNL     1       9.874  12.225  19.158  0.00  0.00    +0.000 A 
ATOM     11  C   UNL     1       9.070  12.264  18.021  0.00  0.00    +0.000 A 
ATOM     12  C   UNL     1       8.403  11.129  17.572  0.00  0.00    +0.000 A 
BRANCH  10  13
ATOM     13  O   UNL     1      10.513  13.377  19.521  0.00  0.00    +0.000 OA
ATOM     14  H   UNL     1      11.460  13.273  19.324  0.00  0.00    +0.000 HD
ENDBRANCH  10  13
BRANCH  11  15
ATOM     15  O   UNL     1       8.944  13.426  17.314  0.00  0.00    +0.000 OA
ATOM     16  H   UNL     1       8.056  13.372  16.911  0.00  0.00    +0.000 HD
ENDBRANCH  11  15
ENDBRANCH   6   7
ENDBRANCH   2   5
BRANCH   1  17
ATOM     17  C   UNL     1       5.144   5.356  17.023  0.00  0.00    +0.000 C 
BRANCH  17  18
ATOM     18  C   UNL     1       5.255   5.492  15.497  0.00  0.00    +0.000 C 
ATOM     19  O   UNL     1       5.267   6.563  14.906  0.00  0.00    +0.000 OA
BRANCH  18  20
ATOM     20  O   UNL     1       5.329   4.271  14.891  0.00  0.00    +0.000 OA
BRANCH  20  22
ATOM     21  C   UNL     1       6.016   3.504  12.680  0.00  0.00    +0.000 C 
ATOM     22  C   UNL     1       6.448   4.107  14.006  0.00  0.00    +0.000 C 
ENDBRANCH  20  22
ENDBRANCH  18  20
ENDBRANCH  17  18
BRANCH  17  23
ATOM     23  C   UNL     1       3.657   5.390  17.476  0.00  0.00    +0.000 C 
ATOM     24  C   UNL     1       3.340   4.345  18.562  0.00  0.00    +0.000 C 
BRANCH  23  25
ATOM     25  C   UNL     1       3.207   6.783  17.979  0.00  0.00    +0.000 C 
ATOM     26  C   UNL     1       2.606   6.780  19.378  0.00  0.00    +0.000 C 
ENDBRANCH  23  25
ENDBRANCH  17  23
ENDBRANCH   1  17
TORSDOF 10
ENDMDL
MODEL 8
REMARK VINA RESULT:      -6.6      6.345      9.689
REMARK  Name = 
REMARK  13 active torsions:
REMARK  status: ('A' for Active; 'I' for Inactive)
REMARK    1  A    between atoms: C_1  and  C_2
REMARK    2  A    between atoms: C_2  and  O_3
REMARK    3  A    between atoms: O_3  and  C_4
REMARK    4  A    between atoms: C_4  and  C_6
REMARK    5  A    between atoms: C_6  and  N_7
REMARK    6  A    between atoms: C_6  and  C_20
REMARK    7  A    between atoms: C_8  and  C_10
REMARK    8  A    between atoms: C_11  and  C_12
REMARK    9  A    between atoms: C_15  and  O_16
REMARK   10  A    between atoms: C_17  and  O_18
REMARK   11  A    between atoms: C_20  and  C_21
REMARK   12  A    between atoms: C_20  and  C_22
REMARK   13  A    between atoms: C_22  and  C_23
REMARK                            x       y       z     vdW  Elec       q    Type
REMARK                         _______ _______ _______ _____ _____    ______ ____
ROOT
ATOM      1  N   UNL     1       0.704   9.363  18.499  0.00  0.00    +0.000 N 
ATOM      2  C   UNL     1       1.955   9.338  17.930  0.00  0.00    +0.000 C 
ATOM      3  O   UNL     1       2.472  10.315  17.390  0.00  0.00    +0.000 OA
ATOM      4  H   UNL     1       0.422   8.594  19.091  0.00  0.00    +0.000 HD
ENDROOT
BRANCH   2   5
ATOM      5  C   UNL     1       2.637   8.020  18.005  0.00  0.00    +0.000 C 
ATOM      6  C   UNL     1       2.462   7.247  19.094  0.00  0.00    +0.000 C 
BRANCH   6   7
ATOM      7  C   UNL     1       3.089   5.934  19.324  0.00  0.00    +0.000 A 
ATOM      8  C   UNL     1       2.396   4.950  20.056  0.00  0.00    +0.000 A 
ATOM      9  C   UNL     1       2.932   3.665  20.236  0.00  0.00    +0.000 A 
ATOM     10  C   UNL     1       4.163   3.362  19.673  0.00  0.00    +0.000 A 
ATOM     11  C   UNL     1       4.854   4.328  18.945  0.00  0.00    +0.000 A 
ATOM     12  C   UNL     1       4.329   5.603  18.766  0.00  0.00    +0.000 A 
BRANCH  10  13
ATOM     13  O   UNL     1       4.734   2.125  19.786  0.00  0.00    +0.000 OA
ATOM     14  H   UNL     1       5.531   2.109  19.228  0.00  0.00    +0.000 HD
ENDBRANCH  10  13
BRANCH  11  15
ATOM     15  O   UNL     1       6.056   4.022  18.376  0.00  0.00    +0.000 OA
ATOM     16  H   UNL     1       6.248   4.778  17.787  0.00  0.00    +0.000 HD
ENDBRANCH  11  15
ENDBRANCH   6   7
ENDBRANCH   2   5
BRANCH   1  17
ATOM     17  C   UNL     1      -0.073  10.613  18.557  0.00  0.00    +0.000 C 
BRANCH  17  18
ATOM     18  C   UNL     1       0.226  11.350  19.871  0.00  0.00    +0.000 C 
ATOM     19  O   UNL     1       0.591  12.516  19.933  0.00  0.00    +0.000 OA
BRANCH  18  20
ATOM     20  O   UNL     1       0.038  10.538  20.952  0.00  0.00    +0.000 OA
BRANCH  20  22
ATOM     21  C   UNL     1      -0.786  10.191  23.221  0.00  0.00    +0.000 C 
ATOM     22  C   UNL     1      -0.658  11.149  22.049  0.00  0.00    +0.000 C 
ENDBRANCH  20  22
ENDBRANCH  18  20
ENDBRANCH  17  18
BRANCH  17  23
ATOM     23  C   UNL     1      -1.598  10.348  18.405  0.00  0.00    +0.000 C 
ATOM     24  C   UNL     1      -2.455  11.579  18.757  0.00  0.00    +0.000 C 
BRANCH  23  25
ATOM     25  C   UNL     1      -1.991   9.855  16.991  0.00  0.00    +0.000 C 
ATOM     26  C   UNL     1      -2.655  10.914  16.121  0.00  0.00    +0.000 C 
ENDBRANCH  23  25
ENDBRANCH  17  23
ENDBRANCH   1  17
TORSDOF 10
ENDMDL
MODEL 9
REMARK VINA RESULT:      -6.6      6.413      9.991
REMARK  Name = 
REMARK  13 active torsions:
REMARK  status: ('A' for Active; 'I' for Inactive)
REMARK    1  A    between atoms: C_1  and  C_2
REMARK    2  A    between atoms: C_2  and  O_3
REMARK    3  A    between atoms: O_3  and  C_4
REMARK    4  A    between atoms: C_4  and  C_6
REMARK    5  A    between atoms: C_6  and  N_7
REMARK    6  A    between atoms: C_6  and  C_20
REMARK    7  A    between atoms: C_8  and  C_10
REMARK    8  A    between atoms: C_11  and  C_12
REMARK    9  A    between atoms: C_15  and  O_16
REMARK   10  A    between atoms: C_17  and  O_18
REMARK   11  A    between atoms: C_20  and  C_21
REMARK   12  A    between atoms: C_20  and  C_22
REMARK   13  A    between atoms: C_22  and  C_23
REMARK                            x       y       z     vdW  Elec       q    Type
REMARK                         _______ _______ _______ _____ _____    ______ ____
ROOT
ATOM      1  N   UNL     1       0.938   9.441  19.279  0.00  0.00    +0.000 N 
ATOM      2  C   UNL     1       1.847   8.876  18.417  0.00  0.00    +0.000 C 
ATOM      3  O   UNL     1       2.272   9.445  17.412  0.00  0.00    +0.000 OA
ATOM      4  H   UNL     1       0.782   9.007  20.178  0.00  0.00    +0.000 HD
ENDROOT
BRANCH   2   5
ATOM      5  C   UNL     1       2.273   7.502  18.789  0.00  0.00    +0.000 C 
ATOM      6  C   UNL     1       2.365   6.557  17.834  0.00  0.00    +0.000 C 
BRANCH   6   7
ATOM      7  C   UNL     1       2.747   5.151  18.051  0.00  0.00    +0.000 A 
ATOM      8  C   UNL     1       1.880   4.122  17.633  0.00  0.00    +0.000 A 
ATOM      9  C   UNL     1       2.240   2.772  17.760  0.00  0.00    +0.000 A 
ATOM     10  C   UNL     1       3.477   2.450  18.300  0.00  0.00    +0.000 A 
ATOM     11  C   UNL     1       4.340   3.462  18.715  0.00  0.00    +0.000 A 
ATOM     12  C   UNL     1       3.989   4.801  18.594  0.00  0.00    +0.000 A 
BRANCH  10  13
ATOM     13  O   UNL     1       3.905   1.159  18.432  0.00  0.00    +0.000 OA
ATOM     14  H   UNL     1       4.693   1.043  17.873  0.00  0.00    +0.000 HD
ENDBRANCH  10  13
BRANCH  11  15
ATOM     15  O   UNL     1       5.565   3.144  19.229  0.00  0.00    +0.000 OA
ATOM     16  H   UNL     1       6.203   3.561  18.618  0.00  0.00    +0.000 HD
ENDBRANCH  11  15
ENDBRANCH   6   7
ENDBRANCH   2   5
BRANCH   1  17
ATOM     17  C   UNL     1       0.467  10.823  19.078  0.00  0.00    +0.000 C 
BRANCH  17  18
ATOM     18  C   UNL     1       0.822  11.676  20.305  0.00  0.00    +0.000 C 
ATOM     19  O   UNL     1       0.230  11.617  21.373  0.00  0.00    +0.000 OA
BRANCH  18  20
ATOM     20  O   UNL     1       1.872  12.508  20.046  0.00  0.00    +0.000 OA
BRANCH  20  22
ATOM     21  C   UNL     1       2.171  14.344  18.467  0.00  0.00    +0.000 C 
ATOM     22  C   UNL     1       1.504  13.864  19.746  0.00  0.00    +0.000 C 
ENDBRANCH  20  22
ENDBRANCH  18  20
ENDBRANCH  17  18
BRANCH  17  23
ATOM     23  C   UNL     1      -1.061  10.871  18.793  0.00  0.00    +0.000 C 
ATOM     24  C   UNL     1      -1.578  12.303  18.556  0.00  0.00    +0.000 C 
BRANCH  23  25
ATOM     25  C   UNL     1      -1.484   9.985  17.597  0.00  0.00    +0.000 C 
ATOM     26  C   UNL     1      -2.984   9.739  17.499  0.00  0.00    +0.000 C 
ENDBRANCH  23  25
ENDBRANCH  17  23
ENDBRANCH   1  17
TORSDOF 10
ENDMDL
