MODEL 1
REMARK VINA RESULT:      -9.6      0.000      0.000
REMARK  Name = 
REMARK  6 active torsions:
REMARK  status: ('A' for Active; 'I' for Inactive)
REMARK    1  A    between atoms: C_1  and  N_2
REMARK    2  A    between atoms: C_3  and  C_5
REMARK    3  A    between atoms: N_13  and  C_14
REMARK    4  A    between atoms: C_14  and  C_15
REMARK    5  A    between atoms: N_22  and  C_23
REMARK    6  A    between atoms: C_23  and  C_24
REMARK                            x       y       z     vdW  Elec       q    Type
REMARK                         _______ _______ _______ _____ _____    ______ ____
ROOT
ATOM      1  C   UNL     1       5.426   5.093  15.768  0.00  0.00    +0.000 A 
ATOM      2  C   UNL     1       5.128   3.952  16.528  0.00  0.00    +0.000 A 
ATOM      3  C   UNL     1       4.398   4.018  17.708  0.00  0.00    +0.000 A 
ATOM      4  C   UNL     1       3.922   5.267  18.099  0.00  0.00    +0.000 A 
ATOM      5  C   UNL     1       4.122   6.417  17.344  0.00  0.00    +0.000 A 
ATOM      6  C   UNL     1       4.917   6.346  16.170  0.00  0.00    +0.000 A 
ATOM      7  N   UNL     1       3.468   7.477  17.932  0.00  0.00    +0.000 NA
ATOM      8  C   UNL     1       2.945   7.022  19.057  0.00  0.00    +0.000 A 
ATOM      9  N   UNL     1       2.223   7.711  19.974  0.00  0.00    +0.000 N 
ATOM     10  N   UNL     1       3.265   5.687  19.239  0.00  0.00    +0.000 N 
ATOM     11  H   UNL     1       1.811   7.201  20.748  0.00  0.00    +0.000 HD
ENDROOT
BRANCH   1  14
ATOM     12  C   UNL     1       6.698   3.748  12.436  0.00  0.00    +0.000 C 
ATOM     13  N   UNL     1       5.892   3.923  13.622  0.00  0.00    +0.000 N 
ATOM     14  C   UNL     1       6.301   4.828  14.578  0.00  0.00    +0.000 C 
ATOM     15  O   UNL     1       7.358   5.441  14.457  0.00  0.00    +0.000 OA
ATOM     16  H   UNL     1       5.038   3.396  13.717  0.00  0.00    +0.000 HD
ENDBRANCH   1  14
BRANCH   9  17
ATOM     17  C   UNL     1       1.322   8.764  19.508  0.00  0.00    +0.000 C 
BRANCH  17  18
ATOM     18  C   UNL     1       0.622   9.435  20.677  0.00  0.00    +0.000 A 
ATOM     19  C   UNL     1       0.760   8.880  21.965  0.00  0.00    +0.000 A 
ATOM     20  C   UNL     1       0.104   9.435  23.069  0.00  0.00    +0.000 A 
ATOM     21  C   UNL     1      -0.702  10.558  22.908  0.00  0.00    +0.000 A 
ATOM     22  C   UNL     1      -0.822  11.146  21.651  0.00  0.00    +0.000 A 
ATOM     23  C   UNL     1      -0.153  10.600  20.548  0.00  0.00    +0.000 A 
ATOM     24 CL   UNL     1      -0.318  11.426  19.034  0.00  0.00    +0.000 Cl
ENDBRANCH  17  18
ENDBRANCH   9  17
BRANCH  10  25
ATOM     25  C   UNL     1       3.271   4.927  20.482  0.00  0.00    +0.000 C 
BRANCH  25  26
ATOM     26  C   UNL     1       1.963   4.237  20.938  0.00  0.00    +0.000 C 
ATOM     27  C   UNL     1       0.792   4.238  19.935  0.00  0.00    +0.000 C 
ATOM     28  C   UNL     1       0.900   3.256  18.759  0.00  0.00    +0.000 C 
ATOM     29  C   UNL     1       1.478   1.882  19.088  0.00  0.00    +0.000 C 
ATOM     30  C   UNL     1       2.606   1.911  20.109  0.00  0.00    +0.000 C 
ATOM     31  C   UNL     1       2.253   2.771  21.323  0.00  0.00    +0.000 C 
ENDBRANCH  25  26
ENDBRANCH  10  25
TORSDOF 5
ENDMDL
MODEL 2
REMARK VINA RESULT:      -8.9      1.039      1.380
REMARK  Name = 
REMARK  6 active torsions:
REMARK  status: ('A' for Active; 'I' for Inactive)
REMARK    1  A    between atoms: C_1  and  N_2
REMARK    2  A    between atoms: C_3  and  C_5
REMARK    3  A    between atoms: N_13  and  C_14
REMARK    4  A    between atoms: C_14  and  C_15
REMARK    5  A    between atoms: N_22  and  C_23
REMARK    6  A    between atoms: C_23  and  C_24
REMARK                            x       y       z     vdW  Elec       q    Type
REMARK                         _______ _______ _______ _____ _____    ______ ____
ROOT
ATOM      1  C   UNL     1       5.453   5.131  15.735  0.00  0.00    +0.000 A 
ATOM      2  C   UNL     1       5.142   4.070  16.599  0.00  0.00    +0.000 A 
ATOM      3  C   UNL     1       4.363   4.245  17.735  0.00  0.00    +0.000 A 
ATOM      4  C   UNL     1       3.850   5.518  17.973  0.00  0.00    +0.000 A 
ATOM      5  C   UNL     1       4.062   6.586  17.109  0.00  0.00    +0.000 A 
ATOM      6  C   UNL     1       4.907   6.409  15.981  0.00  0.00    +0.000 A 
ATOM      7  N   UNL     1       3.366   7.688  17.555  0.00  0.00    +0.000 NA
ATOM      8  C   UNL     1       2.805   7.343  18.700  0.00  0.00    +0.000 A 
ATOM      9  N   UNL     1       2.034   8.109  19.509  0.00  0.00    +0.000 N 
ATOM     10  N   UNL     1       3.139   6.041  19.035  0.00  0.00    +0.000 N 
ATOM     11  H   UNL     1       1.599   7.675  20.316  0.00  0.00    +0.000 HD
ENDROOT
BRANCH   1  14
ATOM     12  C   UNL     1       6.792   3.711  12.461  0.00  0.00    +0.000 C 
ATOM     13  N   UNL     1       5.917   3.980  13.578  0.00  0.00    +0.000 N 
ATOM     14  C   UNL     1       6.380   4.762  14.616  0.00  0.00    +0.000 C 
ATOM     15  O   UNL     1       7.534   5.181  14.623  0.00  0.00    +0.000 OA
ATOM     16  H   UNL     1       4.979   3.609  13.568  0.00  0.00    +0.000 HD
ENDBRANCH   1  14
BRANCH   9  17
ATOM     17  C   UNL     1       1.136   9.088  18.899  0.00  0.00    +0.000 C 
BRANCH  17  18
ATOM     18  C   UNL     1       0.704  10.133  19.913  0.00  0.00    +0.000 A 
ATOM     19  C   UNL     1       0.970  11.492  19.648  0.00  0.00    +0.000 A 
ATOM     20  C   UNL     1       0.629  12.491  20.566  0.00  0.00    +0.000 A 
ATOM     21  C   UNL     1       0.013  12.153  21.767  0.00  0.00    +0.000 A 
ATOM     22  C   UNL     1      -0.295  10.820  22.032  0.00  0.00    +0.000 A 
ATOM     23  C   UNL     1       0.031   9.820  21.106  0.00  0.00    +0.000 A 
ATOM     24 CL   UNL     1      -0.434   8.198  21.496  0.00  0.00    +0.000 Cl
ENDBRANCH  17  18
ENDBRANCH   9  17
BRANCH  10  25
ATOM     25  C   UNL     1       3.107   5.417  20.351  0.00  0.00    +0.000 C 
BRANCH  25  26
ATOM     26  C   UNL     1       1.815   4.689  20.796  0.00  0.00    +0.000 C 
ATOM     27  C   UNL     1       0.793   4.350  19.692  0.00  0.00    +0.000 C 
ATOM     28  C   UNL     1       1.145   3.168  18.777  0.00  0.00    +0.000 C 
ATOM     29  C   UNL     1       1.794   1.966  19.459  0.00  0.00    +0.000 C 
ATOM     30  C   UNL     1       2.767   2.332  20.570  0.00  0.00    +0.000 C 
ATOM     31  C   UNL     1       2.180   3.376  21.520  0.00  0.00    +0.000 C 
ENDBRANCH  25  26
ENDBRANCH  10  25
TORSDOF 5
ENDMDL
MODEL 3
REMARK VINA RESULT:      -8.7      1.448      1.965
REMARK  Name = 
REMARK  6 active torsions:
REMARK  status: ('A' for Active; 'I' for Inactive)
REMARK    1  A    between atoms: C_1  and  N_2
REMARK    2  A    between atoms: C_3  and  C_5
REMARK    3  A    between atoms: N_13  and  C_14
REMARK    4  A    between atoms: C_14  and  C_15
REMARK    5  A    between atoms: N_22  and  C_23
REMARK    6  A    between atoms: C_23  and  C_24
REMARK                            x       y       z     vdW  Elec       q    Type
REMARK                         _______ _______ _______ _____ _____    ______ ____
ROOT
ATOM      1  C   UNL     1       5.607   5.192  15.550  0.00  0.00    +0.000 A 
ATOM      2  C   UNL     1       5.324   4.147  16.442  0.00  0.00    +0.000 A 
ATOM      3  C   UNL     1       4.520   4.326  17.560  0.00  0.00    +0.000 A 
ATOM      4  C   UNL     1       3.954   5.585  17.749  0.00  0.00    +0.000 A 
ATOM      5  C   UNL     1       4.138   6.633  16.855  0.00  0.00    +0.000 A 
ATOM      6  C   UNL     1       5.008   6.454  15.747  0.00  0.00    +0.000 A 
ATOM      7  N   UNL     1       3.393   7.720  17.255  0.00  0.00    +0.000 NA
ATOM      8  C   UNL     1       2.826   7.388  18.402  0.00  0.00    +0.000 A 
ATOM      9  N   UNL     1       2.013   8.149  19.175  0.00  0.00    +0.000 N 
ATOM     10  N   UNL     1       3.206   6.112  18.783  0.00  0.00    +0.000 N 
ATOM     11  H   UNL     1       1.581   7.723  19.988  0.00  0.00    +0.000 HD
ENDROOT
BRANCH   1  14
ATOM     12  C   UNL     1       7.055   3.725  12.344  0.00  0.00    +0.000 C 
ATOM     13  N   UNL     1       6.152   3.993  13.438  0.00  0.00    +0.000 N 
ATOM     14  C   UNL     1       6.567   4.825  14.457  0.00  0.00    +0.000 C 
ATOM     15  O   UNL     1       7.703   5.290  14.469  0.00  0.00    +0.000 OA
ATOM     16  H   UNL     1       5.230   3.586  13.425  0.00  0.00    +0.000 HD
ENDBRANCH   1  14
BRANCH   9  17
ATOM     17  C   UNL     1       1.087   9.072  18.520  0.00  0.00    +0.000 C 
BRANCH  17  18
ATOM     18  C   UNL     1       1.358  10.505  18.946  0.00  0.00    +0.000 A 
ATOM     19  C   UNL     1       2.118  11.336  18.100  0.00  0.00    +0.000 A 
ATOM     20  C   UNL     1       2.430  12.651  18.463  0.00  0.00    +0.000 A 
ATOM     21  C   UNL     1       1.987  13.162  19.679  0.00  0.00    +0.000 A 
ATOM     22  C   UNL     1       1.201  12.370  20.514  0.00  0.00    +0.000 A 
ATOM     23  C   UNL     1       0.875  11.058  20.144  0.00  0.00    +0.000 A 
ATOM     24 CL   UNL     1      -0.147  10.164  21.219  0.00  0.00    +0.000 Cl
ENDBRANCH  17  18
ENDBRANCH   9  17
BRANCH  10  25
ATOM     25  C   UNL     1       3.175   5.528  20.117  0.00  0.00    +0.000 C 
BRANCH  25  26
ATOM     26  C   UNL     1       1.879   4.828  20.593  0.00  0.00    +0.000 C 
ATOM     27  C   UNL     1       0.911   4.340  19.496  0.00  0.00    +0.000 C 
ATOM     28  C   UNL     1       1.321   3.069  18.739  0.00  0.00    +0.000 C 
ATOM     29  C   UNL     1       1.962   1.968  19.581  0.00  0.00    +0.000 C 
ATOM     30  C   UNL     1       2.881   2.482  20.680  0.00  0.00    +0.000 C 
ATOM     31  C   UNL     1       2.236   3.615  21.479  0.00  0.00    +0.000 C 
ENDBRANCH  25  26
ENDBRANCH  10  25
TORSDOF 5
ENDMDL
MODEL 4
REMARK VINA RESULT:      -8.6      3.286      7.870
REMARK  Name = 
REMARK  6 active torsions:
REMARK  status: ('A' for Active; 'I' for Inactive)
REMARK    1  A    between atoms: C_1  and  N_2
REMARK    2  A    between atoms: C_3  and  C_5
REMARK    3  A    between atoms: N_13  and  C_14
REMARK    4  A    between atoms: C_14  and  C_15
REMARK    5  A    between atoms: N_22  and  C_23
REMARK    6  A    between atoms: C_23  and  C_24
REMARK                            x       y       z     vdW  Elec       q    Type
REMARK                         _______ _______ _______ _____ _____    ______ ____
ROOT
ATOM      1  C   UNL     1      -0.022  10.257  20.548  0.00  0.00    +0.000 A 
ATOM      2  C   UNL     1       0.151   9.349  21.604  0.00  0.00    +0.000 A 
ATOM      3  C   UNL     1       0.929   8.206  21.477  0.00  0.00    +0.000 A 
ATOM      4  C   UNL     1       1.583   8.005  20.263  0.00  0.00    +0.000 A 
ATOM      5  C   UNL     1       1.508   8.911  19.211  0.00  0.00    +0.000 A 
ATOM      6  C   UNL     1       0.665  10.047  19.333  0.00  0.00    +0.000 A 
ATOM      7  N   UNL     1       2.321   8.492  18.181  0.00  0.00    +0.000 NA
ATOM      8  C   UNL     1       2.822   7.325  18.545  0.00  0.00    +0.000 A 
ATOM      9  N   UNL     1       3.665   6.530  17.842  0.00  0.00    +0.000 N 
ATOM     10  N   UNL     1       2.334   6.950  19.786  0.00  0.00    +0.000 N 
ATOM     11  H   UNL     1       4.035   5.700  18.293  0.00  0.00    +0.000 HD
ENDROOT
BRANCH   1  14
ATOM     12  C   UNL     1      -1.838  13.073  22.365  0.00  0.00    +0.000 C 
ATOM     13  N   UNL     1      -0.989  11.932  22.114  0.00  0.00    +0.000 N 
ATOM     14  C   UNL     1      -0.970  11.379  20.850  0.00  0.00    +0.000 C 
ATOM     15  O   UNL     1      -1.700  11.810  19.962  0.00  0.00    +0.000 OA
ATOM     16  H   UNL     1      -0.412  11.575  22.860  0.00  0.00    +0.000 HD
ENDBRANCH   1  14
BRANCH   9  17
ATOM     17  C   UNL     1       4.679   7.159  16.998  0.00  0.00    +0.000 C 
BRANCH  17  18
ATOM     18  C   UNL     1       5.526   6.110  16.296  0.00  0.00    +0.000 A 
ATOM     19  C   UNL     1       5.030   5.506  15.124  0.00  0.00    +0.000 A 
ATOM     20  C   UNL     1       5.751   4.507  14.461  0.00  0.00    +0.000 A 
ATOM     21  C   UNL     1       6.984   4.093  14.956  0.00  0.00    +0.000 A 
ATOM     22  C   UNL     1       7.511   4.705  16.091  0.00  0.00    +0.000 A 
ATOM     23  C   UNL     1       6.797   5.716  16.746  0.00  0.00    +0.000 A 
ATOM     24 CL   UNL     1       7.551   6.455  18.119  0.00  0.00    +0.000 Cl
ENDBRANCH  17  18
ENDBRANCH   9  17
BRANCH  10  25
ATOM     25  C   UNL     1       2.275   5.612  20.359  0.00  0.00    +0.000 C 
BRANCH  25  26
ATOM     26  C   UNL     1       1.199   4.627  19.840  0.00  0.00    +0.000 C 
ATOM     27  C   UNL     1       1.350   4.136  18.386  0.00  0.00    +0.000 C 
ATOM     28  C   UNL     1       2.438   3.083  18.131  0.00  0.00    +0.000 C 
ATOM     29  C   UNL     1       2.589   2.006  19.203  0.00  0.00    +0.000 C 
ATOM     30  C   UNL     1       2.395   2.514  20.625  0.00  0.00    +0.000 C 
ATOM     31  C   UNL     1       1.145   3.384  20.753  0.00  0.00    +0.000 C 
ENDBRANCH  25  26
ENDBRANCH  10  25
TORSDOF 5
ENDMDL
MODEL 5
REMARK VINA RESULT:      -8.6      0.895      1.461
REMARK  Name = 
REMARK  6 active torsions:
REMARK  status: ('A' for Active; 'I' for Inactive)
REMARK    1  A    between atoms: C_1  and  N_2
REMARK    2  A    between atoms: C_3  and  C_5
REMARK    3  A    between atoms: N_13  and  C_14
REMARK    4  A    between atoms: C_14  and  C_15
REMARK    5  A    between atoms: N_22  and  C_23
REMARK    6  A    between atoms: C_23  and  C_24
REMARK                            x       y       z     vdW  Elec       q    Type
REMARK                         _______ _______ _______ _____ _____    ______ ____
ROOT
ATOM      1  C   UNL     1       5.959   5.062  15.074  0.00  0.00    +0.000 A 
ATOM      2  C   UNL     1       5.712   3.886  15.798  0.00  0.00    +0.000 A 
ATOM      3  C   UNL     1       4.978   3.882  16.977  0.00  0.00    +0.000 A 
ATOM      4  C   UNL     1       4.443   5.096  17.403  0.00  0.00    +0.000 A 
ATOM      5  C   UNL     1       4.591   6.276  16.684  0.00  0.00    +0.000 A 
ATOM      6  C   UNL     1       5.391   6.277  15.511  0.00  0.00    +0.000 A 
ATOM      7  N   UNL     1       3.887   7.286  17.301  0.00  0.00    +0.000 NA
ATOM      8  C   UNL     1       3.384   6.774  18.410  0.00  0.00    +0.000 A 
ATOM      9  N   UNL     1       2.629   7.401  19.345  0.00  0.00    +0.000 N 
ATOM     10  N   UNL     1       3.765   5.450  18.553  0.00  0.00    +0.000 N 
ATOM     11  H   UNL     1       2.239   6.850  20.101  0.00  0.00    +0.000 HD
ENDROOT
BRANCH   1  14
ATOM     12  C   UNL     1       7.314   3.852  11.722  0.00  0.00    +0.000 C 
ATOM     13  N   UNL     1       6.500   3.955  12.911  0.00  0.00    +0.000 N 
ATOM     14  C   UNL     1       6.847   4.874  13.880  0.00  0.00    +0.000 C 
ATOM     15  O   UNL     1       7.860   5.559  13.766  0.00  0.00    +0.000 OA
ATOM     16  H   UNL     1       5.684   3.370  13.001  0.00  0.00    +0.000 HD
ENDBRANCH   1  14
BRANCH   9  17
ATOM     17  C   UNL     1       1.681   8.425  18.907  0.00  0.00    +0.000 C 
BRANCH  17  18
ATOM     18  C   UNL     1       1.013   9.090  20.098  0.00  0.00    +0.000 A 
ATOM     19  C   UNL     1       1.344   8.655  21.397  0.00  0.00    +0.000 A 
ATOM     20  C   UNL     1       0.729   9.206  22.526  0.00  0.00    +0.000 A 
ATOM     21  C   UNL     1      -0.228  10.206  22.381  0.00  0.00    +0.000 A 
ATOM     22  C   UNL     1      -0.542  10.679  21.108  0.00  0.00    +0.000 A 
ATOM     23  C   UNL     1       0.085  10.138  19.978  0.00  0.00    +0.000 A 
ATOM     24 CL   UNL     1      -0.329  10.821  18.441  0.00  0.00    +0.000 Cl
ENDBRANCH  17  18
ENDBRANCH   9  17
BRANCH  10  25
ATOM     25  C   UNL     1       3.804   4.655  19.773  0.00  0.00    +0.000 C 
BRANCH  25  26
ATOM     26  C   UNL     1       3.419   3.157  19.696  0.00  0.00    +0.000 C 
ATOM     27  C   UNL     1       3.383   2.380  21.027  0.00  0.00    +0.000 C 
ATOM     28  C   UNL     1       2.177   2.644  21.939  0.00  0.00    +0.000 C 
ATOM     29  C   UNL     1       0.830   2.798  21.236  0.00  0.00    +0.000 C 
ATOM     30  C   UNL     1       0.904   3.535  19.907  0.00  0.00    +0.000 C 
ATOM     31  C   UNL     1       2.037   3.007  19.026  0.00  0.00    +0.000 C 
ENDBRANCH  25  26
ENDBRANCH  10  25
TORSDOF 5
ENDMDL
MODEL 6
REMARK VINA RESULT:      -8.5      3.538      7.198
REMARK  Name = 
REMARK  6 active torsions:
REMARK  status: ('A' for Active; 'I' for Inactive)
REMARK    1  A    between atoms: C_1  and  N_2
REMARK    2  A    between atoms: C_3  and  C_5
REMARK    3  A    between atoms: N_13  and  C_14
REMARK    4  A    between atoms: C_14  and  C_15
REMARK    5  A    between atoms: N_22  and  C_23
REMARK    6  A    between atoms: C_23  and  C_24
REMARK                            x       y       z     vdW  Elec       q    Type
REMARK                         _______ _______ _______ _____ _____    ______ ____
ROOT
ATOM      1  C   UNL     1       0.439  10.164  19.992  0.00  0.00    +0.000 A 
ATOM      2  C   UNL     1       0.561   9.311  21.099  0.00  0.00    +0.000 A 
ATOM      3  C   UNL     1       1.248   8.107  21.034  0.00  0.00    +0.000 A 
ATOM      4  C   UNL     1       1.865   7.784  19.827  0.00  0.00    +0.000 A 
ATOM      5  C   UNL     1       1.841   8.628  18.722  0.00  0.00    +0.000 A 
ATOM      6  C   UNL     1       1.088   9.830  18.784  0.00  0.00    +0.000 A 
ATOM      7  N   UNL     1       2.602   8.087  17.710  0.00  0.00    +0.000 NA
ATOM      8  C   UNL     1       3.021   6.910  18.139  0.00  0.00    +0.000 A 
ATOM      9  N   UNL     1       3.789   6.012  17.476  0.00  0.00    +0.000 N 
ATOM     10  N   UNL     1       2.527   6.648  19.406  0.00  0.00    +0.000 N 
ATOM     11  H   UNL     1       4.104   5.185  17.972  0.00  0.00    +0.000 HD
ENDROOT
BRANCH   1  14
ATOM     12  C   UNL     1      -2.491  12.602  19.916  0.00  0.00    +0.000 C 
ATOM     13  N   UNL     1      -1.636  11.482  19.600  0.00  0.00    +0.000 N 
ATOM     14  C   UNL     1      -0.418  11.372  20.236  0.00  0.00    +0.000 C 
ATOM     15  O   UNL     1      -0.035  12.236  21.020  0.00  0.00    +0.000 OA
ATOM     16  H   UNL     1      -1.955  10.792  18.937  0.00  0.00    +0.000 HD
ENDBRANCH   1  14
BRANCH   9  17
ATOM     17  C   UNL     1       4.834   6.509  16.583  0.00  0.00    +0.000 C 
BRANCH  17  18
ATOM     18  C   UNL     1       6.106   6.817  17.355  0.00  0.00    +0.000 A 
ATOM     19  C   UNL     1       6.730   8.067  17.172  0.00  0.00    +0.000 A 
ATOM     20  C   UNL     1       7.924   8.385  17.828  0.00  0.00    +0.000 A 
ATOM     21  C   UNL     1       8.518   7.461  18.682  0.00  0.00    +0.000 A 
ATOM     22  C   UNL     1       7.897   6.234  18.908  0.00  0.00    +0.000 A 
ATOM     23  C   UNL     1       6.693   5.921  18.264  0.00  0.00    +0.000 A 
ATOM     24 CL   UNL     1       5.967   4.394  18.643  0.00  0.00    +0.000 Cl
ENDBRANCH  17  18
ENDBRANCH   9  17
BRANCH  10  25
ATOM     25  C   UNL     1       2.377   5.355  20.061  0.00  0.00    +0.000 C 
BRANCH  25  26
ATOM     26  C   UNL     1       1.237   4.415  19.599  0.00  0.00    +0.000 C 
ATOM     27  C   UNL     1       1.307   3.900  18.147  0.00  0.00    +0.000 C 
ATOM     28  C   UNL     1       2.334   2.795  17.864  0.00  0.00    +0.000 C 
ATOM     29  C   UNL     1       2.479   1.726  18.944  0.00  0.00    +0.000 C 
ATOM     30  C   UNL     1       2.366   2.259  20.365  0.00  0.00    +0.000 C 
ATOM     31  C   UNL     1       1.163   3.188  20.531  0.00  0.00    +0.000 C 
ENDBRANCH  25  26
ENDBRANCH  10  25
TORSDOF 5
ENDMDL
MODEL 7
REMARK VINA RESULT:      -8.4      3.176      6.533
REMARK  Name = 
REMARK  6 active torsions:
REMARK  status: ('A' for Active; 'I' for Inactive)
REMARK    1  A    between atoms: C_1  and  N_2
REMARK    2  A    between atoms: C_3  and  C_5
REMARK    3  A    between atoms: N_13  and  C_14
REMARK    4  A    between atoms: C_14  and  C_15
REMARK    5  A    between atoms: N_22  and  C_23
REMARK    6  A    between atoms: C_23  and  C_24
REMARK                            x       y       z     vdW  Elec       q    Type
REMARK                         _______ _______ _______ _____ _____    ______ ____
ROOT
ATOM      1  C   UNL     1       1.063   9.288  18.858  0.00  0.00    +0.000 A 
ATOM      2  C   UNL     1       1.146   8.961  20.220  0.00  0.00    +0.000 A 
ATOM      3  C   UNL     1       1.760   7.799  20.666  0.00  0.00    +0.000 A 
ATOM      4  C   UNL     1       2.345   6.973  19.709  0.00  0.00    +0.000 A 
ATOM      5  C   UNL     1       2.360   7.287  18.354  0.00  0.00    +0.000 A 
ATOM      6  C   UNL     1       1.679   8.449  17.905  0.00  0.00    +0.000 A 
ATOM      7  N   UNL     1       3.078   6.334  17.666  0.00  0.00    +0.000 NA
ATOM      8  C   UNL     1       3.430   5.416  18.548  0.00  0.00    +0.000 A 
ATOM      9  N   UNL     1       4.138   4.281  18.325  0.00  0.00    +0.000 N 
ATOM     10  N   UNL     1       2.934   5.728  19.803  0.00  0.00    +0.000 N 
ATOM     11  H   UNL     1       4.409   3.716  19.123  0.00  0.00    +0.000 HD
ENDROOT
BRANCH   1  14
ATOM     12  C   UNL     1      -1.680  11.648  17.660  0.00  0.00    +0.000 C 
ATOM     13  N   UNL     1      -0.890  10.454  17.848  0.00  0.00    +0.000 N 
ATOM     14  C   UNL     1       0.282  10.536  18.570  0.00  0.00    +0.000 C 
ATOM     15  O   UNL     1       0.682  11.612  19.004  0.00  0.00    +0.000 OA
ATOM     16  H   UNL     1      -1.220   9.581  17.466  0.00  0.00    +0.000 HD
ENDBRANCH   1  14
BRANCH   9  17
ATOM     17  C   UNL     1       5.201   4.306  17.322  0.00  0.00    +0.000 C 
BRANCH  17  18
ATOM     18  C   UNL     1       6.228   5.377  17.647  0.00  0.00    +0.000 A 
ATOM     19  C   UNL     1       7.074   5.197  18.760  0.00  0.00    +0.000 A 
ATOM     20  C   UNL     1       8.009   6.170  19.126  0.00  0.00    +0.000 A 
ATOM     21  C   UNL     1       8.120   7.344  18.386  0.00  0.00    +0.000 A 
ATOM     22  C   UNL     1       7.322   7.525  17.259  0.00  0.00    +0.000 A 
ATOM     23  C   UNL     1       6.396   6.544  16.882  0.00  0.00    +0.000 A 
ATOM     24 CL   UNL     1       5.481   6.831  15.439  0.00  0.00    +0.000 Cl
ENDBRANCH  17  18
ENDBRANCH   9  17
BRANCH  10  25
ATOM     25  C   UNL     1       2.716   4.831  20.930  0.00  0.00    +0.000 C 
BRANCH  25  26
ATOM     26  C   UNL     1       1.387   4.040  21.003  0.00  0.00    +0.000 C 
ATOM     27  C   UNL     1       0.507   4.041  19.737  0.00  0.00    +0.000 C 
ATOM     28  C   UNL     1       0.976   3.148  18.579  0.00  0.00    +0.000 C 
ATOM     29  C   UNL     1       1.550   1.789  18.975  0.00  0.00    +0.000 C 
ATOM     30  C   UNL     1       2.380   1.813  20.250  0.00  0.00    +0.000 C 
ATOM     31  C   UNL     1       1.674   2.570  21.375  0.00  0.00    +0.000 C 
ENDBRANCH  25  26
ENDBRANCH  10  25
TORSDOF 5
ENDMDL
MODEL 8
REMARK VINA RESULT:      -8.3      3.228      7.088
REMARK  Name = 
REMARK  6 active torsions:
REMARK  status: ('A' for Active; 'I' for Inactive)
REMARK    1  A    between atoms: C_1  and  N_2
REMARK    2  A    between atoms: C_3  and  C_5
REMARK    3  A    between atoms: N_13  and  C_14
REMARK    4  A    between atoms: C_14  and  C_15
REMARK    5  A    between atoms: N_22  and  C_23
REMARK    6  A    between atoms: C_23  and  C_24
REMARK                            x       y       z     vdW  Elec       q    Type
REMARK                         _______ _______ _______ _____ _____    ______ ____
ROOT
ATOM      1  C   UNL     1       0.758   9.461  19.242  0.00  0.00    +0.000 A 
ATOM      2  C   UNL     1       0.350   8.862  20.445  0.00  0.00    +0.000 A 
ATOM      3  C   UNL     1       0.921   7.688  20.918  0.00  0.00    +0.000 A 
ATOM      4  C   UNL     1       1.961   7.135  20.175  0.00  0.00    +0.000 A 
ATOM      5  C   UNL     1       2.456   7.728  19.019  0.00  0.00    +0.000 A 
ATOM      6  C   UNL     1       1.827   8.897  18.515  0.00  0.00    +0.000 A 
ATOM      7  N   UNL     1       3.533   7.006  18.553  0.00  0.00    +0.000 NA
ATOM      8  C   UNL     1       3.655   5.955  19.344  0.00  0.00    +0.000 A 
ATOM      9  N   UNL     1       4.569   4.957  19.262  0.00  0.00    +0.000 N 
ATOM     10  N   UNL     1       2.662   5.953  20.309  0.00  0.00    +0.000 N 
ATOM     11  H   UNL     1       4.592   4.261  19.999  0.00  0.00    +0.000 HD
ENDROOT
BRANCH   1  14
ATOM     12  C   UNL     1      -1.791  11.725  17.537  0.00  0.00    +0.000 C 
ATOM     13  N   UNL     1      -0.964  10.579  17.835  0.00  0.00    +0.000 N 
ATOM     14  C   UNL     1      -0.040  10.671  18.856  0.00  0.00    +0.000 C 
ATOM     15  O   UNL     1       0.120  11.722  19.470  0.00  0.00    +0.000 OA
ATOM     16  H   UNL     1      -1.091   9.730  17.307  0.00  0.00    +0.000 HD
ENDBRANCH   1  14
BRANCH   9  17
ATOM     17  C   UNL     1       5.921   5.283  18.812  0.00  0.00    +0.000 C 
BRANCH  17  18
ATOM     18  C   UNL     1       6.081   5.000  17.328  0.00  0.00    +0.000 A 
ATOM     19  C   UNL     1       5.398   3.905  16.764  0.00  0.00    +0.000 A 
ATOM     20  C   UNL     1       5.542   3.578  15.412  0.00  0.00    +0.000 A 
ATOM     21  C   UNL     1       6.371   4.340  14.594  0.00  0.00    +0.000 A 
ATOM     22  C   UNL     1       7.025   5.451  15.122  0.00  0.00    +0.000 A 
ATOM     23  C   UNL     1       6.869   5.789  16.473  0.00  0.00    +0.000 A 
ATOM     24 CL   UNL     1       7.680   7.215  17.031  0.00  0.00    +0.000 Cl
ENDBRANCH  17  18
ENDBRANCH   9  17
BRANCH  10  25
ATOM     25  C   UNL     1       2.167   4.823  21.085  0.00  0.00    +0.000 C 
BRANCH  25  26
ATOM     26  C   UNL     1       1.090   3.905  20.457  0.00  0.00    +0.000 C 
ATOM     27  C   UNL     1       0.824   4.078  18.948  0.00  0.00    +0.000 C 
ATOM     28  C   UNL     1       1.878   3.492  17.998  0.00  0.00    +0.000 C 
ATOM     29  C   UNL     1       2.471   2.146  18.406  0.00  0.00    +0.000 C 
ATOM     30  C   UNL     1       2.685   1.991  19.905  0.00  0.00    +0.000 C 
ATOM     31  C   UNL     1       1.457   2.426  20.704  0.00  0.00    +0.000 C 
ENDBRANCH  25  26
ENDBRANCH  10  25
TORSDOF 5
ENDMDL
MODEL 9
REMARK VINA RESULT:      -8.1      3.280      7.925
REMARK  Name = 
REMARK  6 active torsions:
REMARK  status: ('A' for Active; 'I' for Inactive)
REMARK    1  A    between atoms: C_1  and  N_2
REMARK    2  A    between atoms: C_3  and  C_5
REMARK    3  A    between atoms: N_13  and  C_14
REMARK    4  A    between atoms: C_14  and  C_15
REMARK    5  A    between atoms: N_22  and  C_23
REMARK    6  A    between atoms: C_23  and  C_24
REMARK                            x       y       z     vdW  Elec       q    Type
REMARK                         _______ _______ _______ _____ _____    ______ ____
ROOT
ATOM      1  C   UNL     1       2.035   8.367  18.756  0.00  0.00    +0.000 A 
ATOM      2  C   UNL     1       2.177   7.517  19.864  0.00  0.00    +0.000 A 
ATOM      3  C   UNL     1       2.964   6.375  19.824  0.00  0.00    +0.000 A 
ATOM      4  C   UNL     1       3.660   6.115  18.645  0.00  0.00    +0.000 A 
ATOM      5  C   UNL     1       3.617   6.964  17.545  0.00  0.00    +0.000 A 
ATOM      6  C   UNL     1       2.764   8.098  17.578  0.00  0.00    +0.000 A 
ATOM      7  N   UNL     1       4.466   6.497  16.567  0.00  0.00    +0.000 NA
ATOM      8  C   UNL     1       4.961   5.355  17.008  0.00  0.00    +0.000 A 
ATOM      9  N   UNL     1       5.832   4.530  16.377  0.00  0.00    +0.000 N 
ATOM     10  N   UNL     1       4.433   5.042  18.250  0.00  0.00    +0.000 N 
ATOM     11  H   UNL     1       6.191   3.728  16.883  0.00  0.00    +0.000 HD
ENDROOT
BRANCH   1  14
ATOM     12  C   UNL     1       0.052  11.176  20.401  0.00  0.00    +0.000 C 
ATOM     13  N   UNL     1       0.911  10.028  20.229  0.00  0.00    +0.000 N 
ATOM     14  C   UNL     1       1.070   9.497  18.967  0.00  0.00    +0.000 C 
ATOM     15  O   UNL     1       0.454   9.952  18.008  0.00  0.00    +0.000 OA
ATOM     16  H   UNL     1       1.393   9.652  21.031  0.00  0.00    +0.000 HD
ENDBRANCH   1  14
BRANCH   9  17
ATOM     17  C   UNL     1       6.871   5.121  15.535  0.00  0.00    +0.000 C 
BRANCH  17  18
ATOM     18  C   UNL     1       6.755   4.625  14.104  0.00  0.00    +0.000 A 
ATOM     19  C   UNL     1       5.672   3.794  13.754  0.00  0.00    +0.000 A 
ATOM     20  C   UNL     1       5.541   3.279  12.460  0.00  0.00    +0.000 A 
ATOM     21  C   UNL     1       6.488   3.585  11.488  0.00  0.00    +0.000 A 
ATOM     22  C   UNL     1       7.545   4.437  11.801  0.00  0.00    +0.000 A 
ATOM     23  C   UNL     1       7.669   4.967  13.092  0.00  0.00    +0.000 A 
ATOM     24 CL   UNL     1       8.985   6.056  13.377  0.00  0.00    +0.000 Cl
ENDBRANCH  17  18
ENDBRANCH   9  17
BRANCH  10  25
ATOM     25  C   UNL     1       4.363   3.735  18.890  0.00  0.00    +0.000 C 
BRANCH  25  26
ATOM     26  C   UNL     1       3.654   2.579  18.144  0.00  0.00    +0.000 C 
ATOM     27  C   UNL     1       3.023   1.474  19.015  0.00  0.00    +0.000 C 
ATOM     28  C   UNL     1       1.705   1.829  19.717  0.00  0.00    +0.000 C 
ATOM     29  C   UNL     1       0.718   2.663  18.904  0.00  0.00    +0.000 C 
ATOM     30  C   UNL     1       1.374   3.719  18.026  0.00  0.00    +0.000 C 
ATOM     31  C   UNL     1       2.548   3.148  17.230  0.00  0.00    +0.000 C 
ENDBRANCH  25  26
ENDBRANCH  10  25
TORSDOF 5
ENDMDL
