MODEL 1
REMARK VINA RESULT:      -6.2      0.000      0.000
REMARK  Name = 
REMARK  8 active torsions:
REMARK  status: ('A' for Active; 'I' for Inactive)
REMARK    1  A    between atoms: C_1  and  C_2
REMARK    2  A    between atoms: N_5  and  C_6
REMARK    3  A    between atoms: C_6  and  C_7
REMARK    4  A    between atoms: C_7  and  C_8
REMARK    5  A    between atoms: C_7  and  N_9
REMARK    6  A    between atoms: N_9  and  C_10
REMARK    7  A    between atoms: C_10  and  C_11
REMARK    8  A    between atoms: C_11  and  N_12
REMARK                            x       y       z     vdW  Elec       q    Type
REMARK                         _______ _______ _______ _____ _____    ______ ____
ROOT
ATOM      1  C   UNL     1       6.496   5.896  17.664  0.00  0.00    +0.000 C 
ATOM      2  C   UNL     1       7.373   7.144  17.499  0.00  0.00    +0.000 C 
ENDROOT
BRANCH   1   3
ATOM      3  N   UNL     1       5.143   6.238  17.155  0.00  0.00    +0.000 NA
ATOM      4  H   UNL     1       4.862   5.555  16.450  0.00  0.00    +0.000 HD
BRANCH   3   5
ATOM      5  C   UNL     1       4.102   6.299  18.197  0.00  0.00    +0.000 C 
BRANCH   5   6
ATOM      6  C   UNL     1       4.297   5.298  19.340  0.00  0.00    +0.000 C 
BRANCH   6   7
ATOM      7  N   UNL     1       3.949   3.950  18.951  0.00  0.00    +0.000 N 
ATOM      8  C   UNL     1       4.210   2.795  19.619  0.00  0.00    +0.000 A 
ATOM      9  N   UNL     1       3.816   1.772  18.897  0.00  0.00    +0.000 NA
ATOM     10  C   UNL     1       3.324   2.367  17.767  0.00  0.00    +0.000 A 
ATOM     11  N   UNL     1       3.373   3.701  17.759  0.00  0.00    +0.000 NA
ENDBRANCH   6   7
ENDBRANCH   5   6
ENDBRANCH   3   5
ENDBRANCH   1   3
BRANCH   1  12
ATOM     12  C   UNL     1       7.123   4.675  16.961  0.00  0.00    +0.000 C 
BRANCH  12  17
ATOM     13  C   UNL     1       5.741   3.241  12.377  0.00  0.00    +0.000 C 
ATOM     14  C   UNL     1       6.335   3.971  13.517  0.00  0.00    +0.000 A 
ATOM     15  C   UNL     1       7.326   4.977  13.490  0.00  0.00    +0.000 A 
ATOM     16  N   UNL     1       7.671   5.389  14.714  0.00  0.00    +0.000 NA
ATOM     17  N   UNL     1       6.905   4.639  15.527  0.00  0.00    +0.000 N 
ATOM     18  C   UNL     1       6.067   3.798  14.858  0.00  0.00    +0.000 A 
ENDBRANCH  12  17
ENDBRANCH   1  12
TORSDOF 6
ENDMDL
MODEL 2
REMARK VINA RESULT:      -6.2      1.628      2.391
REMARK  Name = 
REMARK  8 active torsions:
REMARK  status: ('A' for Active; 'I' for Inactive)
REMARK    1  A    between atoms: C_1  and  C_2
REMARK    2  A    between atoms: N_5  and  C_6
REMARK    3  A    between atoms: C_6  and  C_7
REMARK    4  A    between atoms: C_7  and  C_8
REMARK    5  A    between atoms: C_7  and  N_9
REMARK    6  A    between atoms: N_9  and  C_10
REMARK    7  A    between atoms: C_10  and  C_11
REMARK    8  A    between atoms: C_11  and  N_12
REMARK                            x       y       z     vdW  Elec       q    Type
REMARK                         _______ _______ _______ _____ _____    ______ ____
ROOT
ATOM      1  C   UNL     1       5.812   4.574  18.154  0.00  0.00    +0.000 C 
ATOM      2  C   UNL     1       4.725   5.338  17.387  0.00  0.00    +0.000 C 
ENDROOT
BRANCH   1   3
ATOM      3  N   UNL     1       5.216   3.290  18.603  0.00  0.00    +0.000 NA
ATOM      4  H   UNL     1       5.035   3.332  19.608  0.00  0.00    +0.000 HD
BRANCH   3   5
ATOM      5  C   UNL     1       3.966   2.929  17.911  0.00  0.00    +0.000 C 
BRANCH   5   6
ATOM      6  C   UNL     1       2.943   2.207  18.794  0.00  0.00    +0.000 C 
BRANCH   6   7
ATOM      7  N   UNL     1       2.660   2.934  20.010  0.00  0.00    +0.000 N 
ATOM      8  C   UNL     1       2.497   2.434  21.263  0.00  0.00    +0.000 A 
ATOM      9  N   UNL     1       2.160   3.404  22.082  0.00  0.00    +0.000 NA
ATOM     10  C   UNL     1       2.116   4.496  21.260  0.00  0.00    +0.000 A 
ATOM     11  N   UNL     1       2.427   4.261  19.983  0.00  0.00    +0.000 NA
ENDBRANCH   6   7
ENDBRANCH   5   6
ENDBRANCH   3   5
ENDBRANCH   1   3
BRANCH   1  12
ATOM     12  C   UNL     1       7.080   4.393  17.295  0.00  0.00    +0.000 C 
BRANCH  12  17
ATOM     13  C   UNL     1       5.911   3.371  12.545  0.00  0.00    +0.000 C 
ATOM     14  C   UNL     1       6.381   4.034  13.779  0.00  0.00    +0.000 A 
ATOM     15  C   UNL     1       7.174   5.196  13.900  0.00  0.00    +0.000 A 
ATOM     16  N   UNL     1       7.458   5.493  15.172  0.00  0.00    +0.000 NA
ATOM     17  N   UNL     1       6.851   4.514  15.868  0.00  0.00    +0.000 N 
ATOM     18  C   UNL     1       6.167   3.635  15.081  0.00  0.00    +0.000 A 
ENDBRANCH  12  17
ENDBRANCH   1  12
TORSDOF 6
ENDMDL
MODEL 3
REMARK VINA RESULT:      -6.2      1.562      1.862
REMARK  Name = 
REMARK  8 active torsions:
REMARK  status: ('A' for Active; 'I' for Inactive)
REMARK    1  A    between atoms: C_1  and  C_2
REMARK    2  A    between atoms: N_5  and  C_6
REMARK    3  A    between atoms: C_6  and  C_7
REMARK    4  A    between atoms: C_7  and  C_8
REMARK    5  A    between atoms: C_7  and  N_9
REMARK    6  A    between atoms: N_9  and  C_10
REMARK    7  A    between atoms: C_10  and  C_11
REMARK    8  A    between atoms: C_11  and  N_12
REMARK                            x       y       z     vdW  Elec       q    Type
REMARK                         _______ _______ _______ _____ _____    ______ ____
ROOT
ATOM      1  C   UNL     1       7.204   5.115  17.502  0.00  0.00    +0.000 C 
ATOM      2  C   UNL     1       7.730   6.140  18.515  0.00  0.00    +0.000 C 
ENDROOT
BRANCH   1   3
ATOM      3  N   UNL     1       6.533   4.037  18.273  0.00  0.00    +0.000 NA
ATOM      4  H   UNL     1       6.802   4.105  19.256  0.00  0.00    +0.000 HD
BRANCH   3   5
ATOM      5  C   UNL     1       5.062   4.055  18.182  0.00  0.00    +0.000 C 
BRANCH   5   6
ATOM      6  C   UNL     1       4.348   3.524  19.429  0.00  0.00    +0.000 C 
BRANCH   6   7
ATOM      7  N   UNL     1       2.963   3.201  19.171  0.00  0.00    +0.000 N 
ATOM      8  C   UNL     1       2.323   3.169  17.973  0.00  0.00    +0.000 A 
ATOM      9  N   UNL     1       1.048   2.921  18.164  0.00  0.00    +0.000 NA
ATOM     10  C   UNL     1       0.956   2.823  19.525  0.00  0.00    +0.000 A 
ATOM     11  N   UNL     1       2.106   2.974  20.185  0.00  0.00    +0.000 NA
ENDBRANCH   6   7
ENDBRANCH   5   6
ENDBRANCH   3   5
ENDBRANCH   1   3
BRANCH   1  12
ATOM     12  C   UNL     1       6.286   5.782  16.457  0.00  0.00    +0.000 C 
BRANCH  12  17
ATOM     13  C   UNL     1       5.787   3.096  12.272  0.00  0.00    +0.000 C 
ATOM     14  C   UNL     1       6.257   4.052  13.297  0.00  0.00    +0.000 A 
ATOM     15  C   UNL     1       7.482   4.752  13.345  0.00  0.00    +0.000 A 
ATOM     16  N   UNL     1       7.603   5.500  14.446  0.00  0.00    +0.000 NA
ATOM     17  N   UNL     1       6.455   5.273  15.109  0.00  0.00    +0.000 N 
ATOM     18  C   UNL     1       5.603   4.438  14.448  0.00  0.00    +0.000 A 
ENDBRANCH  12  17
ENDBRANCH   1  12
TORSDOF 6
ENDMDL
MODEL 4
REMARK VINA RESULT:      -6.1      1.081      1.099
REMARK  Name = 
REMARK  8 active torsions:
REMARK  status: ('A' for Active; 'I' for Inactive)
REMARK    1  A    between atoms: C_1  and  C_2
REMARK    2  A    between atoms: N_5  and  C_6
REMARK    3  A    between atoms: C_6  and  C_7
REMARK    4  A    between atoms: C_7  and  C_8
REMARK    5  A    between atoms: C_7  and  N_9
REMARK    6  A    between atoms: N_9  and  C_10
REMARK    7  A    between atoms: C_10  and  C_11
REMARK    8  A    between atoms: C_11  and  N_12
REMARK                            x       y       z     vdW  Elec       q    Type
REMARK                         _______ _______ _______ _____ _____    ______ ____
ROOT
ATOM      1  C   UNL     1       6.599   5.983  17.658  0.00  0.00    +0.000 C 
ATOM      2  C   UNL     1       7.706   7.004  17.947  0.00  0.00    +0.000 C 
ENDROOT
BRANCH   1   3
ATOM      3  N   UNL     1       5.559   6.676  16.855  0.00  0.00    +0.000 NA
ATOM      4  H   UNL     1       5.602   6.348  15.888  0.00  0.00    +0.000 HD
BRANCH   3   5
ATOM      5  C   UNL     1       4.185   6.493  17.357  0.00  0.00    +0.000 C 
BRANCH   5   6
ATOM      6  C   UNL     1       4.100   5.790  18.715  0.00  0.00    +0.000 C 
BRANCH   6   7
ATOM      7  N   UNL     1       3.045   4.803  18.754  0.00  0.00    +0.000 N 
ATOM      8  C   UNL     1       2.958   3.706  19.552  0.00  0.00    +0.000 A 
ATOM      9  N   UNL     1       1.895   3.008  19.223  0.00  0.00    +0.000 NA
ATOM     10  C   UNL     1       1.365   3.728  18.187  0.00  0.00    +0.000 A 
ATOM     11  N   UNL     1       2.028   4.842  17.871  0.00  0.00    +0.000 NA
ENDBRANCH   6   7
ENDBRANCH   5   6
ENDBRANCH   3   5
ENDBRANCH   1   3
BRANCH   1  12
ATOM     12  C   UNL     1       7.165   4.723  16.971  0.00  0.00    +0.000 C 
BRANCH  12  17
ATOM     13  C   UNL     1       5.728   3.249  12.417  0.00  0.00    +0.000 C 
ATOM     14  C   UNL     1       6.338   3.988  13.542  0.00  0.00    +0.000 A 
ATOM     15  C   UNL     1       7.334   4.988  13.495  0.00  0.00    +0.000 A 
ATOM     16  N   UNL     1       7.694   5.411  14.711  0.00  0.00    +0.000 NA
ATOM     17  N   UNL     1       6.932   4.674  15.540  0.00  0.00    +0.000 N 
ATOM     18  C   UNL     1       6.082   3.830  14.887  0.00  0.00    +0.000 A 
ENDBRANCH  12  17
ENDBRANCH   1  12
TORSDOF 6
ENDMDL
MODEL 5
REMARK VINA RESULT:      -6.1      1.199      1.265
REMARK  Name = 
REMARK  8 active torsions:
REMARK  status: ('A' for Active; 'I' for Inactive)
REMARK    1  A    between atoms: C_1  and  C_2
REMARK    2  A    between atoms: N_5  and  C_6
REMARK    3  A    between atoms: C_6  and  C_7
REMARK    4  A    between atoms: C_7  and  C_8
REMARK    5  A    between atoms: C_7  and  N_9
REMARK    6  A    between atoms: N_9  and  C_10
REMARK    7  A    between atoms: C_10  and  C_11
REMARK    8  A    between atoms: C_11  and  N_12
REMARK                            x       y       z     vdW  Elec       q    Type
REMARK                         _______ _______ _______ _____ _____    ______ ____
ROOT
ATOM      1  C   UNL     1       6.665   4.629  17.636  0.00  0.00    +0.000 C 
ATOM      2  C   UNL     1       7.766   5.414  18.361  0.00  0.00    +0.000 C 
ENDROOT
BRANCH   1   3
ATOM      3  N   UNL     1       5.735   4.113  18.673  0.00  0.00    +0.000 NA
ATOM      4  H   UNL     1       6.235   3.468  19.288  0.00  0.00    +0.000 HD
BRANCH   3   5
ATOM      5  C   UNL     1       5.106   5.162  19.497  0.00  0.00    +0.000 C 
BRANCH   5   6
ATOM      6  C   UNL     1       3.577   5.090  19.547  0.00  0.00    +0.000 C 
BRANCH   6   7
ATOM      7  N   UNL     1       3.071   3.840  19.028  0.00  0.00    +0.000 N 
ATOM      8  C   UNL     1       2.662   2.750  19.729  0.00  0.00    +0.000 A 
ATOM      9  N   UNL     1       2.358   1.782  18.895  0.00  0.00    +0.000 NA
ATOM     10  C   UNL     1       2.619   2.337  17.673  0.00  0.00    +0.000 A 
ATOM     11  N   UNL     1       3.046   3.601  17.702  0.00  0.00    +0.000 NA
ENDBRANCH   6   7
ENDBRANCH   5   6
ENDBRANCH   3   5
ENDBRANCH   1   3
BRANCH   1  12
ATOM     12  C   UNL     1       5.970   5.498  16.568  0.00  0.00    +0.000 C 
BRANCH  12  17
ATOM     13  C   UNL     1       5.882   3.148  12.158  0.00  0.00    +0.000 C 
ATOM     14  C   UNL     1       6.241   4.028  13.290  0.00  0.00    +0.000 A 
ATOM     15  C   UNL     1       7.439   4.748  13.492  0.00  0.00    +0.000 A 
ATOM     16  N   UNL     1       7.451   5.407  14.655  0.00  0.00    +0.000 NA
ATOM     17  N   UNL     1       6.260   5.103  15.203  0.00  0.00    +0.000 N 
ATOM     18  C   UNL     1       5.488   4.306  14.410  0.00  0.00    +0.000 A 
ENDBRANCH  12  17
ENDBRANCH   1  12
TORSDOF 6
ENDMDL
MODEL 6
REMARK VINA RESULT:      -6.1      1.650      1.847
REMARK  Name = 
REMARK  8 active torsions:
REMARK  status: ('A' for Active; 'I' for Inactive)
REMARK    1  A    between atoms: C_1  and  C_2
REMARK    2  A    between atoms: N_5  and  C_6
REMARK    3  A    between atoms: C_6  and  C_7
REMARK    4  A    between atoms: C_7  and  C_8
REMARK    5  A    between atoms: C_7  and  N_9
REMARK    6  A    between atoms: N_9  and  C_10
REMARK    7  A    between atoms: C_10  and  C_11
REMARK    8  A    between atoms: C_11  and  N_12
REMARK                            x       y       z     vdW  Elec       q    Type
REMARK                         _______ _______ _______ _____ _____    ______ ____
ROOT
ATOM      1  C   UNL     1       7.114   5.191  17.558  0.00  0.00    +0.000 C 
ATOM      2  C   UNL     1       7.678   6.390  18.331  0.00  0.00    +0.000 C 
ENDROOT
BRANCH   1   3
ATOM      3  N   UNL     1       6.588   4.229  18.559  0.00  0.00    +0.000 NA
ATOM      4  H   UNL     1       6.881   4.517  19.494  0.00  0.00    +0.000 HD
BRANCH   3   5
ATOM      5  C   UNL     1       5.121   4.083  18.545  0.00  0.00    +0.000 C 
BRANCH   5   6
ATOM      6  C   UNL     1       4.397   4.913  19.609  0.00  0.00    +0.000 C 
BRANCH   6   7
ATOM      7  N   UNL     1       3.013   4.525  19.757  0.00  0.00    +0.000 N 
ATOM      8  C   UNL     1       2.230   4.628  20.864  0.00  0.00    +0.000 A 
ATOM      9  N   UNL     1       1.060   4.083  20.625  0.00  0.00    +0.000 NA
ATOM     10  C   UNL     1       1.186   3.639  19.338  0.00  0.00    +0.000 A 
ATOM     11  N   UNL     1       2.360   3.898  18.759  0.00  0.00    +0.000 NA
ENDBRANCH   6   7
ENDBRANCH   5   6
ENDBRANCH   3   5
ENDBRANCH   1   3
BRANCH   1  12
ATOM     12  C   UNL     1       6.059   5.638  16.525  0.00  0.00    +0.000 C 
BRANCH  12  17
ATOM     13  C   UNL     1       5.953   3.110  12.215  0.00  0.00    +0.000 C 
ATOM     14  C   UNL     1       6.308   4.045  13.303  0.00  0.00    +0.000 A 
ATOM     15  C   UNL     1       7.486   4.810  13.450  0.00  0.00    +0.000 A 
ATOM     16  N   UNL     1       7.501   5.516  14.584  0.00  0.00    +0.000 NA
ATOM     17  N   UNL     1       6.333   5.197  15.170  0.00  0.00    +0.000 N 
ATOM     18  C   UNL     1       5.570   4.345  14.428  0.00  0.00    +0.000 A 
ENDBRANCH  12  17
ENDBRANCH   1  12
TORSDOF 6
ENDMDL
MODEL 7
REMARK VINA RESULT:      -6.1      1.736      5.870
REMARK  Name = 
REMARK  8 active torsions:
REMARK  status: ('A' for Active; 'I' for Inactive)
REMARK    1  A    between atoms: C_1  and  C_2
REMARK    2  A    between atoms: N_5  and  C_6
REMARK    3  A    between atoms: C_6  and  C_7
REMARK    4  A    between atoms: C_7  and  C_8
REMARK    5  A    between atoms: C_7  and  N_9
REMARK    6  A    between atoms: N_9  and  C_10
REMARK    7  A    between atoms: C_10  and  C_11
REMARK    8  A    between atoms: C_11  and  N_12
REMARK                            x       y       z     vdW  Elec       q    Type
REMARK                         _______ _______ _______ _____ _____    ______ ____
ROOT
ATOM      1  C   UNL     1       3.845   5.577  17.497  0.00  0.00    +0.000 C 
ATOM      2  C   UNL     1       2.797   6.466  18.178  0.00  0.00    +0.000 C 
ENDROOT
BRANCH   1   3
ATOM      3  N   UNL     1       5.108   5.714  18.268  0.00  0.00    +0.000 NA
ATOM      4  H   UNL     1       4.889   5.888  19.250  0.00  0.00    +0.000 HD
BRANCH   3   5
ATOM      5  C   UNL     1       6.000   4.544  18.180  0.00  0.00    +0.000 C 
BRANCH   5   6
ATOM      6  C   UNL     1       7.248   4.766  17.321  0.00  0.00    +0.000 C 
BRANCH   6   7
ATOM      7  N   UNL     1       6.972   4.626  15.909  0.00  0.00    +0.000 N 
ATOM      8  C   UNL     1       6.172   3.711  15.301  0.00  0.00    +0.000 A 
ATOM      9  N   UNL     1       6.254   3.853  13.999  0.00  0.00    +0.000 NA
ATOM     10  C   UNL     1       7.147   4.880  13.859  0.00  0.00    +0.000 A 
ATOM     11  N   UNL     1       7.605   5.395  15.002  0.00  0.00    +0.000 NA
ENDBRANCH   6   7
ENDBRANCH   5   6
ENDBRANCH   3   5
ENDBRANCH   1   3
BRANCH   1  12
ATOM     12  C   UNL     1       3.353   4.119  17.384  0.00  0.00    +0.000 C 
BRANCH  12  17
ATOM     13  C   UNL     1       1.539   2.543  21.766  0.00  0.00    +0.000 C 
ATOM     14  C   UNL     1       1.674   2.975  20.358  0.00  0.00    +0.000 A 
ATOM     15  C   UNL     1       0.737   2.844  19.310  0.00  0.00    +0.000 A 
ATOM     16  N   UNL     1       1.206   3.298  18.144  0.00  0.00    +0.000 NA
ATOM     17  N   UNL     1       2.450   3.715  18.444  0.00  0.00    +0.000 N 
ATOM     18  C   UNL     1       2.765   3.571  19.763  0.00  0.00    +0.000 A 
ENDBRANCH  12  17
ENDBRANCH   1  12
TORSDOF 6
ENDMDL
MODEL 8
REMARK VINA RESULT:      -6.0      1.871      5.736
REMARK  Name = 
REMARK  8 active torsions:
REMARK  status: ('A' for Active; 'I' for Inactive)
REMARK    1  A    between atoms: C_1  and  C_2
REMARK    2  A    between atoms: N_5  and  C_6
REMARK    3  A    between atoms: C_6  and  C_7
REMARK    4  A    between atoms: C_7  and  C_8
REMARK    5  A    between atoms: C_7  and  N_9
REMARK    6  A    between atoms: N_9  and  C_10
REMARK    7  A    between atoms: C_10  and  C_11
REMARK    8  A    between atoms: C_11  and  N_12
REMARK                            x       y       z     vdW  Elec       q    Type
REMARK                         _______ _______ _______ _____ _____    ______ ____
ROOT
ATOM      1  C   UNL     1       4.250   6.000  17.561  0.00  0.00    +0.000 C 
ATOM      2  C   UNL     1       4.507   7.002  16.429  0.00  0.00    +0.000 C 
ENDROOT
BRANCH   1   3
ATOM      3  N   UNL     1       5.492   5.921  18.371  0.00  0.00    +0.000 NA
ATOM      4  H   UNL     1       5.278   6.146  19.344  0.00  0.00    +0.000 HD
BRANCH   3   5
ATOM      5  C   UNL     1       6.162   4.608  18.324  0.00  0.00    +0.000 C 
BRANCH   5   6
ATOM      6  C   UNL     1       7.385   4.559  17.403  0.00  0.00    +0.000 C 
BRANCH   6   7
ATOM      7  N   UNL     1       7.017   4.507  16.007  0.00  0.00    +0.000 N 
ATOM      8  C   UNL     1       6.138   3.663  15.406  0.00  0.00    +0.000 A 
ATOM      9  N   UNL     1       6.147   3.870  14.110  0.00  0.00    +0.000 NA
ATOM     10  C   UNL     1       7.080   4.860  13.965  0.00  0.00    +0.000 A 
ATOM     11  N   UNL     1       7.631   5.292  15.101  0.00  0.00    +0.000 NA
ENDBRANCH   6   7
ENDBRANCH   5   6
ENDBRANCH   3   5
ENDBRANCH   1   3
BRANCH   1  12
ATOM     12  C   UNL     1       3.006   6.395  18.384  0.00  0.00    +0.000 C 
BRANCH  12  17
ATOM     13  C   UNL     1       1.369   2.784  21.428  0.00  0.00    +0.000 C 
ATOM     14  C   UNL     1       1.601   3.657  20.258  0.00  0.00    +0.000 A 
ATOM     15  C   UNL     1       1.258   3.420  18.908  0.00  0.00    +0.000 A 
ATOM     16  N   UNL     1       1.662   4.402  18.097  0.00  0.00    +0.000 NA
ATOM     17  N   UNL     1       2.273   5.267  18.927  0.00  0.00    +0.000 N 
ATOM     18  C   UNL     1       2.235   4.880  20.235  0.00  0.00    +0.000 A 
ENDBRANCH  12  17
ENDBRANCH   1  12
TORSDOF 6
ENDMDL
MODEL 9
REMARK VINA RESULT:      -6.0      1.787      5.689
REMARK  Name = 
REMARK  8 active torsions:
REMARK  status: ('A' for Active; 'I' for Inactive)
REMARK    1  A    between atoms: C_1  and  C_2
REMARK    2  A    between atoms: N_5  and  C_6
REMARK    3  A    between atoms: C_6  and  C_7
REMARK    4  A    between atoms: C_7  and  C_8
REMARK    5  A    between atoms: C_7  and  N_9
REMARK    6  A    between atoms: N_9  and  C_10
REMARK    7  A    between atoms: C_10  and  C_11
REMARK    8  A    between atoms: C_11  and  N_12
REMARK                            x       y       z     vdW  Elec       q    Type
REMARK                         _______ _______ _______ _____ _____    ______ ____
ROOT
ATOM      1  C   UNL     1       3.907   4.893  17.249  0.00  0.00    +0.000 C 
ATOM      2  C   UNL     1       4.232   5.777  18.460  0.00  0.00    +0.000 C 
ENDROOT
BRANCH   1   3
ATOM      3  N   UNL     1       4.682   5.422  16.097  0.00  0.00    +0.000 NA
ATOM      4  H   UNL     1       5.297   6.172  16.417  0.00  0.00    +0.000 HD
BRANCH   3   5
ATOM      5  C   UNL     1       5.494   4.409  15.398  0.00  0.00    +0.000 C 
BRANCH   5   6
ATOM      6  C   UNL     1       7.004   4.652  15.474  0.00  0.00    +0.000 C 
BRANCH   6   7
ATOM      7  N   UNL     1       7.390   5.322  16.693  0.00  0.00    +0.000 N 
ATOM      8  C   UNL     1       7.644   4.767  17.908  0.00  0.00    +0.000 A 
ATOM      9  N   UNL     1       7.874   5.716  18.785  0.00  0.00    +0.000 NA
ATOM     10  C   UNL     1       7.731   6.857  18.045  0.00  0.00    +0.000 A 
ATOM     11  N   UNL     1       7.448   6.667  16.755  0.00  0.00    +0.000 NA
ENDBRANCH   6   7
ENDBRANCH   5   6
ENDBRANCH   3   5
ENDBRANCH   1   3
BRANCH   1  12
ATOM     12  C   UNL     1       4.194   3.407  17.549  0.00  0.00    +0.000 C 
BRANCH  12  17
ATOM     13  C   UNL     1       1.354   2.675  21.595  0.00  0.00    +0.000 C 
ATOM     14  C   UNL     1       2.476   2.692  20.633  0.00  0.00    +0.000 A 
ATOM     15  C   UNL     1       3.839   2.409  20.874  0.00  0.00    +0.000 A 
ATOM     16  N   UNL     1       4.595   2.569  19.784  0.00  0.00    +0.000 NA
ATOM     17  N   UNL     1       3.716   2.962  18.844  0.00  0.00    +0.000 N 
ATOM     18  C   UNL     1       2.431   3.020  19.295  0.00  0.00    +0.000 A 
ENDBRANCH  12  17
ENDBRANCH   1  12
TORSDOF 6
ENDMDL
