MODEL 1
REMARK VINA RESULT:      -7.1      0.000      0.000
REMARK  Name = 
REMARK  5 active torsions:
REMARK  status: ('A' for Active; 'I' for Inactive)
REMARK    1  A    between atoms: C_2  and  N_3
REMARK    2  A    between atoms: C_2  and  N_10
REMARK    3  A    between atoms: N_3  and  C_4
REMARK    4  A    between atoms: C_4  and  C_5
REMARK    5  A    between atoms: N_13  and  C_14
REMARK                            x       y       z     vdW  Elec       q    Type
REMARK                         _______ _______ _______ _____ _____    ______ ____
ROOT
ATOM      1  N   UNL     1       2.954   4.462  18.457  0.00  0.00    +0.000 N 
ATOM      2  C   UNL     1       1.982   4.525  19.566  0.00  0.00    +0.000 C 
ATOM      3  C   UNL     1       2.312   5.684  20.528  0.00  0.00    +0.000 C 
ATOM      4  N   UNL     1       2.460   6.955  19.796  0.00  0.00    +0.000 N 
ATOM      5  C   UNL     1       3.435   6.908  18.687  0.00  0.00    +0.000 C 
ATOM      6  C   UNL     1       3.084   5.748  17.738  0.00  0.00    +0.000 C 
ENDROOT
BRANCH   4   7
ATOM      7  C   UNL     1       1.654   8.051  20.014  0.00  0.00    +0.000 A 
ATOM      8  C   UNL     1       1.359   8.973  18.997  0.00  0.00    +0.000 A 
ATOM      9  C   UNL     1       0.526  10.077  19.218  0.00  0.00    +0.000 A 
ATOM     10  C   UNL     1      -0.040  10.288  20.472  0.00  0.00    +0.000 A 
ATOM     11 CL   UNL     1      -1.065  11.663  20.678  0.00  0.00    +0.000 Cl
ATOM     12  C   UNL     1       0.237   9.393  21.505  0.00  0.00    +0.000 A 
ATOM     13 CL   UNL     1      -0.425   9.575  23.092  0.00  0.00    +0.000 Cl
ATOM     14  C   UNL     1       1.075   8.293  21.270  0.00  0.00    +0.000 A 
ENDBRANCH   4   7
BRANCH   1  16
ATOM     15  S   UNL     1       3.193   1.781  18.103  0.00  0.00    +0.000 S 
ATOM     16  C   UNL     1       3.764   3.359  18.185  0.00  0.00    +0.000 C 
BRANCH  16  17
ATOM     17  N   UNL     1       5.095   3.690  18.017  0.00  0.00    +0.000 N 
ATOM     18  H   UNL     1       5.747   3.210  18.620  0.00  0.00    +0.000 HD
BRANCH  17  19
ATOM     19  C   UNL     1       5.740   4.061  16.753  0.00  0.00    +0.000 C 
BRANCH  19  20
ATOM     20  C   UNL     1       6.875   5.068  16.988  0.00  0.00    +0.000 C 
ATOM     21  C   UNL     1       7.234   5.339  18.444  0.00  0.00    +0.000 C 
ATOM     22  C   UNL     1       7.840   6.717  18.361  0.00  0.00    +0.000 C 
ATOM     23  C   UNL     1       6.985   7.382  17.304  0.00  0.00    +0.000 C 
ATOM     24  O   UNL     1       6.509   6.350  16.426  0.00  0.00    +0.000 OA
ENDBRANCH  19  20
ENDBRANCH  17  19
ENDBRANCH  16  17
ENDBRANCH   1  16
TORSDOF 5
ENDMDL
MODEL 2
REMARK VINA RESULT:      -7.1      2.221      3.674
REMARK  Name = 
REMARK  5 active torsions:
REMARK  status: ('A' for Active; 'I' for Inactive)
REMARK    1  A    between atoms: C_2  and  N_3
REMARK    2  A    between atoms: C_2  and  N_10
REMARK    3  A    between atoms: N_3  and  C_4
REMARK    4  A    between atoms: C_4  and  C_5
REMARK    5  A    between atoms: N_13  and  C_14
REMARK                            x       y       z     vdW  Elec       q    Type
REMARK                         _______ _______ _______ _____ _____    ______ ____
ROOT
ATOM      1  N   UNL     1       4.439   5.695  18.216  0.00  0.00    +0.000 N 
ATOM      2  C   UNL     1       4.267   6.986  17.522  0.00  0.00    +0.000 C 
ATOM      3  C   UNL     1       2.785   7.411  17.498  0.00  0.00    +0.000 C 
ATOM      4  N   UNL     1       2.204   7.383  18.854  0.00  0.00    +0.000 N 
ATOM      5  C   UNL     1       2.362   6.094  19.557  0.00  0.00    +0.000 C 
ATOM      6  C   UNL     1       3.848   5.692  19.572  0.00  0.00    +0.000 C 
ENDROOT
BRANCH   4   7
ATOM      7  C   UNL     1       1.694   8.499  19.480  0.00  0.00    +0.000 A 
ATOM      8  C   UNL     1       1.512   9.716  18.803  0.00  0.00    +0.000 A 
ATOM      9  C   UNL     1       0.979  10.844  19.440  0.00  0.00    +0.000 A 
ATOM     10  C   UNL     1       0.607  10.783  20.780  0.00  0.00    +0.000 A 
ATOM     11 CL   UNL     1      -0.053  12.205  21.503  0.00  0.00    +0.000 Cl
ATOM     12  C   UNL     1       0.779   9.590  21.482  0.00  0.00    +0.000 A 
ATOM     13 CL   UNL     1       0.342   9.424  23.146  0.00  0.00    +0.000 Cl
ATOM     14  C   UNL     1       1.317   8.469  20.833  0.00  0.00    +0.000 A 
ENDBRANCH   4   7
BRANCH   1  16
ATOM     15  S   UNL     1       5.857   4.571  16.192  0.00  0.00    +0.000 S 
ATOM     16  C   UNL     1       4.979   4.552  17.625  0.00  0.00    +0.000 C 
BRANCH  16  17
ATOM     17  N   UNL     1       4.696   3.394  18.322  0.00  0.00    +0.000 N 
ATOM     18  H   UNL     1       4.785   3.451  19.326  0.00  0.00    +0.000 HD
BRANCH  17  19
ATOM     19  C   UNL     1       3.697   2.385  17.951  0.00  0.00    +0.000 C 
BRANCH  19  20
ATOM     20  C   UNL     1       2.827   2.003  19.158  0.00  0.00    +0.000 C 
ATOM     21  C   UNL     1       1.483   2.714  19.263  0.00  0.00    +0.000 C 
ATOM     22  C   UNL     1       1.207   2.635  20.742  0.00  0.00    +0.000 C 
ATOM     23  C   UNL     1       2.587   2.810  21.338  0.00  0.00    +0.000 C 
ATOM     24  O   UNL     1       3.534   2.311  20.382  0.00  0.00    +0.000 OA
ENDBRANCH  19  20
ENDBRANCH  17  19
ENDBRANCH  16  17
ENDBRANCH   1  16
TORSDOF 5
ENDMDL
MODEL 3
REMARK VINA RESULT:      -6.9      1.004      1.154
REMARK  Name = 
REMARK  5 active torsions:
REMARK  status: ('A' for Active; 'I' for Inactive)
REMARK    1  A    between atoms: C_2  and  N_3
REMARK    2  A    between atoms: C_2  and  N_10
REMARK    3  A    between atoms: N_3  and  C_4
REMARK    4  A    between atoms: C_4  and  C_5
REMARK    5  A    between atoms: N_13  and  C_14
REMARK                            x       y       z     vdW  Elec       q    Type
REMARK                         _______ _______ _______ _____ _____    ______ ____
ROOT
ATOM      1  N   UNL     1       2.596   4.843  18.765  0.00  0.00    +0.000 N 
ATOM      2  C   UNL     1       1.874   4.986  20.045  0.00  0.00    +0.000 C 
ATOM      3  C   UNL     1       2.285   6.283  20.772  0.00  0.00    +0.000 C 
ATOM      4  N   UNL     1       2.156   7.453  19.882  0.00  0.00    +0.000 N 
ATOM      5  C   UNL     1       2.880   7.325  18.601  0.00  0.00    +0.000 C 
ATOM      6  C   UNL     1       2.451   6.027  17.892  0.00  0.00    +0.000 C 
ENDROOT
BRANCH   4   7
ATOM      7  C   UNL     1       1.313   8.510  20.143  0.00  0.00    +0.000 A 
ATOM      8  C   UNL     1       0.947   9.434  19.150  0.00  0.00    +0.000 A 
ATOM      9  C   UNL     1       0.077  10.498  19.415  0.00  0.00    +0.000 A 
ATOM     10  C   UNL     1      -0.457  10.668  20.689  0.00  0.00    +0.000 A 
ATOM     11 CL   UNL     1      -1.531  11.994  20.948  0.00  0.00    +0.000 Cl
ATOM     12  C   UNL     1      -0.111   9.770  21.699  0.00  0.00    +0.000 A 
ATOM     13 CL   UNL     1      -0.729   9.901  23.308  0.00  0.00    +0.000 Cl
ATOM     14  C   UNL     1       0.764   8.709  21.420  0.00  0.00    +0.000 A 
ENDBRANCH   4   7
BRANCH   1  16
ATOM     15  S   UNL     1       3.657   2.440  19.455  0.00  0.00    +0.000 S 
ATOM     16  C   UNL     1       3.433   3.771  18.453  0.00  0.00    +0.000 C 
BRANCH  16  17
ATOM     17  N   UNL     1       4.086   3.925  17.245  0.00  0.00    +0.000 N 
ATOM     18  H   UNL     1       3.577   4.423  16.530  0.00  0.00    +0.000 HD
BRANCH  17  19
ATOM     19  C   UNL     1       5.531   4.096  17.061  0.00  0.00    +0.000 C 
BRANCH  19  20
ATOM     20  C   UNL     1       6.046   5.310  17.849  0.00  0.00    +0.000 C 
ATOM     21  C   UNL     1       7.045   6.202  17.121  0.00  0.00    +0.000 C 
ATOM     22  C   UNL     1       7.787   6.836  18.269  0.00  0.00    +0.000 C 
ATOM     23  C   UNL     1       7.859   5.703  19.271  0.00  0.00    +0.000 C 
ATOM     24  O   UNL     1       6.719   4.860  19.048  0.00  0.00    +0.000 OA
ENDBRANCH  19  20
ENDBRANCH  17  19
ENDBRANCH  16  17
ENDBRANCH   1  16
TORSDOF 5
ENDMDL
MODEL 4
REMARK VINA RESULT:      -6.8      4.636      7.836
REMARK  Name = 
REMARK  5 active torsions:
REMARK  status: ('A' for Active; 'I' for Inactive)
REMARK    1  A    between atoms: C_2  and  N_3
REMARK    2  A    between atoms: C_2  and  N_10
REMARK    3  A    between atoms: N_3  and  C_4
REMARK    4  A    between atoms: C_4  and  C_5
REMARK    5  A    between atoms: N_13  and  C_14
REMARK                            x       y       z     vdW  Elec       q    Type
REMARK                         _______ _______ _______ _____ _____    ______ ____
ROOT
ATOM      1  N   UNL     1       2.892   5.276  19.325  0.00  0.00    +0.000 N 
ATOM      2  C   UNL     1       4.293   5.741  19.330  0.00  0.00    +0.000 C 
ATOM      3  C   UNL     1       5.231   4.685  18.712  0.00  0.00    +0.000 C 
ATOM      4  N   UNL     1       4.751   4.261  17.384  0.00  0.00    +0.000 N 
ATOM      5  C   UNL     1       3.352   3.786  17.366  0.00  0.00    +0.000 C 
ATOM      6  C   UNL     1       2.434   4.857  17.983  0.00  0.00    +0.000 C 
ENDROOT
BRANCH   4   7
ATOM      7  C   UNL     1       5.478   4.434  16.227  0.00  0.00    +0.000 A 
ATOM      8  C   UNL     1       6.720   5.090  16.219  0.00  0.00    +0.000 A 
ATOM      9  C   UNL     1       7.465   5.250  15.043  0.00  0.00    +0.000 A 
ATOM     10  C   UNL     1       6.984   4.752  13.835  0.00  0.00    +0.000 A 
ATOM     11 CL   UNL     1       7.954   4.973  12.424  0.00  0.00    +0.000 Cl
ATOM     12  C   UNL     1       5.752   4.098  13.809  0.00  0.00    +0.000 A 
ATOM     13 CL   UNL     1       5.080   3.446  12.356  0.00  0.00    +0.000 Cl
ATOM     14  C   UNL     1       5.015   3.948  14.993  0.00  0.00    +0.000 A 
ENDBRANCH   4   7
BRANCH   1  16
ATOM     15  S   UNL     1       1.472   3.646  20.968  0.00  0.00    +0.000 S 
ATOM     16  C   UNL     1       2.114   5.118  20.472  0.00  0.00    +0.000 C 
BRANCH  16  17
ATOM     17  N   UNL     1       1.896   6.302  21.149  0.00  0.00    +0.000 N 
ATOM     18  H   UNL     1       2.496   6.472  21.942  0.00  0.00    +0.000 HD
BRANCH  17  19
ATOM     19  C   UNL     1       1.461   7.570  20.553  0.00  0.00    +0.000 C 
BRANCH  19  20
ATOM     20  C   UNL     1       1.100   8.594  21.639  0.00  0.00    +0.000 C 
ATOM     21  C   UNL     1      -0.310   8.492  22.209  0.00  0.00    +0.000 C 
ATOM     22  C   UNL     1      -0.547   9.898  22.698  0.00  0.00    +0.000 C 
ATOM     23  C   UNL     1       0.148  10.729  21.641  0.00  0.00    +0.000 C 
ATOM     24  O   UNL     1       1.213   9.932  21.101  0.00  0.00    +0.000 OA
ENDBRANCH  19  20
ENDBRANCH  17  19
ENDBRANCH  16  17
ENDBRANCH   1  16
TORSDOF 5
ENDMDL
MODEL 5
REMARK VINA RESULT:      -6.8      2.209      3.942
REMARK  Name = 
REMARK  5 active torsions:
REMARK  status: ('A' for Active; 'I' for Inactive)
REMARK    1  A    between atoms: C_2  and  N_3
REMARK    2  A    between atoms: C_2  and  N_10
REMARK    3  A    between atoms: N_3  and  C_4
REMARK    4  A    between atoms: C_4  and  C_5
REMARK    5  A    between atoms: N_13  and  C_14
REMARK                            x       y       z     vdW  Elec       q    Type
REMARK                         _______ _______ _______ _____ _____    ______ ____
ROOT
ATOM      1  N   UNL     1       4.731   5.680  18.223  0.00  0.00    +0.000 N 
ATOM      2  C   UNL     1       4.417   6.957  17.552  0.00  0.00    +0.000 C 
ATOM      3  C   UNL     1       2.900   7.237  17.575  0.00  0.00    +0.000 C 
ATOM      4  N   UNL     1       2.363   7.137  18.946  0.00  0.00    +0.000 N 
ATOM      5  C   UNL     1       2.666   5.861  19.625  0.00  0.00    +0.000 C 
ATOM      6  C   UNL     1       4.183   5.604  19.594  0.00  0.00    +0.000 C 
ENDROOT
BRANCH   4   7
ATOM      7  C   UNL     1       1.767   8.191  19.602  0.00  0.00    +0.000 A 
ATOM      8  C   UNL     1       1.449   8.134  20.968  0.00  0.00    +0.000 A 
ATOM      9  C   UNL     1       0.857   9.214  21.636  0.00  0.00    +0.000 A 
ATOM     10  C   UNL     1       0.570  10.390  20.950  0.00  0.00    +0.000 A 
ATOM     11 CL   UNL     1      -0.150  11.688  21.832  0.00  0.00    +0.000 Cl
ATOM     12  C   UNL     1       0.871  10.478  19.591  0.00  0.00    +0.000 A 
ATOM     13 CL   UNL     1       0.552  11.901  18.661  0.00  0.00    +0.000 Cl
ATOM     14  C   UNL     1       1.460   9.388  18.934  0.00  0.00    +0.000 A 
ENDBRANCH   4   7
BRANCH   1  16
ATOM     15  S   UNL     1       6.655   4.764  16.539  0.00  0.00    +0.000 S 
ATOM     16  C   UNL     1       5.362   4.602  17.600  0.00  0.00    +0.000 C 
BRANCH  16  17
ATOM     17  N   UNL     1       4.797   3.383  17.921  0.00  0.00    +0.000 N 
ATOM     18  H   UNL     1       4.823   3.129  18.898  0.00  0.00    +0.000 HD
BRANCH  17  19
ATOM     19  C   UNL     1       3.643   2.765  17.260  0.00  0.00    +0.000 C 
BRANCH  19  20
ATOM     20  C   UNL     1       2.673   2.167  18.290  0.00  0.00    +0.000 C 
ATOM     21  C   UNL     1       1.327   2.867  18.423  0.00  0.00    +0.000 C 
ATOM     22  C   UNL     1       0.926   2.501  19.829  0.00  0.00    +0.000 C 
ATOM     23  C   UNL     1       2.251   2.530  20.560  0.00  0.00    +0.000 C 
ATOM     24  O   UNL     1       3.275   2.212  19.605  0.00  0.00    +0.000 OA
ENDBRANCH  19  20
ENDBRANCH  17  19
ENDBRANCH  16  17
ENDBRANCH   1  16
TORSDOF 5
ENDMDL
MODEL 6
REMARK VINA RESULT:      -6.8      1.102      1.798
REMARK  Name = 
REMARK  5 active torsions:
REMARK  status: ('A' for Active; 'I' for Inactive)
REMARK    1  A    between atoms: C_2  and  N_3
REMARK    2  A    between atoms: C_2  and  N_10
REMARK    3  A    between atoms: N_3  and  C_4
REMARK    4  A    between atoms: C_4  and  C_5
REMARK    5  A    between atoms: N_13  and  C_14
REMARK                            x       y       z     vdW  Elec       q    Type
REMARK                         _______ _______ _______ _____ _____    ______ ____
ROOT
ATOM      1  N   UNL     1       2.526   4.688  18.534  0.00  0.00    +0.000 N 
ATOM      2  C   UNL     1       1.772   4.688  19.803  0.00  0.00    +0.000 C 
ATOM      3  C   UNL     1       2.202   5.863  20.705  0.00  0.00    +0.000 C 
ATOM      4  N   UNL     1       2.138   7.143  19.974  0.00  0.00    +0.000 N 
ATOM      5  C   UNL     1       2.894   7.158  18.706  0.00  0.00    +0.000 C 
ATOM      6  C   UNL     1       2.446   5.980  17.821  0.00  0.00    +0.000 C 
ENDROOT
BRANCH   4   7
ATOM      7  C   UNL     1       1.322   8.187  20.350  0.00  0.00    +0.000 A 
ATOM      8  C   UNL     1       0.652   8.203  21.585  0.00  0.00    +0.000 A 
ATOM      9  C   UNL     1      -0.164   9.273  21.970  0.00  0.00    +0.000 A 
ATOM     10  C   UNL     1      -0.331  10.367  21.126  0.00  0.00    +0.000 A 
ATOM     11 CL   UNL     1      -1.342  11.659  21.664  0.00  0.00    +0.000 Cl
ATOM     12  C   UNL     1       0.317  10.381  19.891  0.00  0.00    +0.000 A 
ATOM     13 CL   UNL     1       0.169  11.699  18.782  0.00  0.00    +0.000 Cl
ATOM     14  C   UNL     1       1.129   9.301  19.516  0.00  0.00    +0.000 A 
ENDBRANCH   4   7
BRANCH   1  16
ATOM     15  S   UNL     1       3.470   2.170  18.915  0.00  0.00    +0.000 S 
ATOM     16  C   UNL     1       3.338   3.637  18.105  0.00  0.00    +0.000 C 
BRANCH  16  17
ATOM     17  N   UNL     1       4.048   3.932  16.958  0.00  0.00    +0.000 N 
ATOM     18  H   UNL     1       3.580   4.530  16.292  0.00  0.00    +0.000 HD
BRANCH  17  19
ATOM     19  C   UNL     1       5.503   4.094  16.860  0.00  0.00    +0.000 C 
BRANCH  19  20
ATOM     20  C   UNL     1       5.983   5.277  17.714  0.00  0.00    +0.000 C 
ATOM     21  C   UNL     1       6.971   6.224  17.044  0.00  0.00    +0.000 C 
ATOM     22  C   UNL     1       7.687   6.814  18.232  0.00  0.00    +0.000 C 
ATOM     23  C   UNL     1       7.771   5.635  19.176  0.00  0.00    +0.000 C 
ATOM     24  O   UNL     1       6.652   4.781  18.897  0.00  0.00    +0.000 OA
ENDBRANCH  19  20
ENDBRANCH  17  19
ENDBRANCH  16  17
ENDBRANCH   1  16
TORSDOF 5
ENDMDL
MODEL 7
REMARK VINA RESULT:      -6.7      0.776      1.059
REMARK  Name = 
REMARK  5 active torsions:
REMARK  status: ('A' for Active; 'I' for Inactive)
REMARK    1  A    between atoms: C_2  and  N_3
REMARK    2  A    between atoms: C_2  and  N_10
REMARK    3  A    between atoms: N_3  and  C_4
REMARK    4  A    between atoms: C_4  and  C_5
REMARK    5  A    between atoms: N_13  and  C_14
REMARK                            x       y       z     vdW  Elec       q    Type
REMARK                         _______ _______ _______ _____ _____    ______ ____
ROOT
ATOM      1  N   UNL     1       3.479   4.390  18.784  0.00  0.00    +0.000 N 
ATOM      2  C   UNL     1       4.110   5.447  19.600  0.00  0.00    +0.000 C 
ATOM      3  C   UNL     1       3.968   6.827  18.926  0.00  0.00    +0.000 C 
ATOM      4  N   UNL     1       2.562   7.105  18.577  0.00  0.00    +0.000 N 
ATOM      5  C   UNL     1       1.921   6.058  17.755  0.00  0.00    +0.000 C 
ATOM      6  C   UNL     1       2.071   4.692  18.447  0.00  0.00    +0.000 C 
ENDROOT
BRANCH   4   7
ATOM      7  C   UNL     1       1.850   8.164  19.094  0.00  0.00    +0.000 A 
ATOM      8  C   UNL     1       1.392   9.219  18.288  0.00  0.00    +0.000 A 
ATOM      9  C   UNL     1       0.655  10.286  18.815  0.00  0.00    +0.000 A 
ATOM     10  C   UNL     1       0.350  10.326  20.173  0.00  0.00    +0.000 A 
ATOM     11 CL   UNL     1      -0.570  11.664  20.759  0.00  0.00    +0.000 Cl
ATOM     12  C   UNL     1       0.794   9.295  21.002  0.00  0.00    +0.000 A 
ATOM     13 CL   UNL     1       0.459   9.261  22.698  0.00  0.00    +0.000 Cl
ATOM     14  C   UNL     1       1.534   8.234  20.461  0.00  0.00    +0.000 A 
ENDBRANCH   4   7
BRANCH   1  16
ATOM     15  S   UNL     1       3.484   1.754  18.134  0.00  0.00    +0.000 S 
ATOM     16  C   UNL     1       4.160   3.287  18.269  0.00  0.00    +0.000 C 
BRANCH  16  17
ATOM     17  N   UNL     1       5.462   3.572  17.905  0.00  0.00    +0.000 N 
ATOM     18  H   UNL     1       6.159   2.908  18.209  0.00  0.00    +0.000 HD
BRANCH  17  19
ATOM     19  C   UNL     1       5.887   4.234  16.668  0.00  0.00    +0.000 C 
BRANCH  19  20
ATOM     20  C   UNL     1       7.023   5.232  16.940  0.00  0.00    +0.000 C 
ATOM     21  C   UNL     1       7.402   5.428  18.403  0.00  0.00    +0.000 C 
ATOM     22  C   UNL     1       8.003   6.809  18.384  0.00  0.00    +0.000 C 
ATOM     23  C   UNL     1       7.131   7.526  17.375  0.00  0.00    +0.000 C 
ATOM     24  O   UNL     1       6.645   6.541  16.451  0.00  0.00    +0.000 OA
ENDBRANCH  19  20
ENDBRANCH  17  19
ENDBRANCH  16  17
ENDBRANCH   1  16
TORSDOF 5
ENDMDL
MODEL 8
REMARK VINA RESULT:      -6.6      0.963      1.624
REMARK  Name = 
REMARK  5 active torsions:
REMARK  status: ('A' for Active; 'I' for Inactive)
REMARK    1  A    between atoms: C_2  and  N_3
REMARK    2  A    between atoms: C_2  and  N_10
REMARK    3  A    between atoms: N_3  and  C_4
REMARK    4  A    between atoms: C_4  and  C_5
REMARK    5  A    between atoms: N_13  and  C_14
REMARK                            x       y       z     vdW  Elec       q    Type
REMARK                         _______ _______ _______ _____ _____    ______ ____
ROOT
ATOM      1  N   UNL     1       2.350   4.713  18.545  0.00  0.00    +0.000 N 
ATOM      2  C   UNL     1       1.550   4.735  19.785  0.00  0.00    +0.000 C 
ATOM      3  C   UNL     1       2.050   5.829  20.749  0.00  0.00    +0.000 C 
ATOM      4  N   UNL     1       2.132   7.137  20.071  0.00  0.00    +0.000 N 
ATOM      5  C   UNL     1       2.935   7.130  18.832  0.00  0.00    +0.000 C 
ATOM      6  C   UNL     1       2.416   6.034  17.884  0.00  0.00    +0.000 C 
ENDROOT
BRANCH   4   7
ATOM      7  C   UNL     1       1.400   8.237  20.461  0.00  0.00    +0.000 A 
ATOM      8  C   UNL     1       1.019   8.443  21.797  0.00  0.00    +0.000 A 
ATOM      9  C   UNL     1       0.290   9.571  22.192  0.00  0.00    +0.000 A 
ATOM     10  C   UNL     1      -0.078  10.532  21.255  0.00  0.00    +0.000 A 
ATOM     11 CL   UNL     1      -0.968  11.905  21.809  0.00  0.00    +0.000 Cl
ATOM     12  C   UNL     1       0.282  10.356  19.919  0.00  0.00    +0.000 A 
ATOM     13 CL   UNL     1      -0.130  11.500  18.690  0.00  0.00    +0.000 Cl
ATOM     14  C   UNL     1       1.010   9.220  19.537  0.00  0.00    +0.000 A 
ENDBRANCH   4   7
BRANCH   1  16
ATOM     15  S   UNL     1       2.459   2.047  18.041  0.00  0.00    +0.000 S 
ATOM     16  C   UNL     1       3.078   3.608  18.101  0.00  0.00    +0.000 C 
BRANCH  16  17
ATOM     17  N   UNL     1       4.374   3.921  17.740  0.00  0.00    +0.000 N 
ATOM     18  H   UNL     1       4.475   4.503  16.922  0.00  0.00    +0.000 HD
BRANCH  17  19
ATOM     19  C   UNL     1       5.500   4.123  18.657  0.00  0.00    +0.000 C 
BRANCH  19  20
ATOM     20  C   UNL     1       6.568   5.029  18.027  0.00  0.00    +0.000 C 
ATOM     21  C   UNL     1       7.445   5.805  19.002  0.00  0.00    +0.000 C 
ATOM     22  C   UNL     1       7.878   6.978  18.161  0.00  0.00    +0.000 C 
ATOM     23  C   UNL     1       6.638   7.263  17.341  0.00  0.00    +0.000 C 
ATOM     24  O   UNL     1       5.929   6.023  17.192  0.00  0.00    +0.000 OA
ENDBRANCH  19  20
ENDBRANCH  17  19
ENDBRANCH  16  17
ENDBRANCH   1  16
TORSDOF 5
ENDMDL
MODEL 9
REMARK VINA RESULT:      -6.6      2.420      3.369
REMARK  Name = 
REMARK  5 active torsions:
REMARK  status: ('A' for Active; 'I' for Inactive)
REMARK    1  A    between atoms: C_2  and  N_3
REMARK    2  A    between atoms: C_2  and  N_10
REMARK    3  A    between atoms: N_3  and  C_4
REMARK    4  A    between atoms: C_4  and  C_5
REMARK    5  A    between atoms: N_13  and  C_14
REMARK                            x       y       z     vdW  Elec       q    Type
REMARK                         _______ _______ _______ _____ _____    ______ ____
ROOT
ATOM      1  N   UNL     1       5.235   5.881  18.137  0.00  0.00    +0.000 N 
ATOM      2  C   UNL     1       4.928   7.241  17.651  0.00  0.00    +0.000 C 
ATOM      3  C   UNL     1       3.408   7.438  17.479  0.00  0.00    +0.000 C 
ATOM      4  N   UNL     1       2.682   7.068  18.708  0.00  0.00    +0.000 N 
ATOM      5  C   UNL     1       2.976   5.707  19.201  0.00  0.00    +0.000 C 
ATOM      6  C   UNL     1       4.496   5.534  19.369  0.00  0.00    +0.000 C 
ENDROOT
BRANCH   4   7
ATOM      7  C   UNL     1       1.917   7.957  19.430  0.00  0.00    +0.000 A 
ATOM      8  C   UNL     1       1.581   7.730  20.775  0.00  0.00    +0.000 A 
ATOM      9  C   UNL     1       0.816   8.644  21.510  0.00  0.00    +0.000 A 
ATOM     10  C   UNL     1       0.366   9.820  20.917  0.00  0.00    +0.000 A 
ATOM     11 CL   UNL     1      -0.565  10.910  21.880  0.00  0.00    +0.000 Cl
ATOM     12  C   UNL     1       0.680  10.073  19.581  0.00  0.00    +0.000 A 
ATOM     13 CL   UNL     1       0.166  11.508  18.766  0.00  0.00    +0.000 Cl
ATOM     14  C   UNL     1       1.444   9.148  18.856  0.00  0.00    +0.000 A 
ENDBRANCH   4   7
BRANCH   1  16
ATOM     15  S   UNL     1       7.637   4.652  17.834  0.00  0.00    +0.000 S 
ATOM     16  C   UNL     1       6.031   4.964  17.449  0.00  0.00    +0.000 C 
BRANCH  16  17
ATOM     17  N   UNL     1       5.375   4.356  16.397  0.00  0.00    +0.000 N 
ATOM     18  H   UNL     1       4.556   4.834  16.053  0.00  0.00    +0.000 HD
BRANCH  17  19
ATOM     19  C   UNL     1       6.001   3.574  15.325  0.00  0.00    +0.000 C 
BRANCH  19  20
ATOM     20  C   UNL     1       6.242   4.441  14.080  0.00  0.00    +0.000 C 
ATOM     21  C   UNL     1       6.422   3.688  12.768  0.00  0.00    +0.000 C 
ATOM     22  C   UNL     1       7.226   4.670  11.956  0.00  0.00    +0.000 C 
ATOM     23  C   UNL     1       8.136   5.282  12.999  0.00  0.00    +0.000 C 
ATOM     24  O   UNL     1       7.449   5.220  14.258  0.00  0.00    +0.000 OA
ENDBRANCH  19  20
ENDBRANCH  17  19
ENDBRANCH  16  17
ENDBRANCH   1  16
TORSDOF 5
ENDMDL
