MODEL 1
REMARK VINA RESULT:      -7.5      0.000      0.000
REMARK  Name = 
REMARK  10 active torsions:
REMARK  status: ('A' for Active; 'I' for Inactive)
REMARK    1  A    between atoms: C_1  and  C_2
REMARK    2  A    between atoms: C_2  and  C_3
REMARK    3  A    between atoms: C_2  and  C_4
REMARK    4  A    between atoms: C_4  and  N_5
REMARK    5  A    between atoms: C_4  and  C_6
REMARK    6  A    between atoms: C_6  and  N_7
REMARK    7  A    between atoms: C_11  and  C_12
REMARK    8  A    between atoms: N_14  and  C_15
REMARK    9  A    between atoms: C_15  and  C_16
REMARK   10  A    between atoms: C_19  and  C_20
REMARK                            x       y       z     vdW  Elec       q    Type
REMARK                         _______ _______ _______ _____ _____    ______ ____
ROOT
ATOM      1  C   UNL     1       2.100   5.446  19.622  0.00  0.00    +0.000 C 
ATOM      2  O   UNL     1       1.526   4.943  20.582  0.00  0.00    +0.000 OA
ATOM      3  N   UNL     1       2.303   6.794  19.577  0.00  0.00    +0.000 N 
ATOM      4  H   UNL     1       2.812   7.191  18.775  0.00  0.00    +0.000 HD
ENDROOT
BRANCH   1   9
ATOM      5  N   UNL     1       3.875   3.921  18.831  0.00  0.00    +0.000 NA
ATOM      6  C   UNL     1       3.535   2.493  18.979  0.00  0.00    +0.000 C 
ATOM      7  C   UNL     1       2.451   2.240  17.946  0.00  0.00    +0.000 C 
ATOM      8  C   UNL     1       1.556   3.419  18.224  0.00  0.00    +0.000 C 
ATOM      9  C   UNL     1       2.566   4.549  18.488  0.00  0.00    +0.000 C 
BRANCH   5  10
ATOM     10  C   UNL     1       4.946   4.079  17.798  0.00  0.00    +0.000 C 
BRANCH  10  11
ATOM     11  C   UNL     1       6.138   5.013  18.188  0.00  0.00    +0.000 C 
BRANCH  11  13
ATOM     12  C   UNL     1       7.327   7.174  17.435  0.00  0.00    +0.000 C 
ATOM     13  C   UNL     1       5.969   6.461  17.592  0.00  0.00    +0.000 C 
ATOM     14  C   UNL     1       5.259   6.487  16.227  0.00  0.00    +0.000 C 
ENDBRANCH  11  13
BRANCH  11  15
ATOM     15  N   UNL     1       6.244   5.103  19.646  0.00  0.00    +0.000 NA
ATOM     16  H   UNL     1       6.695   4.240  20.031  0.00  0.00    +0.000 HD
ATOM     17  H   UNL     1       5.319   5.268  20.099  0.00  0.00    +0.000 HD
ENDBRANCH  11  15
ENDBRANCH  10  11
ENDBRANCH   5  10
ENDBRANCH   1   9
BRANCH   3  18
ATOM     18  C   UNL     1       1.866   7.700  20.630  0.00  0.00    +0.000 C 
BRANCH  18  19
ATOM     19  C   UNL     1       1.098   8.858  20.041  0.00  0.00    +0.000 A 
ATOM     20  C   UNL     1       1.371   9.316  18.747  0.00  0.00    +0.000 A 
ATOM     21  C   UNL     1       0.659  10.393  18.207  0.00  0.00    +0.000 A 
ATOM     22  C   UNL     1      -0.350  11.047  18.948  0.00  0.00    +0.000 A 
ATOM     23  C   UNL     1      -0.619  10.565  20.250  0.00  0.00    +0.000 A 
ATOM     24  C   UNL     1       0.095   9.488  20.785  0.00  0.00    +0.000 A 
BRANCH  22  25
ATOM     25  C   UNL     1      -1.127  12.226  18.382  0.00  0.00    +0.000 C 
ATOM     26  N   UNL     1      -1.522  12.252  17.157  0.00  0.00    +0.000 NA
ATOM     27  N   UNL     1      -1.449  13.363  19.185  0.00  0.00    +0.000 N 
ATOM     28  H   UNL     1      -1.362  11.507  16.469  0.00  0.00    +0.000 HD
ATOM     29  H   UNL     1      -1.185  13.455  20.168  0.00  0.00    +0.000 HD
ATOM     30  H   UNL     1      -1.974  14.146  18.766  0.00  0.00    +0.000 HD
ENDBRANCH  22  25
ENDBRANCH  18  19
ENDBRANCH   3  18
TORSDOF 8
ENDMDL
MODEL 2
REMARK VINA RESULT:      -7.5      2.356      4.045
REMARK  Name = 
REMARK  10 active torsions:
REMARK  status: ('A' for Active; 'I' for Inactive)
REMARK    1  A    between atoms: C_1  and  C_2
REMARK    2  A    between atoms: C_2  and  C_3
REMARK    3  A    between atoms: C_2  and  C_4
REMARK    4  A    between atoms: C_4  and  N_5
REMARK    5  A    between atoms: C_4  and  C_6
REMARK    6  A    between atoms: C_6  and  N_7
REMARK    7  A    between atoms: C_11  and  C_12
REMARK    8  A    between atoms: N_14  and  C_15
REMARK    9  A    between atoms: C_15  and  C_16
REMARK   10  A    between atoms: C_19  and  C_20
REMARK                            x       y       z     vdW  Elec       q    Type
REMARK                         _______ _______ _______ _____ _____    ______ ____
ROOT
ATOM      1  C   UNL     1       4.126   6.683  17.437  0.00  0.00    +0.000 C 
ATOM      2  O   UNL     1       4.544   7.424  16.554  0.00  0.00    +0.000 OA
ATOM      3  N   UNL     1       2.989   7.006  18.119  0.00  0.00    +0.000 N 
ATOM      4  H   UNL     1       2.641   6.355  18.837  0.00  0.00    +0.000 HD
ENDROOT
BRANCH   1   9
ATOM      5  N   UNL     1       4.391   4.278  16.940  0.00  0.00    +0.000 NA
ATOM      6  C   UNL     1       5.523   3.983  16.041  0.00  0.00    +0.000 C 
ATOM      7  C   UNL     1       6.764   4.247  16.876  0.00  0.00    +0.000 C 
ATOM      8  C   UNL     1       6.395   5.585  17.461  0.00  0.00    +0.000 C 
ATOM      9  C   UNL     1       4.897   5.415  17.763  0.00  0.00    +0.000 C 
BRANCH   5  10
ATOM     10  C   UNL     1       4.026   3.049  17.711  0.00  0.00    +0.000 C 
BRANCH  10  11
ATOM     11  C   UNL     1       4.083   3.177  19.268  0.00  0.00    +0.000 C 
BRANCH  11  13
ATOM     12  C   UNL     1       1.993   4.304  20.274  0.00  0.00    +0.000 C 
ATOM     13  C   UNL     1       2.669   2.962  19.926  0.00  0.00    +0.000 C 
ATOM     14  C   UNL     1       1.696   2.155  19.048  0.00  0.00    +0.000 C 
ENDBRANCH  11  13
BRANCH  11  15
ATOM     15  N   UNL     1       5.021   2.195  19.814  0.00  0.00    +0.000 NA
ATOM     16  H   UNL     1       5.408   1.596  19.048  0.00  0.00    +0.000 HD
ATOM     17  H   UNL     1       4.587   1.605  20.558  0.00  0.00    +0.000 HD
ENDBRANCH  11  15
ENDBRANCH  10  11
ENDBRANCH   5  10
ENDBRANCH   1   9
BRANCH   3  18
ATOM     18  C   UNL     1       2.220   8.214  17.855  0.00  0.00    +0.000 C 
BRANCH  18  19
ATOM     19  C   UNL     1       1.574   8.712  19.126  0.00  0.00    +0.000 A 
ATOM     20  C   UNL     1       1.756   8.035  20.336  0.00  0.00    +0.000 A 
ATOM     21  C   UNL     1       1.152   8.499  21.511  0.00  0.00    +0.000 A 
ATOM     22  C   UNL     1       0.343   9.657  21.508  0.00  0.00    +0.000 A 
ATOM     23  C   UNL     1       0.178  10.334  20.277  0.00  0.00    +0.000 A 
ATOM     24  C   UNL     1       0.784   9.867  19.107  0.00  0.00    +0.000 A 
BRANCH  22  25
ATOM     25  C   UNL     1      -0.330  10.171  22.772  0.00  0.00    +0.000 C 
ATOM     26  N   UNL     1      -0.216   9.558  23.897  0.00  0.00    +0.000 NA
ATOM     27  N   UNL     1      -1.127  11.357  22.764  0.00  0.00    +0.000 N 
ATOM     28  H   UNL     1       0.324   8.698  24.050  0.00  0.00    +0.000 HD
ATOM     29  H   UNL     1      -1.291  11.923  21.929  0.00  0.00    +0.000 HD
ATOM     30  H   UNL     1      -1.573  11.672  23.638  0.00  0.00    +0.000 HD
ENDBRANCH  22  25
ENDBRANCH  18  19
ENDBRANCH   3  18
TORSDOF 8
ENDMDL
MODEL 3
REMARK VINA RESULT:      -7.5      2.191      4.153
REMARK  Name = 
REMARK  10 active torsions:
REMARK  status: ('A' for Active; 'I' for Inactive)
REMARK    1  A    between atoms: C_1  and  C_2
REMARK    2  A    between atoms: C_2  and  C_3
REMARK    3  A    between atoms: C_2  and  C_4
REMARK    4  A    between atoms: C_4  and  N_5
REMARK    5  A    between atoms: C_4  and  C_6
REMARK    6  A    between atoms: C_6  and  N_7
REMARK    7  A    between atoms: C_11  and  C_12
REMARK    8  A    between atoms: N_14  and  C_15
REMARK    9  A    between atoms: C_15  and  C_16
REMARK   10  A    between atoms: C_19  and  C_20
REMARK                            x       y       z     vdW  Elec       q    Type
REMARK                         _______ _______ _______ _____ _____    ______ ____
ROOT
ATOM      1  C   UNL     1       3.144   6.394  17.966  0.00  0.00    +0.000 C 
ATOM      2  O   UNL     1       2.077   5.818  17.781  0.00  0.00    +0.000 OA
ATOM      3  N   UNL     1       3.193   7.757  17.975  0.00  0.00    +0.000 N 
ATOM      4  H   UNL     1       4.094   8.219  18.161  0.00  0.00    +0.000 HD
ENDROOT
BRANCH   1   9
ATOM      5  N   UNL     1       4.132   4.132  17.867  0.00  0.00    +0.000 NA
ATOM      6  C   UNL     1       4.931   3.891  16.650  0.00  0.00    +0.000 C 
ATOM      7  C   UNL     1       6.174   4.744  16.823  0.00  0.00    +0.000 C 
ATOM      8  C   UNL     1       5.534   6.041  17.245  0.00  0.00    +0.000 C 
ATOM      9  C   UNL     1       4.402   5.567  18.172  0.00  0.00    +0.000 C 
BRANCH   5  10
ATOM     10  C   UNL     1       4.539   3.167  18.936  0.00  0.00    +0.000 C 
BRANCH  10  11
ATOM     11  C   UNL     1       3.401   2.258  19.504  0.00  0.00    +0.000 C 
BRANCH  11  13
ATOM     12  C   UNL     1       0.887   2.820  19.372  0.00  0.00    +0.000 C 
ATOM     13  C   UNL     1       2.215   3.105  20.102  0.00  0.00    +0.000 C 
ATOM     14  C   UNL     1       1.989   2.872  21.607  0.00  0.00    +0.000 C 
ENDBRANCH  11  13
BRANCH  11  15
ATOM     15  N   UNL     1       2.884   1.388  18.446  0.00  0.00    +0.000 NA
ATOM     16  H   UNL     1       2.759   1.930  17.559  0.00  0.00    +0.000 HD
ATOM     17  H   UNL     1       1.992   0.920  18.720  0.00  0.00    +0.000 HD
ENDBRANCH  11  15
ENDBRANCH  10  11
ENDBRANCH   5  10
ENDBRANCH   1   9
BRANCH   3  18
ATOM     18  C   UNL     1       2.020   8.596  17.771  0.00  0.00    +0.000 C 
BRANCH  18  19
ATOM     19  C   UNL     1       1.418   8.987  19.098  0.00  0.00    +0.000 A 
ATOM     20  C   UNL     1       1.661   8.229  20.248  0.00  0.00    +0.000 A 
ATOM     21  C   UNL     1       1.097   8.594  21.477  0.00  0.00    +0.000 A 
ATOM     22  C   UNL     1       0.269   9.733  21.590  0.00  0.00    +0.000 A 
ATOM     23  C   UNL     1       0.042  10.494  20.419  0.00  0.00    +0.000 A 
ATOM     24  C   UNL     1       0.608  10.125  19.195  0.00  0.00    +0.000 A 
BRANCH  22  25
ATOM     25  C   UNL     1      -0.361  10.141  22.913  0.00  0.00    +0.000 C 
ATOM     26  N   UNL     1       0.020   9.629  24.031  0.00  0.00    +0.000 NA
ATOM     27  N   UNL     1      -1.411  11.108  22.974  0.00  0.00    +0.000 N 
ATOM     28  H   UNL     1       0.761   8.926  24.138  0.00  0.00    +0.000 HD
ATOM     29  H   UNL     1      -1.797  11.577  22.152  0.00  0.00    +0.000 HD
ATOM     30  H   UNL     1      -1.818  11.356  23.888  0.00  0.00    +0.000 HD
ENDBRANCH  22  25
ENDBRANCH  18  19
ENDBRANCH   3  18
TORSDOF 8
ENDMDL
MODEL 4
REMARK VINA RESULT:      -7.5      1.023      1.406
REMARK  Name = 
REMARK  10 active torsions:
REMARK  status: ('A' for Active; 'I' for Inactive)
REMARK    1  A    between atoms: C_1  and  C_2
REMARK    2  A    between atoms: C_2  and  C_3
REMARK    3  A    between atoms: C_2  and  C_4
REMARK    4  A    between atoms: C_4  and  N_5
REMARK    5  A    between atoms: C_4  and  C_6
REMARK    6  A    between atoms: C_6  and  N_7
REMARK    7  A    between atoms: C_11  and  C_12
REMARK    8  A    between atoms: N_14  and  C_15
REMARK    9  A    between atoms: C_15  and  C_16
REMARK   10  A    between atoms: C_19  and  C_20
REMARK                            x       y       z     vdW  Elec       q    Type
REMARK                         _______ _______ _______ _____ _____    ______ ____
ROOT
ATOM      1  C   UNL     1       2.271   5.584  19.408  0.00  0.00    +0.000 C 
ATOM      2  O   UNL     1       1.646   4.995  20.283  0.00  0.00    +0.000 OA
ATOM      3  N   UNL     1       2.456   6.933  19.489  0.00  0.00    +0.000 N 
ATOM      4  H   UNL     1       3.008   7.402  18.757  0.00  0.00    +0.000 HD
ENDROOT
BRANCH   1   9
ATOM      5  N   UNL     1       4.213   4.340  18.521  0.00  0.00    +0.000 NA
ATOM      6  C   UNL     1       4.075   2.875  18.632  0.00  0.00    +0.000 C 
ATOM      7  C   UNL     1       3.005   2.505  17.621  0.00  0.00    +0.000 C 
ATOM      8  C   UNL     1       1.967   3.541  17.960  0.00  0.00    +0.000 C 
ATOM      9  C   UNL     1       2.820   4.791  18.233  0.00  0.00    +0.000 C 
BRANCH   5  10
ATOM     10  C   UNL     1       5.220   4.673  17.466  0.00  0.00    +0.000 C 
BRANCH  10  11
ATOM     11  C   UNL     1       5.679   6.166  17.406  0.00  0.00    +0.000 C 
BRANCH  11  13
ATOM     12  C   UNL     1       7.671   7.792  17.611  0.00  0.00    +0.000 C 
ATOM     13  C   UNL     1       7.220   6.319  17.687  0.00  0.00    +0.000 C 
ATOM     14  C   UNL     1       7.656   5.760  19.054  0.00  0.00    +0.000 C 
ENDBRANCH  11  13
BRANCH  11  15
ATOM     15  N   UNL     1       5.373   6.728  16.089  0.00  0.00    +0.000 NA
ATOM     16  H   UNL     1       5.661   7.734  16.047  0.00  0.00    +0.000 HD
ATOM     17  H   UNL     1       4.365   6.624  15.839  0.00  0.00    +0.000 HD
ENDBRANCH  11  15
ENDBRANCH  10  11
ENDBRANCH   5  10
ENDBRANCH   1   9
BRANCH   3  18
ATOM     18  C   UNL     1       1.941   7.741  20.586  0.00  0.00    +0.000 C 
BRANCH  18  19
ATOM     19  C   UNL     1       1.093   8.869  20.052  0.00  0.00    +0.000 A 
ATOM     20  C   UNL     1       1.273   9.349  18.750  0.00  0.00    +0.000 A 
ATOM     21  C   UNL     1       0.487  10.399  18.261  0.00  0.00    +0.000 A 
ATOM     22  C   UNL     1      -0.507  11.002  19.064  0.00  0.00    +0.000 A 
ATOM     23  C   UNL     1      -0.682  10.498  20.374  0.00  0.00    +0.000 A 
ATOM     24  C   UNL     1       0.107   9.449  20.857  0.00  0.00    +0.000 A 
BRANCH  22  25
ATOM     25  C   UNL     1      -1.364  12.150  18.554  0.00  0.00    +0.000 C 
ATOM     26  N   UNL     1      -2.185  12.776  19.322  0.00  0.00    +0.000 NA
ATOM     27  N   UNL     1      -1.301  12.583  17.193  0.00  0.00    +0.000 N 
ATOM     28  H   UNL     1      -2.334  12.574  20.318  0.00  0.00    +0.000 HD
ATOM     29  H   UNL     1      -0.689  12.159  16.492  0.00  0.00    +0.000 HD
ATOM     30  H   UNL     1      -1.901  13.362  16.881  0.00  0.00    +0.000 HD
ENDBRANCH  22  25
ENDBRANCH  18  19
ENDBRANCH   3  18
TORSDOF 8
ENDMDL
MODEL 5
REMARK VINA RESULT:      -7.5      1.005      1.730
REMARK  Name = 
REMARK  10 active torsions:
REMARK  status: ('A' for Active; 'I' for Inactive)
REMARK    1  A    between atoms: C_1  and  C_2
REMARK    2  A    between atoms: C_2  and  C_3
REMARK    3  A    between atoms: C_2  and  C_4
REMARK    4  A    between atoms: C_4  and  N_5
REMARK    5  A    between atoms: C_4  and  C_6
REMARK    6  A    between atoms: C_6  and  N_7
REMARK    7  A    between atoms: C_11  and  C_12
REMARK    8  A    between atoms: N_14  and  C_15
REMARK    9  A    between atoms: C_15  and  C_16
REMARK   10  A    between atoms: C_19  and  C_20
REMARK                            x       y       z     vdW  Elec       q    Type
REMARK                         _______ _______ _______ _____ _____    ______ ____
ROOT
ATOM      1  C   UNL     1       2.394   5.617  19.518  0.00  0.00    +0.000 C 
ATOM      2  O   UNL     1       1.971   5.008  20.495  0.00  0.00    +0.000 OA
ATOM      3  N   UNL     1       2.370   6.981  19.500  0.00  0.00    +0.000 N 
ATOM      4  H   UNL     1       2.756   7.472  18.682  0.00  0.00    +0.000 HD
ENDROOT
BRANCH   1   9
ATOM      5  N   UNL     1       4.306   4.334  18.623  0.00  0.00    +0.000 NA
ATOM      6  C   UNL     1       4.124   2.872  18.705  0.00  0.00    +0.000 C 
ATOM      7  C   UNL     1       3.053   2.552  17.678  0.00  0.00    +0.000 C 
ATOM      8  C   UNL     1       2.042   3.613  18.030  0.00  0.00    +0.000 C 
ATOM      9  C   UNL     1       2.929   4.831  18.333  0.00  0.00    +0.000 C 
BRANCH   5  10
ATOM     10  C   UNL     1       5.331   4.657  17.582  0.00  0.00    +0.000 C 
BRANCH  10  11
ATOM     11  C   UNL     1       5.759   6.158  17.487  0.00  0.00    +0.000 C 
BRANCH  11  13
ATOM     12  C   UNL     1       7.721   7.825  17.630  0.00  0.00    +0.000 C 
ATOM     13  C   UNL     1       7.300   6.346  17.745  0.00  0.00    +0.000 C 
ATOM     14  C   UNL     1       7.763   5.828  19.119  0.00  0.00    +0.000 C 
ENDBRANCH  11  13
BRANCH  11  15
ATOM     15  N   UNL     1       5.425   6.688  16.164  0.00  0.00    +0.000 NA
ATOM     16  H   UNL     1       4.700   7.439  16.244  0.00  0.00    +0.000 HD
ATOM     17  H   UNL     1       5.109   5.940  15.507  0.00  0.00    +0.000 HD
ENDBRANCH  11  15
ENDBRANCH  10  11
ENDBRANCH   5  10
ENDBRANCH   1   9
BRANCH   3  18
ATOM     18  C   UNL     1       1.856   7.782  20.603  0.00  0.00    +0.000 C 
BRANCH  18  19
ATOM     19  C   UNL     1       1.053   8.946  20.076  0.00  0.00    +0.000 A 
ATOM     20  C   UNL     1       0.122   9.602  20.889  0.00  0.00    +0.000 A 
ATOM     21  C   UNL     1      -0.623  10.679  20.394  0.00  0.00    +0.000 A 
ATOM     22  C   UNL     1      -0.458  11.132  19.066  0.00  0.00    +0.000 A 
ATOM     23  C   UNL     1       0.494  10.463  18.262  0.00  0.00    +0.000 A 
ATOM     24  C   UNL     1       1.236   9.389  18.761  0.00  0.00    +0.000 A 
BRANCH  22  25
ATOM     25  C   UNL     1      -1.266  12.294  18.508  0.00  0.00    +0.000 C 
ATOM     26  N   UNL     1      -1.643  13.276  19.249  0.00  0.00    +0.000 NA
ATOM     27  N   UNL     1      -1.648  12.344  17.132  0.00  0.00    +0.000 N 
ATOM     28  H   UNL     1      -1.441  13.371  20.251  0.00  0.00    +0.000 HD
ATOM     29  H   UNL     1      -1.408  11.620  16.450  0.00  0.00    +0.000 HD
ATOM     30  H   UNL     1      -2.200  13.145  16.789  0.00  0.00    +0.000 HD
ENDBRANCH  22  25
ENDBRANCH  18  19
ENDBRANCH   3  18
TORSDOF 8
ENDMDL
MODEL 6
REMARK VINA RESULT:      -7.4      2.573      8.498
REMARK  Name = 
REMARK  10 active torsions:
REMARK  status: ('A' for Active; 'I' for Inactive)
REMARK    1  A    between atoms: C_1  and  C_2
REMARK    2  A    between atoms: C_2  and  C_3
REMARK    3  A    between atoms: C_2  and  C_4
REMARK    4  A    between atoms: C_4  and  N_5
REMARK    5  A    between atoms: C_4  and  C_6
REMARK    6  A    between atoms: C_6  and  N_7
REMARK    7  A    between atoms: C_11  and  C_12
REMARK    8  A    between atoms: N_14  and  C_15
REMARK    9  A    between atoms: C_15  and  C_16
REMARK   10  A    between atoms: C_19  and  C_20
REMARK                            x       y       z     vdW  Elec       q    Type
REMARK                         _______ _______ _______ _____ _____    ______ ____
ROOT
ATOM      1  C   UNL     1       1.555   8.675  19.171  0.00  0.00    +0.000 C 
ATOM      2  O   UNL     1       1.505   8.405  20.367  0.00  0.00    +0.000 OA
ATOM      3  N   UNL     1       2.153   7.813  18.300  0.00  0.00    +0.000 N 
ATOM      4  H   UNL     1       2.158   8.047  17.297  0.00  0.00    +0.000 HD
ENDROOT
BRANCH   1   9
ATOM      5  N   UNL     1       0.034  10.544  19.717  0.00  0.00    +0.000 NA
ATOM      6  C   UNL     1       0.734  11.762  20.166  0.00  0.00    +0.000 C 
ATOM      7  C   UNL     1       1.421  12.299  18.923  0.00  0.00    +0.000 C 
ATOM      8  C   UNL     1       2.048  11.028  18.412  0.00  0.00    +0.000 C 
ATOM      9  C   UNL     1       0.954   9.983  18.685  0.00  0.00    +0.000 C 
BRANCH   5  10
ATOM     10  C   UNL     1      -1.333  10.901  19.224  0.00  0.00    +0.000 C 
BRANCH  10  11
ATOM     11  C   UNL     1      -1.537  10.844  17.675  0.00  0.00    +0.000 C 
BRANCH  11  13
ATOM     12  C   UNL     1      -4.102  10.595  17.783  0.00  0.00    +0.000 C 
ATOM     13  C   UNL     1      -2.785   9.970  17.279  0.00  0.00    +0.000 C 
ATOM     14  C   UNL     1      -2.919   9.739  15.763  0.00  0.00    +0.000 C 
ENDBRANCH  11  13
BRANCH  11  15
ATOM     15  N   UNL     1      -1.712  12.198  17.146  0.00  0.00    +0.000 NA
ATOM     16  H   UNL     1      -0.925  12.815  17.458  0.00  0.00    +0.000 HD
ATOM     17  H   UNL     1      -2.631  12.612  17.415  0.00  0.00    +0.000 HD
ENDBRANCH  11  15
ENDBRANCH  10  11
ENDBRANCH   5  10
ENDBRANCH   1   9
BRANCH   3  18
ATOM     18  C   UNL     1       2.755   6.553  18.715  0.00  0.00    +0.000 C 
BRANCH  18  19
ATOM     19  C   UNL     1       3.726   6.066  17.667  0.00  0.00    +0.000 A 
ATOM     20  C   UNL     1       4.469   6.970  16.902  0.00  0.00    +0.000 A 
ATOM     21  C   UNL     1       5.366   6.513  15.928  0.00  0.00    +0.000 A 
ATOM     22  C   UNL     1       5.544   5.132  15.691  0.00  0.00    +0.000 A 
ATOM     23  C   UNL     1       4.791   4.232  16.481  0.00  0.00    +0.000 A 
ATOM     24  C   UNL     1       3.897   4.694  17.452  0.00  0.00    +0.000 A 
BRANCH  22  25
ATOM     25  C   UNL     1       6.505   4.616  14.631  0.00  0.00    +0.000 C 
ATOM     26  N   UNL     1       6.281   3.526  13.985  0.00  0.00    +0.000 NA
ATOM     27  N   UNL     1       7.707   5.318  14.308  0.00  0.00    +0.000 N 
ATOM     28  H   UNL     1       5.460   2.922  14.113  0.00  0.00    +0.000 HD
ATOM     29  H   UNL     1       7.992   6.192  14.757  0.00  0.00    +0.000 HD
ATOM     30  H   UNL     1       8.338   4.936  13.587  0.00  0.00    +0.000 HD
ENDBRANCH  22  25
ENDBRANCH  18  19
ENDBRANCH   3  18
TORSDOF 8
ENDMDL
MODEL 7
REMARK VINA RESULT:      -7.4      1.177      1.428
REMARK  Name = 
REMARK  10 active torsions:
REMARK  status: ('A' for Active; 'I' for Inactive)
REMARK    1  A    between atoms: C_1  and  C_2
REMARK    2  A    between atoms: C_2  and  C_3
REMARK    3  A    between atoms: C_2  and  C_4
REMARK    4  A    between atoms: C_4  and  N_5
REMARK    5  A    between atoms: C_4  and  C_6
REMARK    6  A    between atoms: C_6  and  N_7
REMARK    7  A    between atoms: C_11  and  C_12
REMARK    8  A    between atoms: N_14  and  C_15
REMARK    9  A    between atoms: C_15  and  C_16
REMARK   10  A    between atoms: C_19  and  C_20
REMARK                            x       y       z     vdW  Elec       q    Type
REMARK                         _______ _______ _______ _____ _____    ______ ____
ROOT
ATOM      1  C   UNL     1       2.392   5.890  19.771  0.00  0.00    +0.000 C 
ATOM      2  O   UNL     1       1.592   5.181  20.372  0.00  0.00    +0.000 OA
ATOM      3  N   UNL     1       2.465   7.224  20.048  0.00  0.00    +0.000 N 
ATOM      4  H   UNL     1       3.164   7.795  19.552  0.00  0.00    +0.000 HD
ENDROOT
BRANCH   1   9
ATOM      5  N   UNL     1       4.614   4.922  19.297  0.00  0.00    +0.000 NA
ATOM      6  C   UNL     1       4.622   3.446  19.274  0.00  0.00    +0.000 C 
ATOM      7  C   UNL     1       3.865   3.070  18.013  0.00  0.00    +0.000 C 
ATOM      8  C   UNL     1       2.665   3.969  18.161  0.00  0.00    +0.000 C 
ATOM      9  C   UNL     1       3.285   5.264  18.713  0.00  0.00    +0.000 C 
BRANCH   5  10
ATOM     10  C   UNL     1       5.794   5.442  18.539  0.00  0.00    +0.000 C 
BRANCH  10  11
ATOM     11  C   UNL     1       6.434   4.456  17.507  0.00  0.00    +0.000 C 
BRANCH  11  13
ATOM     12  C   UNL     1       6.072   3.900  15.015  0.00  0.00    +0.000 C 
ATOM     13  C   UNL     1       6.364   5.017  16.038  0.00  0.00    +0.000 C 
ATOM     14  C   UNL     1       5.307   6.120  15.849  0.00  0.00    +0.000 C 
ENDBRANCH  11  13
BRANCH  11  15
ATOM     15  N   UNL     1       7.832   4.205  17.860  0.00  0.00    +0.000 NA
ATOM     16  H   UNL     1       8.285   5.085  18.202  0.00  0.00    +0.000 HD
ATOM     17  H   UNL     1       8.373   3.799  17.065  0.00  0.00    +0.000 HD
ENDBRANCH  11  15
ENDBRANCH  10  11
ENDBRANCH   5  10
ENDBRANCH   1   9
BRANCH   3  18
ATOM     18  C   UNL     1       1.625   7.877  21.042  0.00  0.00    +0.000 C 
BRANCH  18  19
ATOM     19  C   UNL     1       0.841   9.001  20.410  0.00  0.00    +0.000 A 
ATOM     20  C   UNL     1       0.962   9.281  19.045  0.00  0.00    +0.000 A 
ATOM     21  C   UNL     1       0.235  10.327  18.464  0.00  0.00    +0.000 A 
ATOM     22  C   UNL     1      -0.637  11.127  19.235  0.00  0.00    +0.000 A 
ATOM     23  C   UNL     1      -0.754  10.823  20.612  0.00  0.00    +0.000 A 
ATOM     24  C   UNL     1      -0.026   9.777  21.187  0.00  0.00    +0.000 A 
BRANCH  22  25
ATOM     25  C   UNL     1      -1.426  12.275  18.624  0.00  0.00    +0.000 C 
ATOM     26  N   UNL     1      -0.943  13.004  17.681  0.00  0.00    +0.000 NA
ATOM     27  N   UNL     1      -2.743  12.598  19.076  0.00  0.00    +0.000 N 
ATOM     28  H   UNL     1      -0.013  12.886  17.261  0.00  0.00    +0.000 HD
ATOM     29  H   UNL     1      -3.227  12.091  19.820  0.00  0.00    +0.000 HD
ATOM     30  H   UNL     1      -3.247  13.386  18.642  0.00  0.00    +0.000 HD
ENDBRANCH  22  25
ENDBRANCH  18  19
ENDBRANCH   3  18
TORSDOF 8
ENDMDL
MODEL 8
REMARK VINA RESULT:      -7.4      2.407      4.123
REMARK  Name = 
REMARK  10 active torsions:
REMARK  status: ('A' for Active; 'I' for Inactive)
REMARK    1  A    between atoms: C_1  and  C_2
REMARK    2  A    between atoms: C_2  and  C_3
REMARK    3  A    between atoms: C_2  and  C_4
REMARK    4  A    between atoms: C_4  and  N_5
REMARK    5  A    between atoms: C_4  and  C_6
REMARK    6  A    between atoms: C_6  and  N_7
REMARK    7  A    between atoms: C_11  and  C_12
REMARK    8  A    between atoms: N_14  and  C_15
REMARK    9  A    between atoms: C_15  and  C_16
REMARK   10  A    between atoms: C_19  and  C_20
REMARK                            x       y       z     vdW  Elec       q    Type
REMARK                         _______ _______ _______ _____ _____    ______ ____
ROOT
ATOM      1  C   UNL     1       4.211   6.748  17.542  0.00  0.00    +0.000 C 
ATOM      2  O   UNL     1       4.711   7.589  16.802  0.00  0.00    +0.000 OA
ATOM      3  N   UNL     1       2.976   6.959  18.081  0.00  0.00    +0.000 N 
ATOM      4  H   UNL     1       2.564   6.227  18.677  0.00  0.00    +0.000 HD
ENDROOT
BRANCH   1   9
ATOM      5  N   UNL     1       4.449   4.334  17.071  0.00  0.00    +0.000 NA
ATOM      6  C   UNL     1       5.542   4.022  16.130  0.00  0.00    +0.000 C 
ATOM      7  C   UNL     1       6.817   4.295  16.908  0.00  0.00    +0.000 C 
ATOM      8  C   UNL     1       6.477   5.643  17.487  0.00  0.00    +0.000 C 
ATOM      9  C   UNL     1       4.992   5.482  17.854  0.00  0.00    +0.000 C 
BRANCH   5  10
ATOM     10  C   UNL     1       4.114   3.118  17.875  0.00  0.00    +0.000 C 
BRANCH  10  11
ATOM     11  C   UNL     1       4.205   3.279  19.428  0.00  0.00    +0.000 C 
BRANCH  11  13
ATOM     12  C   UNL     1       1.649   3.140  19.109  0.00  0.00    +0.000 C 
ATOM     13  C   UNL     1       2.790   3.515  20.077  0.00  0.00    +0.000 C 
ATOM     14  C   UNL     1       2.575   2.735  21.387  0.00  0.00    +0.000 C 
ENDBRANCH  11  13
BRANCH  11  15
ATOM     15  N   UNL     1       4.810   2.084  20.017  0.00  0.00    +0.000 NA
ATOM     16  H   UNL     1       5.555   1.704  19.386  0.00  0.00    +0.000 HD
ATOM     17  H   UNL     1       4.103   1.348  20.235  0.00  0.00    +0.000 HD
ENDBRANCH  11  15
ENDBRANCH  10  11
ENDBRANCH   5  10
ENDBRANCH   1   9
BRANCH   3  18
ATOM     18  C   UNL     1       2.191   8.158  17.825  0.00  0.00    +0.000 C 
BRANCH  18  19
ATOM     19  C   UNL     1       1.556   8.652  19.102  0.00  0.00    +0.000 A 
ATOM     20  C   UNL     1       0.756   9.800  19.109  0.00  0.00    +0.000 A 
ATOM     21  C   UNL     1       0.172  10.256  20.296  0.00  0.00    +0.000 A 
ATOM     22  C   UNL     1       0.373   9.574  21.517  0.00  0.00    +0.000 A 
ATOM     23  C   UNL     1       1.176   8.410  21.490  0.00  0.00    +0.000 A 
ATOM     24  C   UNL     1       1.756   7.959  20.301  0.00  0.00    +0.000 A 
BRANCH  22  25
ATOM     25  C   UNL     1      -0.245  10.059  22.820  0.00  0.00    +0.000 C 
ATOM     26  N   UNL     1       0.102   9.569  23.958  0.00  0.00    +0.000 NA
ATOM     27  N   UNL     1      -1.245  11.080  22.838  0.00  0.00    +0.000 N 
ATOM     28  H   UNL     1       0.806   8.834  24.095  0.00  0.00    +0.000 HD
ATOM     29  H   UNL     1      -1.601  11.539  21.996  0.00  0.00    +0.000 HD
ATOM     30  H   UNL     1      -1.645  11.380  23.739  0.00  0.00    +0.000 HD
ENDBRANCH  22  25
ENDBRANCH  18  19
ENDBRANCH   3  18
TORSDOF 8
ENDMDL
MODEL 9
REMARK VINA RESULT:      -7.3      0.691      1.031
REMARK  Name = 
REMARK  10 active torsions:
REMARK  status: ('A' for Active; 'I' for Inactive)
REMARK    1  A    between atoms: C_1  and  C_2
REMARK    2  A    between atoms: C_2  and  C_3
REMARK    3  A    between atoms: C_2  and  C_4
REMARK    4  A    between atoms: C_4  and  N_5
REMARK    5  A    between atoms: C_4  and  C_6
REMARK    6  A    between atoms: C_6  and  N_7
REMARK    7  A    between atoms: C_11  and  C_12
REMARK    8  A    between atoms: N_14  and  C_15
REMARK    9  A    between atoms: C_15  and  C_16
REMARK   10  A    between atoms: C_19  and  C_20
REMARK                            x       y       z     vdW  Elec       q    Type
REMARK                         _______ _______ _______ _____ _____    ______ ____
ROOT
ATOM      1  C   UNL     1       2.400   5.437  20.075  0.00  0.00    +0.000 C 
ATOM      2  O   UNL     1       2.098   5.011  21.184  0.00  0.00    +0.000 OA
ATOM      3  N   UNL     1       2.321   6.774  19.811  0.00  0.00    +0.000 N 
ATOM      4  H   UNL     1       2.607   7.112  18.882  0.00  0.00    +0.000 HD
ENDROOT
BRANCH   1   9
ATOM      5  N   UNL     1       4.287   4.109  19.193  0.00  0.00    +0.000 NA
ATOM      6  C   UNL     1       4.241   2.687  19.585  0.00  0.00    +0.000 C 
ATOM      7  C   UNL     1       3.080   2.103  18.799  0.00  0.00    +0.000 C 
ATOM      8  C   UNL     1       2.036   3.153  19.071  0.00  0.00    +0.000 C 
ATOM      9  C   UNL     1       2.848   4.457  19.004  0.00  0.00    +0.000 C 
BRANCH   5  10
ATOM     10  C   UNL     1       5.145   4.269  17.978  0.00  0.00    +0.000 C 
BRANCH  10  11
ATOM     11  C   UNL     1       6.574   4.854  18.223  0.00  0.00    +0.000 C 
BRANCH  11  13
ATOM     12  C   UNL     1       5.640   6.580  16.550  0.00  0.00    +0.000 C 
ATOM     13  C   UNL     1       6.911   6.020  17.220  0.00  0.00    +0.000 C 
ATOM     14  C   UNL     1       7.661   7.197  17.872  0.00  0.00    +0.000 C 
ENDBRANCH  11  13
BRANCH  11  15
ATOM     15  N   UNL     1       6.678   5.355  19.595  0.00  0.00    +0.000 NA
ATOM     16  H   UNL     1       6.894   4.571  20.254  0.00  0.00    +0.000 HD
ATOM     17  H   UNL     1       5.817   5.863  19.896  0.00  0.00    +0.000 HD
ENDBRANCH  11  15
ENDBRANCH  10  11
ENDBRANCH   5  10
ENDBRANCH   1   9
BRANCH   3  18
ATOM     18  C   UNL     1       1.886   7.754  20.796  0.00  0.00    +0.000 C 
BRANCH  18  19
ATOM     19  C   UNL     1       1.050   8.824  20.137  0.00  0.00    +0.000 A 
ATOM     20  C   UNL     1       1.234   9.150  18.789  0.00  0.00    +0.000 A 
ATOM     21  C   UNL     1       0.459  10.146  18.183  0.00  0.00    +0.000 A 
ATOM     22  C   UNL     1      -0.526  10.849  18.912  0.00  0.00    +0.000 A 
ATOM     23  C   UNL     1      -0.704  10.500  20.271  0.00  0.00    +0.000 A 
ATOM     24  C   UNL     1       0.072   9.504  20.871  0.00  0.00    +0.000 A 
BRANCH  22  25
ATOM     25  C   UNL     1      -1.371  11.941  18.275  0.00  0.00    +0.000 C 
ATOM     26  N   UNL     1      -2.656  11.884  18.263  0.00  0.00    +0.000 NA
ATOM     27  N   UNL     1      -0.773  13.080  17.653  0.00  0.00    +0.000 N 
ATOM     28  H   UNL     1      -3.218  11.128  18.672  0.00  0.00    +0.000 HD
ATOM     29  H   UNL     1       0.237  13.231  17.598  0.00  0.00    +0.000 HD
ATOM     30  H   UNL     1      -1.377  13.799  17.226  0.00  0.00    +0.000 HD
ENDBRANCH  22  25
ENDBRANCH  18  19
ENDBRANCH   3  18
TORSDOF 8
ENDMDL
