MODEL 1
REMARK VINA RESULT:      -8.5      0.000      0.000
REMARK  Name = 
REMARK  11 active torsions:
REMARK  status: ('A' for Active; 'I' for Inactive)
REMARK    1  A    between atoms: C_1  and  O_2
REMARK    2  A    between atoms: O_2  and  C_3
REMARK    3  A    between atoms: C_8  and  N_9
REMARK    4  A    between atoms: C_12  and  C_13
REMARK    5  A    between atoms: C_13  and  O_14
REMARK    6  A    between atoms: O_14  and  C_15
REMARK    7  A    between atoms: C_18  and  N_19
REMARK    8  A    between atoms: C_21  and  C_22
REMARK    9  A    between atoms: C_27  and  C_28
REMARK   10  A    between atoms: C_28  and  C_29
REMARK   11  A    between atoms: C_29  and  O_31
REMARK                            x       y       z     vdW  Elec       q    Type
REMARK                         _______ _______ _______ _____ _____    ______ ____
ROOT
ATOM      1  C   UNL     1       1.505   9.371  19.413  0.00  0.00    +0.000 A 
ATOM      2  C   UNL     1       1.515   8.270  20.260  0.00  0.00    +0.000 A 
ATOM      3  C   UNL     1       1.947   7.020  19.804  0.00  0.00    +0.000 A 
ATOM      4  C   UNL     1       2.377   6.814  18.486  0.00  0.00    +0.000 A 
ATOM      5  C   UNL     1       2.378   7.939  17.649  0.00  0.00    +0.000 A 
ATOM      6  C   UNL     1       1.938   9.204  18.099  0.00  0.00    +0.000 A 
ENDROOT
BRANCH   4   7
ATOM      7  N   UNL     1       2.793   5.569  18.073  0.00  0.00    +0.000 N 
ATOM      8  C   UNL     1       1.843   4.501  17.769  0.00  0.00    +0.000 C 
ATOM      9  C   UNL     1       2.634   3.228  18.019  0.00  0.00    +0.000 C 
ATOM     10  C   UNL     1       4.052   3.624  17.595  0.00  0.00    +0.000 C 
ATOM     11  C   UNL     1       4.193   5.139  17.882  0.00  0.00    +0.000 C 
BRANCH   9  12
ATOM     12  C   UNL     1       2.512   2.768  19.463  0.00  0.00    +0.000 C 
ATOM     13  F   UNL     1       3.697   2.543  20.067  0.00  0.00    +0.000 F 
ATOM     14  F   UNL     1       1.880   3.723  20.191  0.00  0.00    +0.000 F 
ATOM     15  F   UNL     1       1.779   1.639  19.584  0.00  0.00    +0.000 F 
ENDBRANCH   9  12
BRANCH  11  16
ATOM     16  C   UNL     1       5.027   5.458  19.125  0.00  0.00    +0.000 C 
BRANCH  16  17
ATOM     17  C   UNL     1       6.514   5.469  18.885  0.00  0.00    +0.000 C 
ATOM     18  O   UNL     1       7.055   5.579  17.802  0.00  0.00    +0.000 OA
BRANCH  17  19
ATOM     19  O   UNL     1       7.207   5.346  20.044  0.00  0.00    +0.000 OA
ATOM     20  H   UNL     1       7.544   4.443  20.206  0.00  0.00    +0.000 HD
ENDBRANCH  17  19
ENDBRANCH  16  17
ENDBRANCH  11  16
ENDBRANCH   4   7
BRANCH   1  21
ATOM     21  O   UNL     1       1.006  10.514  19.971  0.00  0.00    +0.000 OA
BRANCH  21  22
ATOM     22  C   UNL     1      -0.387  10.540  20.271  0.00  0.00    +0.000 C 
BRANCH  22  26
ATOM     23  N   UNL     1      -3.335  11.860  18.468  0.00  0.00    +0.000 N 
ATOM     24  C   UNL     1      -2.835  10.947  17.445  0.00  0.00    +0.000 C 
ATOM     25  C   UNL     1      -1.719  10.182  18.137  0.00  0.00    +0.000 C 
ATOM     26  C   UNL     1      -1.132  11.204  19.108  0.00  0.00    +0.000 C 
ATOM     27  C   UNL     1      -2.356  12.029  19.554  0.00  0.00    +0.000 C 
BRANCH  23  33
ATOM     28  C   UNL     1      -6.446  12.052  20.485  0.00  0.00    +0.000 A 
ATOM     29  C   UNL     1      -7.399  12.375  19.523  0.00  0.00    +0.000 A 
ATOM     30  C   UNL     1      -7.020  12.485  18.189  0.00  0.00    +0.000 A 
ATOM     31  C   UNL     1      -5.686  12.294  17.820  0.00  0.00    +0.000 A 
ATOM     32  F   UNL     1      -5.396  12.382  16.513  0.00  0.00    +0.000 F 
ATOM     33  C   UNL     1      -4.687  11.984  18.763  0.00  0.00    +0.000 A 
ATOM     34  C   UNL     1      -5.114  11.837  20.095  0.00  0.00    +0.000 A 
BRANCH  28  36
ATOM     35  C   UNL     1      -6.159  12.972  22.658  0.00  0.00    +0.000 C 
ATOM     36  O   UNL     1      -6.683  11.939  21.830  0.00  0.00    +0.000 OA
ENDBRANCH  28  36
ENDBRANCH  23  33
ENDBRANCH  22  26
ENDBRANCH  21  22
ENDBRANCH   1  21
TORSDOF 10
ENDMDL
MODEL 2
REMARK VINA RESULT:      -8.5      2.184      2.810
REMARK  Name = 
REMARK  11 active torsions:
REMARK  status: ('A' for Active; 'I' for Inactive)
REMARK    1  A    between atoms: C_1  and  O_2
REMARK    2  A    between atoms: O_2  and  C_3
REMARK    3  A    between atoms: C_8  and  N_9
REMARK    4  A    between atoms: C_12  and  C_13
REMARK    5  A    between atoms: C_13  and  O_14
REMARK    6  A    between atoms: O_14  and  C_15
REMARK    7  A    between atoms: C_18  and  N_19
REMARK    8  A    between atoms: C_21  and  C_22
REMARK    9  A    between atoms: C_27  and  C_28
REMARK   10  A    between atoms: C_28  and  C_29
REMARK   11  A    between atoms: C_29  and  O_31
REMARK                            x       y       z     vdW  Elec       q    Type
REMARK                         _______ _______ _______ _____ _____    ______ ____
ROOT
ATOM      1  C   UNL     1       0.967   9.833  19.041  0.00  0.00    +0.000 A 
ATOM      2  C   UNL     1       1.519   9.314  17.877  0.00  0.00    +0.000 A 
ATOM      3  C   UNL     1       2.193   8.088  17.888  0.00  0.00    +0.000 A 
ATOM      4  C   UNL     1       2.352   7.335  19.060  0.00  0.00    +0.000 A 
ATOM      5  C   UNL     1       1.773   7.863  20.222  0.00  0.00    +0.000 A 
ATOM      6  C   UNL     1       1.096   9.104  20.221  0.00  0.00    +0.000 A 
ENDROOT
BRANCH   4   7
ATOM      7  N   UNL     1       3.023   6.134  19.033  0.00  0.00    +0.000 N 
ATOM      8  C   UNL     1       3.682   5.647  17.823  0.00  0.00    +0.000 C 
ATOM      9  C   UNL     1       3.685   4.137  17.992  0.00  0.00    +0.000 C 
ATOM     10  C   UNL     1       3.849   3.969  19.506  0.00  0.00    +0.000 C 
ATOM     11  C   UNL     1       3.174   5.197  20.164  0.00  0.00    +0.000 C 
BRANCH   9  12
ATOM     12  C   UNL     1       2.425   3.508  17.419  0.00  0.00    +0.000 C 
ATOM     13  F   UNL     1       1.333   4.296  17.504  0.00  0.00    +0.000 F 
ATOM     14  F   UNL     1       2.610   3.243  16.101  0.00  0.00    +0.000 F 
ATOM     15  F   UNL     1       2.120   2.333  18.012  0.00  0.00    +0.000 F 
ENDBRANCH   9  12
BRANCH  11  16
ATOM     16  C   UNL     1       1.813   4.891  20.794  0.00  0.00    +0.000 C 
BRANCH  16  17
ATOM     17  C   UNL     1       1.694   3.502  21.362  0.00  0.00    +0.000 C 
ATOM     18  O   UNL     1       2.358   3.052  22.276  0.00  0.00    +0.000 OA
BRANCH  17  19
ATOM     19  O   UNL     1       0.732   2.785  20.730  0.00  0.00    +0.000 OA
ATOM     20  H   UNL     1       0.197   3.312  20.105  0.00  0.00    +0.000 HD
ENDBRANCH  17  19
ENDBRANCH  16  17
ENDBRANCH  11  16
ENDBRANCH   4   7
BRANCH   1  21
ATOM     21  O   UNL     1       0.388  11.063  18.898  0.00  0.00    +0.000 OA
BRANCH  21  22
ATOM     22  C   UNL     1      -0.629  11.417  19.832  0.00  0.00    +0.000 C 
BRANCH  22  26
ATOM     23  N   UNL     1      -4.195  12.205  19.243  0.00  0.00    +0.000 N 
ATOM     24  C   UNL     1      -3.909  11.506  17.994  0.00  0.00    +0.000 C 
ATOM     25  C   UNL     1      -2.508  10.950  18.187  0.00  0.00    +0.000 C 
ATOM     26  C   UNL     1      -1.825  11.995  19.067  0.00  0.00    +0.000 C 
ATOM     27  C   UNL     1      -2.957  12.496  19.985  0.00  0.00    +0.000 C 
BRANCH  23  33
ATOM     28  C   UNL     1      -6.842  12.742  21.790  0.00  0.00    +0.000 A 
ATOM     29  C   UNL     1      -7.810  11.818  21.405  0.00  0.00    +0.000 A 
ATOM     30  C   UNL     1      -7.567  10.978  20.324  0.00  0.00    +0.000 A 
ATOM     31  C   UNL     1      -6.368  11.076  19.613  0.00  0.00    +0.000 A 
ATOM     32  F   UNL     1      -6.185  10.212  18.603  0.00  0.00    +0.000 F 
ATOM     33  C   UNL     1      -5.370  12.008  19.957  0.00  0.00    +0.000 A 
ATOM     34  C   UNL     1      -5.631  12.811  21.082  0.00  0.00    +0.000 A 
BRANCH  28  36
ATOM     35  C   UNL     1      -7.141  13.098  24.121  0.00  0.00    +0.000 C 
ATOM     36  O   UNL     1      -6.967  13.642  22.817  0.00  0.00    +0.000 OA
ENDBRANCH  28  36
ENDBRANCH  23  33
ENDBRANCH  22  26
ENDBRANCH  21  22
ENDBRANCH   1  21
TORSDOF 10
ENDMDL
MODEL 3
REMARK VINA RESULT:      -8.4      1.005      1.155
REMARK  Name = 
REMARK  11 active torsions:
REMARK  status: ('A' for Active; 'I' for Inactive)
REMARK    1  A    between atoms: C_1  and  O_2
REMARK    2  A    between atoms: O_2  and  C_3
REMARK    3  A    between atoms: C_8  and  N_9
REMARK    4  A    between atoms: C_12  and  C_13
REMARK    5  A    between atoms: C_13  and  O_14
REMARK    6  A    between atoms: O_14  and  C_15
REMARK    7  A    between atoms: C_18  and  N_19
REMARK    8  A    between atoms: C_21  and  C_22
REMARK    9  A    between atoms: C_27  and  C_28
REMARK   10  A    between atoms: C_28  and  C_29
REMARK   11  A    between atoms: C_29  and  O_31
REMARK                            x       y       z     vdW  Elec       q    Type
REMARK                         _______ _______ _______ _____ _____    ______ ____
ROOT
ATOM      1  C   UNL     1       1.654   9.039  19.176  0.00  0.00    +0.000 A 
ATOM      2  C   UNL     1       1.529   8.224  20.293  0.00  0.00    +0.000 A 
ATOM      3  C   UNL     1       1.792   6.852  20.212  0.00  0.00    +0.000 A 
ATOM      4  C   UNL     1       2.179   6.236  19.014  0.00  0.00    +0.000 A 
ATOM      5  C   UNL     1       2.318   7.076  17.899  0.00  0.00    +0.000 A 
ATOM      6  C   UNL     1       2.049   8.461  17.971  0.00  0.00    +0.000 A 
ENDROOT
BRANCH   4   7
ATOM      7  N   UNL     1       2.426   4.884  18.972  0.00  0.00    +0.000 N 
ATOM      8  C   UNL     1       1.396   3.901  19.299  0.00  0.00    +0.000 C 
ATOM      9  C   UNL     1       2.182   2.692  19.776  0.00  0.00    +0.000 C 
ATOM     10  C   UNL     1       3.445   2.749  18.909  0.00  0.00    +0.000 C 
ATOM     11  C   UNL     1       3.707   4.245  18.608  0.00  0.00    +0.000 C 
BRANCH   9  12
ATOM     12  C   UNL     1       2.441   2.748  21.273  0.00  0.00    +0.000 C 
ATOM     13  F   UNL     1       3.639   2.249  21.640  0.00  0.00    +0.000 F 
ATOM     14  F   UNL     1       2.414   4.039  21.690  0.00  0.00    +0.000 F 
ATOM     15  F   UNL     1       1.498   2.091  21.984  0.00  0.00    +0.000 F 
ENDBRANCH   9  12
BRANCH  11  16
ATOM     16  C   UNL     1       4.857   4.846  19.419  0.00  0.00    +0.000 C 
BRANCH  16  17
ATOM     17  C   UNL     1       6.090   5.153  18.610  0.00  0.00    +0.000 C 
ATOM     18  O   UNL     1       7.112   4.495  18.600  0.00  0.00    +0.000 OA
BRANCH  17  19
ATOM     19  O   UNL     1       5.931   6.275  17.865  0.00  0.00    +0.000 OA
ATOM     20  H   UNL     1       6.352   7.067  18.253  0.00  0.00    +0.000 HD
ENDBRANCH  17  19
ENDBRANCH  16  17
ENDBRANCH  11  16
ENDBRANCH   4   7
BRANCH   1  21
ATOM     21  O   UNL     1       1.313  10.346  19.383  0.00  0.00    +0.000 OA
BRANCH  21  22
ATOM     22  C   UNL     1      -0.001  10.607  19.873  0.00  0.00    +0.000 C 
BRANCH  22  26
ATOM     23  N   UNL     1      -3.104  11.717  18.193  0.00  0.00    +0.000 N 
ATOM     24  C   UNL     1      -2.575  10.853  17.142  0.00  0.00    +0.000 C 
ATOM     25  C   UNL     1      -1.380  10.169  17.784  0.00  0.00    +0.000 C 
ATOM     26  C   UNL     1      -0.836  11.224  18.745  0.00  0.00    +0.000 C 
ATOM     27  C   UNL     1      -2.101  11.950  19.245  0.00  0.00    +0.000 C 
BRANCH  23  33
ATOM     28  C   UNL     1      -6.142  11.968  20.312  0.00  0.00    +0.000 A 
ATOM     29  C   UNL     1      -7.162  11.949  19.365  0.00  0.00    +0.000 A 
ATOM     30  C   UNL     1      -6.847  11.805  18.018  0.00  0.00    +0.000 A 
ATOM     31  C   UNL     1      -5.512  11.703  17.616  0.00  0.00    +0.000 A 
ATOM     32  F   UNL     1      -5.282  11.532  16.305  0.00  0.00    +0.000 F 
ATOM     33  C   UNL     1      -4.450  11.735  18.539  0.00  0.00    +0.000 A 
ATOM     34  C   UNL     1      -4.808  11.837  19.895  0.00  0.00    +0.000 A 
BRANCH  28  36
ATOM     35  C   UNL     1      -7.659  12.164  22.131  0.00  0.00    +0.000 C 
ATOM     36  O   UNL     1      -6.316  12.129  21.662  0.00  0.00    +0.000 OA
ENDBRANCH  28  36
ENDBRANCH  23  33
ENDBRANCH  22  26
ENDBRANCH  21  22
ENDBRANCH   1  21
TORSDOF 10
ENDMDL
MODEL 4
REMARK VINA RESULT:      -8.4      2.272      3.017
REMARK  Name = 
REMARK  11 active torsions:
REMARK  status: ('A' for Active; 'I' for Inactive)
REMARK    1  A    between atoms: C_1  and  O_2
REMARK    2  A    between atoms: O_2  and  C_3
REMARK    3  A    between atoms: C_8  and  N_9
REMARK    4  A    between atoms: C_12  and  C_13
REMARK    5  A    between atoms: C_13  and  O_14
REMARK    6  A    between atoms: O_14  and  C_15
REMARK    7  A    between atoms: C_18  and  N_19
REMARK    8  A    between atoms: C_21  and  C_22
REMARK    9  A    between atoms: C_27  and  C_28
REMARK   10  A    between atoms: C_28  and  C_29
REMARK   11  A    between atoms: C_29  and  O_31
REMARK                            x       y       z     vdW  Elec       q    Type
REMARK                         _______ _______ _______ _____ _____    ______ ____
ROOT
ATOM      1  C   UNL     1       1.477   8.900  19.776  0.00  0.00    +0.000 A 
ATOM      2  C   UNL     1       1.787   8.941  18.423  0.00  0.00    +0.000 A 
ATOM      3  C   UNL     1       2.322   7.822  17.777  0.00  0.00    +0.000 A 
ATOM      4  C   UNL     1       2.579   6.622  18.453  0.00  0.00    +0.000 A 
ATOM      5  C   UNL     1       2.243   6.590  19.814  0.00  0.00    +0.000 A 
ATOM      6  C   UNL     1       1.707   7.718  20.476  0.00  0.00    +0.000 A 
ENDROOT
BRANCH   4   7
ATOM      7  N   UNL     1       3.108   5.542  17.784  0.00  0.00    +0.000 N 
ATOM      8  C   UNL     1       2.366   4.293  17.628  0.00  0.00    +0.000 C 
ATOM      9  C   UNL     1       3.451   3.240  17.480  0.00  0.00    +0.000 C 
ATOM     10  C   UNL     1       4.551   3.995  16.725  0.00  0.00    +0.000 C 
ATOM     11  C   UNL     1       4.441   5.480  17.152  0.00  0.00    +0.000 C 
BRANCH   9  12
ATOM     12  C   UNL     1       3.878   2.683  18.828  0.00  0.00    +0.000 C 
ATOM     13  F   UNL     1       5.092   3.108  19.236  0.00  0.00    +0.000 F 
ATOM     14  F   UNL     1       2.992   3.069  19.780  0.00  0.00    +0.000 F 
ATOM     15  F   UNL     1       3.900   1.332  18.843  0.00  0.00    +0.000 F 
ENDBRANCH   9  12
BRANCH  11  16
ATOM     16  C   UNL     1       5.525   5.921  18.137  0.00  0.00    +0.000 C 
BRANCH  16  17
ATOM     17  C   UNL     1       6.922   5.523  17.739  0.00  0.00    +0.000 C 
ATOM     18  O   UNL     1       7.596   4.670  18.284  0.00  0.00    +0.000 OA
BRANCH  17  19
ATOM     19  O   UNL     1       7.358   6.235  16.670  0.00  0.00    +0.000 OA
ATOM     20  H   UNL     1       6.812   7.020  16.473  0.00  0.00    +0.000 HD
ENDBRANCH  17  19
ENDBRANCH  16  17
ENDBRANCH  11  16
ENDBRANCH   4   7
BRANCH   1  21
ATOM     21  O   UNL     1       1.015  10.079  20.290  0.00  0.00    +0.000 OA
BRANCH  21  22
ATOM     22  C   UNL     1       0.126  10.002  21.402  0.00  0.00    +0.000 C 
BRANCH  22  26
ATOM     23  N   UNL     1      -2.220  12.710  22.325  0.00  0.00    +0.000 N 
ATOM     24  C   UNL     1      -1.532  13.373  21.222  0.00  0.00    +0.000 C 
ATOM     25  C   UNL     1      -0.659  12.286  20.615  0.00  0.00    +0.000 C 
ATOM     26  C   UNL     1      -0.277  11.422  21.815  0.00  0.00    +0.000 C 
ATOM     27  C   UNL     1      -1.528  11.469  22.713  0.00  0.00    +0.000 C 
BRANCH  23  33
ATOM     28  C   UNL     1      -5.841  12.623  21.512  0.00  0.00    +0.000 A 
ATOM     29  C   UNL     1      -6.426  12.778  22.766  0.00  0.00    +0.000 A 
ATOM     30  C   UNL     1      -5.618  12.961  23.884  0.00  0.00    +0.000 A 
ATOM     31  C   UNL     1      -4.227  12.964  23.752  0.00  0.00    +0.000 A 
ATOM     32  F   UNL     1      -3.510  13.179  24.865  0.00  0.00    +0.000 F 
ATOM     33  C   UNL     1      -3.595  12.793  22.506  0.00  0.00    +0.000 A 
ATOM     34  C   UNL     1      -4.443  12.656  21.392  0.00  0.00    +0.000 A 
BRANCH  28  36
ATOM     35  C   UNL     1      -7.164  11.150  20.197  0.00  0.00    +0.000 C 
ATOM     36  O   UNL     1      -6.520  12.411  20.340  0.00  0.00    +0.000 OA
ENDBRANCH  28  36
ENDBRANCH  23  33
ENDBRANCH  22  26
ENDBRANCH  21  22
ENDBRANCH   1  21
TORSDOF 10
ENDMDL
MODEL 5
REMARK VINA RESULT:      -8.4      3.142     10.566
REMARK  Name = 
REMARK  11 active torsions:
REMARK  status: ('A' for Active; 'I' for Inactive)
REMARK    1  A    between atoms: C_1  and  O_2
REMARK    2  A    between atoms: O_2  and  C_3
REMARK    3  A    between atoms: C_8  and  N_9
REMARK    4  A    between atoms: C_12  and  C_13
REMARK    5  A    between atoms: C_13  and  O_14
REMARK    6  A    between atoms: O_14  and  C_15
REMARK    7  A    between atoms: C_18  and  N_19
REMARK    8  A    between atoms: C_21  and  C_22
REMARK    9  A    between atoms: C_27  and  C_28
REMARK   10  A    between atoms: C_28  and  C_29
REMARK   11  A    between atoms: C_29  and  O_31
REMARK                            x       y       z     vdW  Elec       q    Type
REMARK                         _______ _______ _______ _____ _____    ______ ____
ROOT
ATOM      1  C   UNL     1       1.671   6.899  20.474  0.00  0.00    +0.000 A 
ATOM      2  C   UNL     1       0.869   7.598  21.367  0.00  0.00    +0.000 A 
ATOM      3  C   UNL     1       0.493   8.920  21.108  0.00  0.00    +0.000 A 
ATOM      4  C   UNL     1       0.907   9.602  19.956  0.00  0.00    +0.000 A 
ATOM      5  C   UNL     1       1.701   8.877  19.056  0.00  0.00    +0.000 A 
ATOM      6  C   UNL     1       2.091   7.543  19.312  0.00  0.00    +0.000 A 
ENDROOT
BRANCH   4   7
ATOM      7  N   UNL     1       0.519  10.903  19.737  0.00  0.00    +0.000 N 
ATOM      8  C   UNL     1       0.830  11.971  20.684  0.00  0.00    +0.000 C 
ATOM      9  C   UNL     1      -0.268  12.995  20.455  0.00  0.00    +0.000 C 
ATOM     10  C   UNL     1      -0.534  12.871  18.950  0.00  0.00    +0.000 C 
ATOM     11  C   UNL     1      -0.237  11.400  18.569  0.00  0.00    +0.000 C 
BRANCH   9  12
ATOM     12  C   UNL     1      -1.477  12.725  21.335  0.00  0.00    +0.000 C 
ATOM     13  F   UNL     1      -1.648  13.629  22.322  0.00  0.00    +0.000 F 
ATOM     14  F   UNL     1      -2.604  12.759  20.579  0.00  0.00    +0.000 F 
ATOM     15  F   UNL     1      -1.434  11.504  21.912  0.00  0.00    +0.000 F 
ENDBRANCH   9  12
BRANCH  11  16
ATOM     16  C   UNL     1      -1.491  10.554  18.340  0.00  0.00    +0.000 C 
BRANCH  16  17
ATOM     17  C   UNL     1      -2.559  11.240  17.530  0.00  0.00    +0.000 C 
ATOM     18  O   UNL     1      -3.676  11.518  17.922  0.00  0.00    +0.000 OA
BRANCH  17  19
ATOM     19  O   UNL     1      -2.126  11.529  16.277  0.00  0.00    +0.000 OA
ATOM     20  H   UNL     1      -1.588  10.820  15.874  0.00  0.00    +0.000 HD
ENDBRANCH  17  19
ENDBRANCH  16  17
ENDBRANCH  11  16
ENDBRANCH   4   7
BRANCH   1  21
ATOM     21  O   UNL     1       2.008   5.638  20.878  0.00  0.00    +0.000 OA
BRANCH  21  22
ATOM     22  C   UNL     1       1.157   4.571  20.465  0.00  0.00    +0.000 C 
BRANCH  22  26
ATOM     23  N   UNL     1       3.861   3.758  18.075  0.00  0.00    +0.000 N 
ATOM     24  C   UNL     1       2.715   3.587  17.187  0.00  0.00    +0.000 C 
ATOM     25  C   UNL     1       1.532   4.085  18.000  0.00  0.00    +0.000 C 
ATOM     26  C   UNL     1       1.901   3.714  19.434  0.00  0.00    +0.000 C 
ATOM     27  C   UNL     1       3.431   3.893  19.476  0.00  0.00    +0.000 C 
BRANCH  23  33
ATOM     28  C   UNL     1       6.692   4.756  15.891  0.00  0.00    +0.000 A 
ATOM     29  C   UNL     1       7.329   5.725  16.662  0.00  0.00    +0.000 A 
ATOM     30  C   UNL     1       6.847   6.018  17.934  0.00  0.00    +0.000 A 
ATOM     31  C   UNL     1       5.716   5.360  18.425  0.00  0.00    +0.000 A 
ATOM     32  F   UNL     1       5.326   5.667  19.671  0.00  0.00    +0.000 F 
ATOM     33  C   UNL     1       5.032   4.387  17.672  0.00  0.00    +0.000 A 
ATOM     34  C   UNL     1       5.573   4.085  16.409  0.00  0.00    +0.000 A 
BRANCH  28  36
ATOM     35  C   UNL     1       6.005   3.928  13.772  0.00  0.00    +0.000 C 
ATOM     36  O   UNL     1       7.050   4.394  14.618  0.00  0.00    +0.000 OA
ENDBRANCH  28  36
ENDBRANCH  23  33
ENDBRANCH  22  26
ENDBRANCH  21  22
ENDBRANCH   1  21
TORSDOF 10
ENDMDL
MODEL 6
REMARK VINA RESULT:      -8.4      1.928      2.993
REMARK  Name = 
REMARK  11 active torsions:
REMARK  status: ('A' for Active; 'I' for Inactive)
REMARK    1  A    between atoms: C_1  and  O_2
REMARK    2  A    between atoms: O_2  and  C_3
REMARK    3  A    between atoms: C_8  and  N_9
REMARK    4  A    between atoms: C_12  and  C_13
REMARK    5  A    between atoms: C_13  and  O_14
REMARK    6  A    between atoms: O_14  and  C_15
REMARK    7  A    between atoms: C_18  and  N_19
REMARK    8  A    between atoms: C_21  and  C_22
REMARK    9  A    between atoms: C_27  and  C_28
REMARK   10  A    between atoms: C_28  and  C_29
REMARK   11  A    between atoms: C_29  and  O_31
REMARK                            x       y       z     vdW  Elec       q    Type
REMARK                         _______ _______ _______ _____ _____    ______ ____
ROOT
ATOM      1  C   UNL     1       1.699   9.319  19.191  0.00  0.00    +0.000 A 
ATOM      2  C   UNL     1       2.092   9.048  17.887  0.00  0.00    +0.000 A 
ATOM      3  C   UNL     1       2.458   7.754  17.503  0.00  0.00    +0.000 A 
ATOM      4  C   UNL     1       2.456   6.680  18.404  0.00  0.00    +0.000 A 
ATOM      5  C   UNL     1       2.038   6.965  19.712  0.00  0.00    +0.000 A 
ATOM      6  C   UNL     1       1.673   8.271  20.110  0.00  0.00    +0.000 A 
ENDROOT
BRANCH   4   7
ATOM      7  N   UNL     1       2.824   5.420  17.991  0.00  0.00    +0.000 N 
ATOM      8  C   UNL     1       1.845   4.350  17.812  0.00  0.00    +0.000 C 
ATOM      9  C   UNL     1       2.650   3.080  18.023  0.00  0.00    +0.000 C 
ATOM     10  C   UNL     1       4.023   3.453  17.452  0.00  0.00    +0.000 C 
ATOM     11  C   UNL     1       4.197   4.975  17.679  0.00  0.00    +0.000 C 
BRANCH   9  12
ATOM     12  C   UNL     1       2.666   2.663  19.485  0.00  0.00    +0.000 C 
ATOM     13  F   UNL     1       2.485   3.685  20.346  0.00  0.00    +0.000 F 
ATOM     14  F   UNL     1       1.663   1.779  19.715  0.00  0.00    +0.000 F 
ATOM     15  F   UNL     1       3.817   2.045  19.832  0.00  0.00    +0.000 F 
ENDBRANCH   9  12
BRANCH  11  16
ATOM     16  C   UNL     1       5.149   5.324  18.825  0.00  0.00    +0.000 C 
BRANCH  16  17
ATOM     17  C   UNL     1       6.590   5.466  18.410  0.00  0.00    +0.000 C 
ATOM     18  O   UNL     1       7.141   6.507  18.112  0.00  0.00    +0.000 OA
BRANCH  17  19
ATOM     19  O   UNL     1       7.229   4.269  18.409  0.00  0.00    +0.000 OA
ATOM     20  H   UNL     1       7.145   3.779  17.568  0.00  0.00    +0.000 HD
ENDBRANCH  17  19
ENDBRANCH  16  17
ENDBRANCH  11  16
ENDBRANCH   4   7
BRANCH   1  21
ATOM     21  O   UNL     1       1.424  10.634  19.442  0.00  0.00    +0.000 OA
BRANCH  21  22
ATOM     22  C   UNL     1       1.304  11.026  20.807  0.00  0.00    +0.000 C 
BRANCH  22  26
ATOM     23  N   UNL     1      -2.111  12.110  19.883  0.00  0.00    +0.000 N 
ATOM     24  C   UNL     1      -1.518  13.420  20.133  0.00  0.00    +0.000 C 
ATOM     25  C   UNL     1      -0.040  13.131  20.337  0.00  0.00    +0.000 C 
ATOM     26  C   UNL     1      -0.032  11.754  20.998  0.00  0.00    +0.000 C 
ATOM     27  C   UNL     1      -1.226  11.029  20.347  0.00  0.00    +0.000 C 
BRANCH  23  33
ATOM     28  C   UNL     1      -3.215  11.019  16.510  0.00  0.00    +0.000 A 
ATOM     29  C   UNL     1      -4.597  11.169  16.593  0.00  0.00    +0.000 A 
ATOM     30  C   UNL     1      -5.165  11.679  17.755  0.00  0.00    +0.000 A 
ATOM     31  C   UNL     1      -4.356  12.017  18.843  0.00  0.00    +0.000 A 
ATOM     32  F   UNL     1      -4.967  12.535  19.919  0.00  0.00    +0.000 F 
ATOM     33  C   UNL     1      -2.957  11.865  18.809  0.00  0.00    +0.000 A 
ATOM     34  C   UNL     1      -2.413  11.388  17.602  0.00  0.00    +0.000 A 
BRANCH  28  36
ATOM     35  C   UNL     1      -3.311  10.176  14.290  0.00  0.00    +0.000 C 
ATOM     36  O   UNL     1      -2.535  10.506  15.436  0.00  0.00    +0.000 OA
ENDBRANCH  28  36
ENDBRANCH  23  33
ENDBRANCH  22  26
ENDBRANCH  21  22
ENDBRANCH   1  21
TORSDOF 10
ENDMDL
MODEL 7
REMARK VINA RESULT:      -8.4      2.323      2.854
REMARK  Name = 
REMARK  11 active torsions:
REMARK  status: ('A' for Active; 'I' for Inactive)
REMARK    1  A    between atoms: C_1  and  O_2
REMARK    2  A    between atoms: O_2  and  C_3
REMARK    3  A    between atoms: C_8  and  N_9
REMARK    4  A    between atoms: C_12  and  C_13
REMARK    5  A    between atoms: C_13  and  O_14
REMARK    6  A    between atoms: O_14  and  C_15
REMARK    7  A    between atoms: C_18  and  N_19
REMARK    8  A    between atoms: C_21  and  C_22
REMARK    9  A    between atoms: C_27  and  C_28
REMARK   10  A    between atoms: C_28  and  C_29
REMARK   11  A    between atoms: C_29  and  O_31
REMARK                            x       y       z     vdW  Elec       q    Type
REMARK                         _______ _______ _______ _____ _____    ______ ____
ROOT
ATOM      1  C   UNL     1       1.255   9.608  18.772  0.00  0.00    +0.000 A 
ATOM      2  C   UNL     1       1.234   9.010  20.026  0.00  0.00    +0.000 A 
ATOM      3  C   UNL     1       1.862   7.779  20.242  0.00  0.00    +0.000 A 
ATOM      4  C   UNL     1       2.526   7.090  19.218  0.00  0.00    +0.000 A 
ATOM      5  C   UNL     1       2.555   7.715  17.964  0.00  0.00    +0.000 A 
ATOM      6  C   UNL     1       1.919   8.956  17.735  0.00  0.00    +0.000 A 
ENDROOT
BRANCH   4   7
ATOM      7  N   UNL     1       3.130   5.879  19.469  0.00  0.00    +0.000 N 
ATOM      8  C   UNL     1       4.470   5.569  18.975  0.00  0.00    +0.000 C 
ATOM      9  C   UNL     1       4.476   4.054  18.863  0.00  0.00    +0.000 C 
ATOM     10  C   UNL     1       3.585   3.627  20.035  0.00  0.00    +0.000 C 
ATOM     11  C   UNL     1       2.549   4.760  20.238  0.00  0.00    +0.000 C 
BRANCH   9  12
ATOM     12  C   UNL     1       3.992   3.591  17.499  0.00  0.00    +0.000 C 
ATOM     13  F   UNL     1       3.059   4.394  16.949  0.00  0.00    +0.000 F 
ATOM     14  F   UNL     1       5.037   3.560  16.633  0.00  0.00    +0.000 F 
ATOM     15  F   UNL     1       3.478   2.341  17.531  0.00  0.00    +0.000 F 
ENDBRANCH   9  12
BRANCH  11  16
ATOM     16  C   UNL     1       1.151   4.419  19.717  0.00  0.00    +0.000 C 
BRANCH  16  17
ATOM     17  C   UNL     1       0.750   2.982  19.918  0.00  0.00    +0.000 C 
ATOM     18  O   UNL     1       0.457   2.199  19.035  0.00  0.00    +0.000 OA
BRANCH  17  19
ATOM     19  O   UNL     1       0.756   2.641  21.231  0.00  0.00    +0.000 OA
ATOM     20  H   UNL     1       0.099   1.955  21.462  0.00  0.00    +0.000 HD
ENDBRANCH  17  19
ENDBRANCH  16  17
ENDBRANCH  11  16
ENDBRANCH   4   7
BRANCH   1  21
ATOM     21  O   UNL     1       0.556  10.779  18.688  0.00  0.00    +0.000 OA
BRANCH  21  22
ATOM     22  C   UNL     1      -0.540  10.950  19.584  0.00  0.00    +0.000 C 
BRANCH  22  26
ATOM     23  N   UNL     1      -4.031  12.048  19.046  0.00  0.00    +0.000 N 
ATOM     24  C   UNL     1      -3.828  11.321  17.796  0.00  0.00    +0.000 C 
ATOM     25  C   UNL     1      -2.478  10.643  17.971  0.00  0.00    +0.000 C 
ATOM     26  C   UNL     1      -1.692  11.628  18.834  0.00  0.00    +0.000 C 
ATOM     27  C   UNL     1      -2.761  12.232  19.766  0.00  0.00    +0.000 C 
BRANCH  23  33
ATOM     28  C   UNL     1      -6.465  12.628  21.788  0.00  0.00    +0.000 A 
ATOM     29  C   UNL     1      -7.607  11.993  21.305  0.00  0.00    +0.000 A 
ATOM     30  C   UNL     1      -7.559  11.328  20.084  0.00  0.00    +0.000 A 
ATOM     31  C   UNL     1      -6.379  11.316  19.336  0.00  0.00    +0.000 A 
ATOM     32  F   UNL     1      -6.394  10.627  18.185  0.00  0.00    +0.000 F 
ATOM     33  C   UNL     1      -5.208  11.959  19.779  0.00  0.00    +0.000 A 
ATOM     34  C   UNL     1      -5.280  12.584  21.038  0.00  0.00    +0.000 A 
BRANCH  28  36
ATOM     35  C   UNL     1      -7.314  12.983  23.979  0.00  0.00    +0.000 C 
ATOM     36  O   UNL     1      -6.387  13.336  22.959  0.00  0.00    +0.000 OA
ENDBRANCH  28  36
ENDBRANCH  23  33
ENDBRANCH  22  26
ENDBRANCH  21  22
ENDBRANCH   1  21
TORSDOF 10
ENDMDL
MODEL 8
REMARK VINA RESULT:      -8.3      1.385      1.838
REMARK  Name = 
REMARK  11 active torsions:
REMARK  status: ('A' for Active; 'I' for Inactive)
REMARK    1  A    between atoms: C_1  and  O_2
REMARK    2  A    between atoms: O_2  and  C_3
REMARK    3  A    between atoms: C_8  and  N_9
REMARK    4  A    between atoms: C_12  and  C_13
REMARK    5  A    between atoms: C_13  and  O_14
REMARK    6  A    between atoms: O_14  and  C_15
REMARK    7  A    between atoms: C_18  and  N_19
REMARK    8  A    between atoms: C_21  and  C_22
REMARK    9  A    between atoms: C_27  and  C_28
REMARK   10  A    between atoms: C_28  and  C_29
REMARK   11  A    between atoms: C_29  and  O_31
REMARK                            x       y       z     vdW  Elec       q    Type
REMARK                         _______ _______ _______ _____ _____    ______ ____
ROOT
ATOM      1  C   UNL     1       1.495   9.329  19.377  0.00  0.00    +0.000 A 
ATOM      2  C   UNL     1       1.814   9.201  18.031  0.00  0.00    +0.000 A 
ATOM      3  C   UNL     1       2.319   7.997  17.526  0.00  0.00    +0.000 A 
ATOM      4  C   UNL     1       2.535   6.878  18.343  0.00  0.00    +0.000 A 
ATOM      5  C   UNL     1       2.190   7.018  19.694  0.00  0.00    +0.000 A 
ATOM      6  C   UNL     1       1.685   8.231  20.214  0.00  0.00    +0.000 A 
ENDROOT
BRANCH   4   7
ATOM      7  N   UNL     1       3.035   5.712  17.811  0.00  0.00    +0.000 N 
ATOM      8  C   UNL     1       2.236   4.490  17.745  0.00  0.00    +0.000 C 
ATOM      9  C   UNL     1       3.270   3.377  17.754  0.00  0.00    +0.000 C 
ATOM     10  C   UNL     1       4.439   3.998  16.981  0.00  0.00    +0.000 C 
ATOM     11  C   UNL     1       4.388   5.522  17.251  0.00  0.00    +0.000 C 
BRANCH   9  12
ATOM     12  C   UNL     1       3.610   2.941  19.170  0.00  0.00    +0.000 C 
ATOM     13  F   UNL     1       4.917   2.665  19.358  0.00  0.00    +0.000 F 
ATOM     14  F   UNL     1       3.296   3.935  20.039  0.00  0.00    +0.000 F 
ATOM     15  F   UNL     1       2.910   1.852  19.556  0.00  0.00    +0.000 F 
ENDBRANCH   9  12
BRANCH  11  16
ATOM     16  C   UNL     1       5.451   6.010  18.238  0.00  0.00    +0.000 C 
BRANCH  16  17
ATOM     17  C   UNL     1       6.807   5.383  18.047  0.00  0.00    +0.000 C 
ATOM     18  O   UNL     1       7.296   4.526  18.757  0.00  0.00    +0.000 OA
BRANCH  17  19
ATOM     19  O   UNL     1       7.441   5.887  16.958  0.00  0.00    +0.000 OA
ATOM     20  H   UNL     1       6.837   6.127  16.229  0.00  0.00    +0.000 HD
ENDBRANCH  17  19
ENDBRANCH  16  17
ENDBRANCH  11  16
ENDBRANCH   4   7
BRANCH   1  21
ATOM     21  O   UNL     1       1.066  10.573  19.744  0.00  0.00    +0.000 OA
BRANCH  21  22
ATOM     22  C   UNL     1      -0.261  10.682  20.254  0.00  0.00    +0.000 C 
BRANCH  22  26
ATOM     23  N   UNL     1      -3.379  12.058  18.817  0.00  0.00    +0.000 N 
ATOM     24  C   UNL     1      -2.831  11.439  17.615  0.00  0.00    +0.000 C 
ATOM     25  C   UNL     1      -1.624  10.658  18.111  0.00  0.00    +0.000 C 
ATOM     26  C   UNL     1      -1.104  11.503  19.272  0.00  0.00    +0.000 C 
ATOM     27  C   UNL     1      -2.384  12.087  19.901  0.00  0.00    +0.000 C 
BRANCH  23  33
ATOM     28  C   UNL     1      -6.746  10.586  19.349  0.00  0.00    +0.000 A 
ATOM     29  C   UNL     1      -7.437  11.642  19.938  0.00  0.00    +0.000 A 
ATOM     30  C   UNL     1      -6.800  12.866  20.119  0.00  0.00    +0.000 A 
ATOM     31  C   UNL     1      -5.467  13.027  19.732  0.00  0.00    +0.000 A 
ATOM     32  F   UNL     1      -4.925  14.242  19.904  0.00  0.00    +0.000 F 
ATOM     33  C   UNL     1      -4.726  11.981  19.150  0.00  0.00    +0.000 A 
ATOM     34  C   UNL     1      -5.416  10.772  18.942  0.00  0.00    +0.000 A 
BRANCH  28  36
ATOM     35  C   UNL     1      -7.502   8.543  20.298  0.00  0.00    +0.000 C 
ATOM     36  O   UNL     1      -7.249   9.329  19.139  0.00  0.00    +0.000 OA
ENDBRANCH  28  36
ENDBRANCH  23  33
ENDBRANCH  22  26
ENDBRANCH  21  22
ENDBRANCH   1  21
TORSDOF 10
ENDMDL
MODEL 9
REMARK VINA RESULT:      -8.3      1.974      2.807
REMARK  Name = 
REMARK  11 active torsions:
REMARK  status: ('A' for Active; 'I' for Inactive)
REMARK    1  A    between atoms: C_1  and  O_2
REMARK    2  A    between atoms: O_2  and  C_3
REMARK    3  A    between atoms: C_8  and  N_9
REMARK    4  A    between atoms: C_12  and  C_13
REMARK    5  A    between atoms: C_13  and  O_14
REMARK    6  A    between atoms: O_14  and  C_15
REMARK    7  A    between atoms: C_18  and  N_19
REMARK    8  A    between atoms: C_21  and  C_22
REMARK    9  A    between atoms: C_27  and  C_28
REMARK   10  A    between atoms: C_28  and  C_29
REMARK   11  A    between atoms: C_29  and  O_31
REMARK                            x       y       z     vdW  Elec       q    Type
REMARK                         _______ _______ _______ _____ _____    ______ ____
ROOT
ATOM      1  C   UNL     1       1.511   8.907  19.796  0.00  0.00    +0.000 A 
ATOM      2  C   UNL     1       1.969   8.922  18.484  0.00  0.00    +0.000 A 
ATOM      3  C   UNL     1       2.561   7.787  17.920  0.00  0.00    +0.000 A 
ATOM      4  C   UNL     1       2.730   6.597  18.641  0.00  0.00    +0.000 A 
ATOM      5  C   UNL     1       2.246   6.592  19.957  0.00  0.00    +0.000 A 
ATOM      6  C   UNL     1       1.652   7.735  20.537  0.00  0.00    +0.000 A 
ENDROOT
BRANCH   4   7
ATOM      7  N   UNL     1       3.319   5.501  18.053  0.00  0.00    +0.000 N 
ATOM      8  C   UNL     1       2.529   4.390  17.528  0.00  0.00    +0.000 C 
ATOM      9  C   UNL     1       3.473   3.202  17.608  0.00  0.00    +0.000 C 
ATOM     10  C   UNL     1       4.839   3.838  17.329  0.00  0.00    +0.000 C 
ATOM     11  C   UNL     1       4.769   5.288  17.868  0.00  0.00    +0.000 C 
BRANCH   9  12
ATOM     12  C   UNL     1       3.367   2.492  18.948  0.00  0.00    +0.000 C 
ATOM     13  F   UNL     1       2.461   3.037  19.786  0.00  0.00    +0.000 F 
ATOM     14  F   UNL     1       2.988   1.204  18.751  0.00  0.00    +0.000 F 
ATOM     15  F   UNL     1       4.548   2.453  19.605  0.00  0.00    +0.000 F 
ENDBRANCH   9  12
BRANCH  11  16
ATOM     16  C   UNL     1       5.515   5.494  19.188  0.00  0.00    +0.000 C 
BRANCH  16  17
ATOM     17  C   UNL     1       7.005   5.656  19.037  0.00  0.00    +0.000 C 
ATOM     18  O   UNL     1       7.589   5.897  17.999  0.00  0.00    +0.000 OA
BRANCH  17  19
ATOM     19  O   UNL     1       7.645   5.506  20.224  0.00  0.00    +0.000 OA
ATOM     20  H   UNL     1       7.058   5.589  21.000  0.00  0.00    +0.000 HD
ENDBRANCH  17  19
ENDBRANCH  16  17
ENDBRANCH  11  16
ENDBRANCH   4   7
BRANCH   1  21
ATOM     21  O   UNL     1       1.007  10.098  20.237  0.00  0.00    +0.000 OA
BRANCH  21  22
ATOM     22  C   UNL     1      -0.319  10.092  20.760  0.00  0.00    +0.000 C 
BRANCH  22  26
ATOM     23  N   UNL     1      -2.679  12.782  21.694  0.00  0.00    +0.000 N 
ATOM     24  C   UNL     1      -2.351  13.229  20.344  0.00  0.00    +0.000 C 
ATOM     25  C   UNL     1      -1.526  12.093  19.762  0.00  0.00    +0.000 C 
ATOM     26  C   UNL     1      -0.775  11.540  20.972  0.00  0.00    +0.000 C 
ATOM     27  C   UNL     1      -1.777  11.704  22.131  0.00  0.00    +0.000 C 
BRANCH  23  33
ATOM     28  C   UNL     1      -6.385  12.564  21.768  0.00  0.00    +0.000 A 
ATOM     29  C   UNL     1      -6.659  12.701  23.127  0.00  0.00    +0.000 A 
ATOM     30  C   UNL     1      -5.614  12.914  24.021  0.00  0.00    +0.000 A 
ATOM     31  C   UNL     1      -4.296  12.967  23.561  0.00  0.00    +0.000 A 
ATOM     32  F   UNL     1      -3.342  13.209  24.473  0.00  0.00    +0.000 F 
ATOM     33  C   UNL     1      -3.973  12.816  22.199  0.00  0.00    +0.000 A 
ATOM     34  C   UNL     1      -5.057  12.647  21.319  0.00  0.00    +0.000 A 
BRANCH  28  36
ATOM     35  C   UNL     1      -7.136  11.147  20.014  0.00  0.00    +0.000 C 
ATOM     36  O   UNL     1      -7.316  12.326  20.791  0.00  0.00    +0.000 OA
ENDBRANCH  28  36
ENDBRANCH  23  33
ENDBRANCH  22  26
ENDBRANCH  21  22
ENDBRANCH   1  21
TORSDOF 10
ENDMDL
