MODEL 1
REMARK VINA RESULT:      -7.5      0.000      0.000
REMARK  Name = 
REMARK  3 active torsions:
REMARK  status: ('A' for Active; 'I' for Inactive)
REMARK    1  A    between atoms: C_2  and  C_3
REMARK    2  A    between atoms: C_6  and  C_7
REMARK    3  A    between atoms: N_9  and  C_10
REMARK                            x       y       z     vdW  Elec       q    Type
REMARK                         _______ _______ _______ _____ _____    ______ ____
ROOT
ATOM      1  C   UNL     1       2.635   6.947  18.685  0.00  0.00    +0.000 C 
ATOM      2  O   UNL     1       2.193   6.318  19.640  0.00  0.00    +0.000 OA
ATOM      3  N   UNL     1       2.315   8.257  18.360  0.00  0.00    +0.000 N 
ATOM      4  H   UNL     1       2.592   8.604  17.450  0.00  0.00    +0.000 HD
ENDROOT
BRANCH   3   5
ATOM      5  C   UNL     1       1.415   9.064  19.105  0.00  0.00    +0.000 A 
ATOM      6  C   UNL     1       0.790  10.202  18.608  0.00  0.00    +0.000 A 
ATOM      7  N   UNL     1      -0.028  11.013  19.325  0.00  0.00    +0.000 NA
ATOM      8  C   UNL     1      -0.240  10.711  20.612  0.00  0.00    +0.000 A 
ATOM      9  C   UNL     1      -1.027  11.560  21.376  0.00  0.00    +0.000 A 
ATOM     10  C   UNL     1      -1.268  11.315  22.730  0.00  0.00    +0.000 A 
ATOM     11  C   UNL     1      -0.720  10.191  23.334  0.00  0.00    +0.000 A 
ATOM     12  C   UNL     1       0.066   9.315  22.583  0.00  0.00    +0.000 A 
ATOM     13  C   UNL     1       0.319   9.567  21.219  0.00  0.00    +0.000 A 
ATOM     14  C   UNL     1       1.136   8.730  20.432  0.00  0.00    +0.000 A 
ENDBRANCH   3   5
BRANCH   1  18
ATOM     15  C   UNL     1       5.179   4.982  15.839  0.00  0.00    +0.000 A 
ATOM     16  C   UNL     1       5.207   6.370  15.992  0.00  0.00    +0.000 A 
ATOM     17  C   UNL     1       4.384   6.982  16.942  0.00  0.00    +0.000 A 
ATOM     18  C   UNL     1       3.534   6.216  17.753  0.00  0.00    +0.000 A 
ATOM     19  C   UNL     1       3.503   4.825  17.604  0.00  0.00    +0.000 A 
ATOM     20  C   UNL     1       4.327   4.214  16.645  0.00  0.00    +0.000 A 
BRANCH  15  22
ATOM     21  N   UNL     1       6.679   3.841  14.054  0.00  0.00    +0.000 NA
ATOM     22  C   UNL     1       6.010   4.353  14.852  0.00  0.00    +0.000 C 
ENDBRANCH  15  22
ENDBRANCH   1  18
TORSDOF 3
ENDMDL
MODEL 2
REMARK VINA RESULT:      -7.5      2.640      8.466
REMARK  Name = 
REMARK  3 active torsions:
REMARK  status: ('A' for Active; 'I' for Inactive)
REMARK    1  A    between atoms: C_2  and  C_3
REMARK    2  A    between atoms: C_6  and  C_7
REMARK    3  A    between atoms: N_9  and  C_10
REMARK                            x       y       z     vdW  Elec       q    Type
REMARK                         _______ _______ _______ _____ _____    ______ ____
ROOT
ATOM      1  C   UNL     1       1.222   8.594  20.266  0.00  0.00    +0.000 C 
ATOM      2  O   UNL     1       1.479   8.830  19.091  0.00  0.00    +0.000 OA
ATOM      3  N   UNL     1       1.484   7.404  20.929  0.00  0.00    +0.000 N 
ATOM      4  H   UNL     1       1.059   7.261  21.837  0.00  0.00    +0.000 HD
ENDROOT
BRANCH   3   5
ATOM      5  C   UNL     1       2.098   6.276  20.324  0.00  0.00    +0.000 A 
ATOM      6  C   UNL     1       3.327   6.310  19.674  0.00  0.00    +0.000 A 
ATOM      7  N   UNL     1       3.899   5.253  19.045  0.00  0.00    +0.000 NA
ATOM      8  C   UNL     1       3.230   4.095  19.027  0.00  0.00    +0.000 A 
ATOM      9  C   UNL     1       3.773   3.019  18.339  0.00  0.00    +0.000 A 
ATOM     10  C   UNL     1       3.114   1.791  18.263  0.00  0.00    +0.000 A 
ATOM     11  C   UNL     1       1.890   1.626  18.897  0.00  0.00    +0.000 A 
ATOM     12  C   UNL     1       1.328   2.689  19.607  0.00  0.00    +0.000 A 
ATOM     13  C   UNL     1       1.987   3.933  19.674  0.00  0.00    +0.000 A 
ATOM     14  C   UNL     1       1.440   5.045  20.349  0.00  0.00    +0.000 A 
ENDBRANCH   3   5
BRANCH   1  18
ATOM     15  C   UNL     1      -0.692  11.777  22.421  0.00  0.00    +0.000 A 
ATOM     16  C   UNL     1      -0.082  12.009  21.187  0.00  0.00    +0.000 A 
ATOM     17  C   UNL     1       0.515  10.950  20.496  0.00  0.00    +0.000 A 
ATOM     18  C   UNL     1       0.500   9.650  21.025  0.00  0.00    +0.000 A 
ATOM     19  C   UNL     1      -0.112   9.414  22.261  0.00  0.00    +0.000 A 
ATOM     20  C   UNL     1      -0.705  10.480  22.955  0.00  0.00    +0.000 A 
BRANCH  15  22
ATOM     21  N   UNL     1      -1.770  13.746  23.724  0.00  0.00    +0.000 NA
ATOM     22  C   UNL     1      -1.290  12.865  23.141  0.00  0.00    +0.000 C 
ENDBRANCH  15  22
ENDBRANCH   1  18
TORSDOF 3
ENDMDL
MODEL 3
REMARK VINA RESULT:      -7.5      1.791      8.528
REMARK  Name = 
REMARK  3 active torsions:
REMARK  status: ('A' for Active; 'I' for Inactive)
REMARK    1  A    between atoms: C_2  and  C_3
REMARK    2  A    between atoms: C_6  and  C_7
REMARK    3  A    between atoms: N_9  and  C_10
REMARK                            x       y       z     vdW  Elec       q    Type
REMARK                         _______ _______ _______ _____ _____    ______ ____
ROOT
ATOM      1  C   UNL     1       1.839   8.508  18.645  0.00  0.00    +0.000 C 
ATOM      2  O   UNL     1       1.921   8.940  17.500  0.00  0.00    +0.000 OA
ATOM      3  N   UNL     1       2.341   7.294  19.090  0.00  0.00    +0.000 N 
ATOM      4  H   UNL     1       2.050   6.963  20.002  0.00  0.00    +0.000 HD
ENDROOT
BRANCH   3   5
ATOM      5  C   UNL     1       3.031   6.368  18.264  0.00  0.00    +0.000 A 
ATOM      6  C   UNL     1       2.602   5.068  18.019  0.00  0.00    +0.000 A 
ATOM      7  N   UNL     1       3.279   4.156  17.277  0.00  0.00    +0.000 NA
ATOM      8  C   UNL     1       4.456   4.521  16.754  0.00  0.00    +0.000 A 
ATOM      9  C   UNL     1       5.190   3.584  16.041  0.00  0.00    +0.000 A 
ATOM     10  C   UNL     1       6.434   3.894  15.490  0.00  0.00    +0.000 A 
ATOM     11  C   UNL     1       6.956   5.172  15.643  0.00  0.00    +0.000 A 
ATOM     12  C   UNL     1       6.231   6.137  16.346  0.00  0.00    +0.000 A 
ATOM     13  C   UNL     1       4.980   5.821  16.913  0.00  0.00    +0.000 A 
ATOM     14  C   UNL     1       4.230   6.752  17.661  0.00  0.00    +0.000 A 
ENDBRANCH   3   5
BRANCH   1  18
ATOM     15  C   UNL     1      -0.466  10.681  21.542  0.00  0.00    +0.000 A 
ATOM     16  C   UNL     1       0.251   9.539  21.904  0.00  0.00    +0.000 A 
ATOM     17  C   UNL     1       1.012   8.863  20.945  0.00  0.00    +0.000 A 
ATOM     18  C   UNL     1       1.071   9.326  19.621  0.00  0.00    +0.000 A 
ATOM     19  C   UNL     1       0.354  10.470  19.255  0.00  0.00    +0.000 A 
ATOM     20  C   UNL     1      -0.414  11.143  20.219  0.00  0.00    +0.000 A 
BRANCH  15  22
ATOM     21  N   UNL     1      -1.908  11.922  23.309  0.00  0.00    +0.000 NA
ATOM     22  C   UNL     1      -1.263  11.367  22.520  0.00  0.00    +0.000 C 
ENDBRANCH  15  22
ENDBRANCH   1  18
TORSDOF 3
ENDMDL
MODEL 4
REMARK VINA RESULT:      -7.4      1.807      8.508
REMARK  Name = 
REMARK  3 active torsions:
REMARK  status: ('A' for Active; 'I' for Inactive)
REMARK    1  A    between atoms: C_2  and  C_3
REMARK    2  A    between atoms: C_6  and  C_7
REMARK    3  A    between atoms: N_9  and  C_10
REMARK                            x       y       z     vdW  Elec       q    Type
REMARK                         _______ _______ _______ _____ _____    ______ ____
ROOT
ATOM      1  C   UNL     1       1.891   8.283  18.909  0.00  0.00    +0.000 C 
ATOM      2  O   UNL     1       1.978   8.802  17.802  0.00  0.00    +0.000 OA
ATOM      3  N   UNL     1       2.387   7.036  19.260  0.00  0.00    +0.000 N 
ATOM      4  H   UNL     1       2.091   6.636  20.142  0.00  0.00    +0.000 HD
ENDROOT
BRANCH   3   5
ATOM      5  C   UNL     1       3.077   6.175  18.367  0.00  0.00    +0.000 A 
ATOM      6  C   UNL     1       2.650   4.895  18.027  0.00  0.00    +0.000 A 
ATOM      7  N   UNL     1       3.328   4.042  17.219  0.00  0.00    +0.000 NA
ATOM      8  C   UNL     1       4.503   4.446  16.723  0.00  0.00    +0.000 A 
ATOM      9  C   UNL     1       5.237   3.566  15.941  0.00  0.00    +0.000 A 
ATOM     10  C   UNL     1       6.481   3.918  15.413  0.00  0.00    +0.000 A 
ATOM     11  C   UNL     1       7.000   5.182  15.659  0.00  0.00    +0.000 A 
ATOM     12  C   UNL     1       6.275   6.091  16.433  0.00  0.00    +0.000 A 
ATOM     13  C   UNL     1       5.025   5.732  16.976  0.00  0.00    +0.000 A 
ATOM     14  C   UNL     1       4.275   6.604  17.793  0.00  0.00    +0.000 A 
ENDBRANCH   3   5
BRANCH   1  18
ATOM     15  C   UNL     1      -0.262  10.611  21.804  0.00  0.00    +0.000 A 
ATOM     16  C   UNL     1      -0.324  10.918  20.443  0.00  0.00    +0.000 A 
ATOM     17  C   UNL     1       0.369  10.130  19.519  0.00  0.00    +0.000 A 
ATOM     18  C   UNL     1       1.122   9.024  19.943  0.00  0.00    +0.000 A 
ATOM     19  C   UNL     1       1.186   8.713  21.306  0.00  0.00    +0.000 A 
ATOM     20  C   UNL     1       0.493   9.510  22.232  0.00  0.00    +0.000 A 
BRANCH  15  22
ATOM     21  N   UNL     1      -1.521  12.093  23.523  0.00  0.00    +0.000 NA
ATOM     22  C   UNL     1      -0.958  11.429  22.756  0.00  0.00    +0.000 C 
ENDBRANCH  15  22
ENDBRANCH   1  18
TORSDOF 3
ENDMDL
MODEL 5
REMARK VINA RESULT:      -7.4      1.705      8.518
REMARK  Name = 
REMARK  3 active torsions:
REMARK  status: ('A' for Active; 'I' for Inactive)
REMARK    1  A    between atoms: C_2  and  C_3
REMARK    2  A    between atoms: C_6  and  C_7
REMARK    3  A    between atoms: N_9  and  C_10
REMARK                            x       y       z     vdW  Elec       q    Type
REMARK                         _______ _______ _______ _____ _____    ______ ____
ROOT
ATOM      1  C   UNL     1       1.586   7.789  20.301  0.00  0.00    +0.000 C 
ATOM      2  O   UNL     1       1.702   6.797  21.012  0.00  0.00    +0.000 OA
ATOM      3  N   UNL     1       2.056   7.915  19.002  0.00  0.00    +0.000 N 
ATOM      4  H   UNL     1       2.069   8.838  18.586  0.00  0.00    +0.000 HD
ENDROOT
BRANCH   3   5
ATOM      5  C   UNL     1       2.748   6.889  18.305  0.00  0.00    +0.000 A 
ATOM      6  C   UNL     1       2.310   5.572  18.214  0.00  0.00    +0.000 A 
ATOM      7  N   UNL     1       2.988   4.571  17.600  0.00  0.00    +0.000 NA
ATOM      8  C   UNL     1       4.176   4.859  17.054  0.00  0.00    +0.000 A 
ATOM      9  C   UNL     1       4.909   3.836  16.472  0.00  0.00    +0.000 A 
ATOM     10  C   UNL     1       6.165   4.066  15.906  0.00  0.00    +0.000 A 
ATOM     11  C   UNL     1       6.698   5.349  15.910  0.00  0.00    +0.000 A 
ATOM     12  C   UNL     1       5.973   6.398  16.479  0.00  0.00    +0.000 A 
ATOM     13  C   UNL     1       4.711   6.165  17.061  0.00  0.00    +0.000 A 
ATOM     14  C   UNL     1       3.960   7.187  17.679  0.00  0.00    +0.000 A 
ENDBRANCH   3   5
BRANCH   1  18
ATOM     15  C   UNL     1      -0.403  11.117  22.145  0.00  0.00    +0.000 A 
ATOM     16  C   UNL     1      -0.200   9.925  22.842  0.00  0.00    +0.000 A 
ATOM     17  C   UNL     1       0.471   8.864  22.225  0.00  0.00    +0.000 A 
ATOM     18  C   UNL     1       0.952   8.988  20.912  0.00  0.00    +0.000 A 
ATOM     19  C   UNL     1       0.750  10.181  20.211  0.00  0.00    +0.000 A 
ATOM     20  C   UNL     1       0.071  11.242  20.831  0.00  0.00    +0.000 A 
BRANCH  15  22
ATOM     21  N   UNL     1      -1.675  13.077  23.277  0.00  0.00    +0.000 NA
ATOM     22  C   UNL     1      -1.108  12.201  22.770  0.00  0.00    +0.000 C 
ENDBRANCH  15  22
ENDBRANCH   1  18
TORSDOF 3
ENDMDL
MODEL 6
REMARK VINA RESULT:      -7.4      2.281      3.097
REMARK  Name = 
REMARK  3 active torsions:
REMARK  status: ('A' for Active; 'I' for Inactive)
REMARK    1  A    between atoms: C_2  and  C_3
REMARK    2  A    between atoms: C_6  and  C_7
REMARK    3  A    between atoms: N_9  and  C_10
REMARK                            x       y       z     vdW  Elec       q    Type
REMARK                         _______ _______ _______ _____ _____    ______ ____
ROOT
ATOM      1  C   UNL     1       2.334   7.880  18.766  0.00  0.00    +0.000 C 
ATOM      2  O   UNL     1       1.807   7.541  19.820  0.00  0.00    +0.000 OA
ATOM      3  N   UNL     1       1.900   8.902  17.935  0.00  0.00    +0.000 N 
ATOM      4  H   UNL     1       2.300   8.965  17.007  0.00  0.00    +0.000 HD
ENDROOT
BRANCH   3   5
ATOM      5  C   UNL     1       0.764   9.712  18.198  0.00  0.00    +0.000 A 
ATOM      6  C   UNL     1       0.749  10.769  19.102  0.00  0.00    +0.000 A 
ATOM      7  N   UNL     1      -0.343  11.514  19.403  0.00  0.00    +0.000 NA
ATOM      8  C   UNL     1      -1.500  11.205  18.805  0.00  0.00    +0.000 A 
ATOM      9  C   UNL     1      -2.640  11.919  19.144  0.00  0.00    +0.000 A 
ATOM     10  C   UNL     1      -3.882  11.630  18.574  0.00  0.00    +0.000 A 
ATOM     11  C   UNL     1      -3.988  10.613  17.635  0.00  0.00    +0.000 A 
ATOM     12  C   UNL     1      -2.853   9.887  17.268  0.00  0.00    +0.000 A 
ATOM     13  C   UNL     1      -1.601  10.170  17.851  0.00  0.00    +0.000 A 
ATOM     14  C   UNL     1      -0.436   9.440  17.538  0.00  0.00    +0.000 A 
ENDBRANCH   3   5
BRANCH   1  18
ATOM     15  C   UNL     1       5.774   5.573  17.634  0.00  0.00    +0.000 A 
ATOM     16  C   UNL     1       5.088   5.307  18.822  0.00  0.00    +0.000 A 
ATOM     17  C   UNL     1       3.958   6.060  19.156  0.00  0.00    +0.000 A 
ATOM     18  C   UNL     1       3.496   7.075  18.304  0.00  0.00    +0.000 A 
ATOM     19  C   UNL     1       4.180   7.344  17.114  0.00  0.00    +0.000 A 
ATOM     20  C   UNL     1       5.319   6.590  16.784  0.00  0.00    +0.000 A 
BRANCH  15  22
ATOM     21  N   UNL     1       7.890   4.198  17.027  0.00  0.00    +0.000 NA
ATOM     22  C   UNL     1       6.945   4.814  17.298  0.00  0.00    +0.000 C 
ENDBRANCH  15  22
ENDBRANCH   1  18
TORSDOF 3
ENDMDL
MODEL 7
REMARK VINA RESULT:      -7.4      2.605      8.571
REMARK  Name = 
REMARK  3 active torsions:
REMARK  status: ('A' for Active; 'I' for Inactive)
REMARK    1  A    between atoms: C_2  and  C_3
REMARK    2  A    between atoms: C_6  and  C_7
REMARK    3  A    between atoms: N_9  and  C_10
REMARK                            x       y       z     vdW  Elec       q    Type
REMARK                         _______ _______ _______ _____ _____    ______ ____
ROOT
ATOM      1  C   UNL     1       1.224   8.493  20.273  0.00  0.00    +0.000 C 
ATOM      2  O   UNL     1       1.636   8.805  19.161  0.00  0.00    +0.000 OA
ATOM      3  N   UNL     1       1.387   7.256  20.879  0.00  0.00    +0.000 N 
ATOM      4  H   UNL     1       0.845   7.057  21.712  0.00  0.00    +0.000 HD
ENDROOT
BRANCH   3   5
ATOM      5  C   UNL     1       2.067   6.162  20.283  0.00  0.00    +0.000 A 
ATOM      6  C   UNL     1       3.304   6.259  19.654  0.00  0.00    +0.000 A 
ATOM      7  N   UNL     1       3.939   5.234  19.032  0.00  0.00    +0.000 NA
ATOM      8  C   UNL     1       3.328   4.043  19.000  0.00  0.00    +0.000 A 
ATOM      9  C   UNL     1       3.936   2.999  18.318  0.00  0.00    +0.000 A 
ATOM     10  C   UNL     1       3.340   1.739  18.228  0.00  0.00    +0.000 A 
ATOM     11  C   UNL     1       2.115   1.511  18.841  0.00  0.00    +0.000 A 
ATOM     12  C   UNL     1       1.488   2.543  19.543  0.00  0.00    +0.000 A 
ATOM     13  C   UNL     1       2.084   3.818  19.625  0.00  0.00    +0.000 A 
ATOM     14  C   UNL     1       1.471   4.900  20.292  0.00  0.00    +0.000 A 
ENDBRANCH   3   5
BRANCH   1  18
ATOM     15  C   UNL     1      -1.224  11.254  22.467  0.00  0.00    +0.000 A 
ATOM     16  C   UNL     1      -0.688  10.121  23.083  0.00  0.00    +0.000 A 
ATOM     17  C   UNL     1       0.124   9.250  22.351  0.00  0.00    +0.000 A 
ATOM     18  C   UNL     1       0.417   9.506  21.003  0.00  0.00    +0.000 A 
ATOM     19  C   UNL     1      -0.118  10.641  20.382  0.00  0.00    +0.000 A 
ATOM     20  C   UNL     1      -0.938  11.511  21.118  0.00  0.00    +0.000 A 
BRANCH  15  22
ATOM     21  N   UNL     1      -2.759  12.856  23.815  0.00  0.00    +0.000 NA
ATOM     22  C   UNL     1      -2.074  12.141  23.211  0.00  0.00    +0.000 C 
ENDBRANCH  15  22
ENDBRANCH   1  18
TORSDOF 3
ENDMDL
MODEL 8
REMARK VINA RESULT:      -7.3      1.786      2.438
REMARK  Name = 
REMARK  3 active torsions:
REMARK  status: ('A' for Active; 'I' for Inactive)
REMARK    1  A    between atoms: C_2  and  C_3
REMARK    2  A    between atoms: C_6  and  C_7
REMARK    3  A    between atoms: N_9  and  C_10
REMARK                            x       y       z     vdW  Elec       q    Type
REMARK                         _______ _______ _______ _____ _____    ______ ____
ROOT
ATOM      1  C   UNL     1       2.208   7.844  18.718  0.00  0.00    +0.000 C 
ATOM      2  O   UNL     1       1.964   7.633  19.900  0.00  0.00    +0.000 OA
ATOM      3  N   UNL     1       1.666   8.862  17.947  0.00  0.00    +0.000 N 
ATOM      4  H   UNL     1       1.795   8.822  16.944  0.00  0.00    +0.000 HD
ENDROOT
BRANCH   3   5
ATOM      5  C   UNL     1       0.736   9.818  18.434  0.00  0.00    +0.000 A 
ATOM      6  C   UNL     1       1.013  10.736  19.441  0.00  0.00    +0.000 A 
ATOM      7  N   UNL     1       0.118  11.617  19.954  0.00  0.00    +0.000 NA
ATOM      8  C   UNL     1      -1.131  11.595  19.475  0.00  0.00    +0.000 A 
ATOM      9  C   UNL     1      -2.074  12.449  20.027  0.00  0.00    +0.000 A 
ATOM     10  C   UNL     1      -3.400  12.458  19.587  0.00  0.00    +0.000 A 
ATOM     11  C   UNL     1      -3.792  11.604  18.565  0.00  0.00    +0.000 A 
ATOM     12  C   UNL     1      -2.858  10.743  17.984  0.00  0.00    +0.000 A 
ATOM     13  C   UNL     1      -1.523  10.725  18.435  0.00  0.00    +0.000 A 
ATOM     14  C   UNL     1      -0.555   9.848  17.903  0.00  0.00    +0.000 A 
ENDBRANCH   3   5
BRANCH   1  18
ATOM     15  C   UNL     1       4.788   5.178  16.557  0.00  0.00    +0.000 A 
ATOM     16  C   UNL     1       4.967   6.561  16.493  0.00  0.00    +0.000 A 
ATOM     17  C   UNL     1       4.127   7.406  17.225  0.00  0.00    +0.000 A 
ATOM     18  C   UNL     1       3.107   6.878  18.032  0.00  0.00    +0.000 A 
ATOM     19  C   UNL     1       2.925   5.493  18.099  0.00  0.00    +0.000 A 
ATOM     20  C   UNL     1       3.767   4.647  17.358  0.00  0.00    +0.000 A 
BRANCH  15  22
ATOM     21  N   UNL     1       6.327   3.610  15.174  0.00  0.00    +0.000 NA
ATOM     22  C   UNL     1       5.638   4.309  15.792  0.00  0.00    +0.000 C 
ENDBRANCH  15  22
ENDBRANCH   1  18
TORSDOF 3
ENDMDL
MODEL 9
REMARK VINA RESULT:      -7.3      1.162      2.065
REMARK  Name = 
REMARK  3 active torsions:
REMARK  status: ('A' for Active; 'I' for Inactive)
REMARK    1  A    between atoms: C_2  and  C_3
REMARK    2  A    between atoms: C_6  and  C_7
REMARK    3  A    between atoms: N_9  and  C_10
REMARK                            x       y       z     vdW  Elec       q    Type
REMARK                         _______ _______ _______ _____ _____    ______ ____
ROOT
ATOM      1  C   UNL     1       2.413   6.817  19.440  0.00  0.00    +0.000 C 
ATOM      2  O   UNL     1       1.994   6.049  20.299  0.00  0.00    +0.000 OA
ATOM      3  N   UNL     1       2.162   8.180  19.381  0.00  0.00    +0.000 N 
ATOM      4  H   UNL     1       2.401   8.673  18.528  0.00  0.00    +0.000 HD
ENDROOT
BRANCH   3   5
ATOM      5  C   UNL     1       1.372   8.885  20.327  0.00  0.00    +0.000 A 
ATOM      6  C   UNL     1       1.309   8.572  21.681  0.00  0.00    +0.000 A 
ATOM      7  N   UNL     1       0.518   9.201  22.585  0.00  0.00    +0.000 NA
ATOM      8  C   UNL     1      -0.278  10.184  22.147  0.00  0.00    +0.000 A 
ATOM      9  C   UNL     1      -1.137  10.800  23.046  0.00  0.00    +0.000 A 
ATOM     10  C   UNL     1      -2.008  11.815  22.648  0.00  0.00    +0.000 A 
ATOM     11  C   UNL     1      -2.017  12.235  21.324  0.00  0.00    +0.000 A 
ATOM     12  C   UNL     1      -1.154  11.639  20.402  0.00  0.00    +0.000 A 
ATOM     13  C   UNL     1      -0.282  10.606  20.801  0.00  0.00    +0.000 A 
ATOM     14  C   UNL     1       0.581   9.951  19.897  0.00  0.00    +0.000 A 
ENDBRANCH   3   5
BRANCH   1  18
ATOM     15  C   UNL     1       4.729   4.933  16.355  0.00  0.00    +0.000 A 
ATOM     16  C   UNL     1       3.865   4.189  17.162  0.00  0.00    +0.000 A 
ATOM     17  C   UNL     1       3.105   4.832  18.144  0.00  0.00    +0.000 A 
ATOM     18  C   UNL     1       3.194   6.221  18.324  0.00  0.00    +0.000 A 
ATOM     19  C   UNL     1       4.058   6.969  17.518  0.00  0.00    +0.000 A 
ATOM     20  C   UNL     1       4.824   6.320  16.535  0.00  0.00    +0.000 A 
BRANCH  15  22
ATOM     21  N   UNL     1       6.166   3.742  14.550  0.00  0.00    +0.000 NA
ATOM     22  C   UNL     1       5.524   4.273  15.358  0.00  0.00    +0.000 C 
ENDBRANCH  15  22
ENDBRANCH   1  18
TORSDOF 3
ENDMDL
