MODEL 1
REMARK VINA RESULT:      -8.5      0.000      0.000
REMARK  Name = 
REMARK  5 active torsions:
REMARK  status: ('A' for Active; 'I' for Inactive)
REMARK    1  A    between atoms: N_1  and  C_2
REMARK    2  A    between atoms: C_2  and  C_3
REMARK    3  A    between atoms: C_2  and  C_10
REMARK    4  A    between atoms: C_3  and  C_4
REMARK    5  A    between atoms: C_15  and  C_16
REMARK                            x       y       z     vdW  Elec       q    Type
REMARK                         _______ _______ _______ _____ _____    ______ ____
ROOT
ATOM      1  C   UNL     1       3.318   4.861  18.151  0.00  0.00    +0.000 A 
ATOM      2  N   UNL     1       3.193   6.097  17.781  0.00  0.00    +0.000 NA
ATOM      3  C   UNL     1       2.499   6.968  18.636  0.00  0.00    +0.000 A 
ATOM      4  C   UNL     1       2.165   8.245  18.188  0.00  0.00    +0.000 A 
ATOM      5  C   UNL     1       1.503   9.146  19.033  0.00  0.00    +0.000 A 
ATOM      6  C   UNL     1       1.161   8.802  20.356  0.00  0.00    +0.000 A 
ATOM      7  C   UNL     1       1.489   7.508  20.789  0.00  0.00    +0.000 A 
ATOM      8  C   UNL     1       2.130   6.609  19.931  0.00  0.00    +0.000 A 
ATOM      9  C   UNL     1       2.403   5.225  20.350  0.00  0.00    +0.000 A 
ATOM     10  O   UNL     1       2.247   4.854  21.507  0.00  0.00    +0.000 OA
ATOM     11  N   UNL     1       2.863   4.401  19.363  0.00  0.00    +0.000 N 
ATOM     12  H   UNL     1       3.008   3.422  19.579  0.00  0.00    +0.000 HD
ENDROOT
BRANCH   6  13
ATOM     13  C   UNL     1       0.468   9.751  21.257  0.00  0.00    +0.000 A 
ATOM     14  C   UNL     1      -0.148   9.318  22.443  0.00  0.00    +0.000 A 
ATOM     15  C   UNL     1      -0.770  10.248  23.265  0.00  0.00    +0.000 A 
ATOM     16  N   UNL     1      -0.820  11.567  23.005  0.00  0.00    +0.000 NA
ATOM     17  C   UNL     1      -0.226  11.975  21.866  0.00  0.00    +0.000 A 
ATOM     18  C   UNL     1       0.412  11.122  20.977  0.00  0.00    +0.000 A 
ENDBRANCH   6  13
BRANCH   1  19
ATOM     19  C   UNL     1       4.089   3.809  17.340  0.00  0.00    +0.000 C 
BRANCH  19  20
ATOM     20  N   UNL     1       3.122   2.961  16.601  0.00  0.00    +0.000 NA
ATOM     21  H   UNL     1       3.329   3.024  15.603  0.00  0.00    +0.000 HD
ATOM     22  H   UNL     1       2.192   3.373  16.708  0.00  0.00    +0.000 HD
ENDBRANCH  19  20
BRANCH  19  23
ATOM     23  C   UNL     1       5.251   4.355  16.487  0.00  0.00    +0.000 C 
BRANCH  23  24
ATOM     24  C   UNL     1       6.242   5.252  17.195  0.00  0.00    +0.000 A 
ATOM     25  C   UNL     1       6.922   4.796  18.333  0.00  0.00    +0.000 A 
ATOM     26  C   UNL     1       7.812   5.621  19.017  0.00  0.00    +0.000 A 
ATOM     27  C   UNL     1       8.056   6.910  18.553  0.00  0.00    +0.000 A 
ATOM     28  C   UNL     1       7.413   7.368  17.404  0.00  0.00    +0.000 A 
ATOM     29  C   UNL     1       6.510   6.545  16.727  0.00  0.00    +0.000 A 
ENDBRANCH  23  24
ENDBRANCH  19  23
ENDBRANCH   1  19
TORSDOF 5
ENDMDL
MODEL 2
REMARK VINA RESULT:      -8.5      3.392      5.295
REMARK  Name = 
REMARK  5 active torsions:
REMARK  status: ('A' for Active; 'I' for Inactive)
REMARK    1  A    between atoms: N_1  and  C_2
REMARK    2  A    between atoms: C_2  and  C_3
REMARK    3  A    between atoms: C_2  and  C_10
REMARK    4  A    between atoms: C_3  and  C_4
REMARK    5  A    between atoms: C_15  and  C_16
REMARK                            x       y       z     vdW  Elec       q    Type
REMARK                         _______ _______ _______ _____ _____    ______ ____
ROOT
ATOM      1  C   UNL     1       1.460   8.761  19.239  0.00  0.00    +0.000 A 
ATOM      2  N   UNL     1       1.072   8.508  20.450  0.00  0.00    +0.000 NA
ATOM      3  C   UNL     1       0.353   9.506  21.127  0.00  0.00    +0.000 A 
ATOM      4  C   UNL     1       0.095   9.360  22.489  0.00  0.00    +0.000 A 
ATOM      5  C   UNL     1      -0.651  10.325  23.181  0.00  0.00    +0.000 A 
ATOM      6  C   UNL     1      -1.171  11.461  22.531  0.00  0.00    +0.000 A 
ATOM      7  C   UNL     1      -0.891  11.603  21.164  0.00  0.00    +0.000 A 
ATOM      8  C   UNL     1      -0.127  10.648  20.487  0.00  0.00    +0.000 A 
ATOM      9  C   UNL     1       0.239  10.832  19.074  0.00  0.00    +0.000 A 
ATOM     10  O   UNL     1      -0.246  11.723  18.387  0.00  0.00    +0.000 OA
ATOM     11  N   UNL     1       1.134   9.924  18.585  0.00  0.00    +0.000 N 
ATOM     12  H   UNL     1       1.471  10.040  17.636  0.00  0.00    +0.000 HD
ENDROOT
BRANCH   6  13
ATOM     13  C   UNL     1      -1.965  12.481  23.253  0.00  0.00    +0.000 A 
ATOM     14  C   UNL     1      -3.278  12.220  23.680  0.00  0.00    +0.000 A 
ATOM     15  C   UNL     1      -3.976  13.201  24.370  0.00  0.00    +0.000 A 
ATOM     16  N   UNL     1      -3.471  14.412  24.672  0.00  0.00    +0.000 NA
ATOM     17  C   UNL     1      -2.212  14.655  24.260  0.00  0.00    +0.000 A 
ATOM     18  C   UNL     1      -1.437  13.742  23.558  0.00  0.00    +0.000 A 
ENDBRANCH   6  13
BRANCH   1  19
ATOM     19  C   UNL     1       2.214   7.749  18.364  0.00  0.00    +0.000 C 
BRANCH  19  20
ATOM     20  N   UNL     1       3.055   8.483  17.387  0.00  0.00    +0.000 NA
ATOM     21  H   UNL     1       2.607   9.375  17.175  0.00  0.00    +0.000 HD
ATOM     22  H   UNL     1       3.046   7.962  16.507  0.00  0.00    +0.000 HD
ENDBRANCH  19  20
BRANCH  19  23
ATOM     23  C   UNL     1       2.946   6.630  19.131  0.00  0.00    +0.000 C 
BRANCH  23  24
ATOM     24  C   UNL     1       2.218   5.310  19.250  0.00  0.00    +0.000 A 
ATOM     25  C   UNL     1       1.751   4.869  20.497  0.00  0.00    +0.000 A 
ATOM     26  C   UNL     1       1.108   3.641  20.630  0.00  0.00    +0.000 A 
ATOM     27  C   UNL     1       0.899   2.844  19.508  0.00  0.00    +0.000 A 
ATOM     28  C   UNL     1       1.328   3.282  18.256  0.00  0.00    +0.000 A 
ATOM     29  C   UNL     1       1.984   4.508  18.125  0.00  0.00    +0.000 A 
ENDBRANCH  23  24
ENDBRANCH  19  23
ENDBRANCH   1  19
TORSDOF 5
ENDMDL
MODEL 3
REMARK VINA RESULT:      -8.4      3.386      5.385
REMARK  Name = 
REMARK  5 active torsions:
REMARK  status: ('A' for Active; 'I' for Inactive)
REMARK    1  A    between atoms: N_1  and  C_2
REMARK    2  A    between atoms: C_2  and  C_3
REMARK    3  A    between atoms: C_2  and  C_10
REMARK    4  A    between atoms: C_3  and  C_4
REMARK    5  A    between atoms: C_15  and  C_16
REMARK                            x       y       z     vdW  Elec       q    Type
REMARK                         _______ _______ _______ _____ _____    ______ ____
ROOT
ATOM      1  C   UNL     1       1.448   8.763  19.228  0.00  0.00    +0.000 A 
ATOM      2  N   UNL     1       1.076   8.515  20.445  0.00  0.00    +0.000 NA
ATOM      3  C   UNL     1       0.356   9.512  21.123  0.00  0.00    +0.000 A 
ATOM      4  C   UNL     1       0.115   9.372  22.489  0.00  0.00    +0.000 A 
ATOM      5  C   UNL     1      -0.631  10.335  23.183  0.00  0.00    +0.000 A 
ATOM      6  C   UNL     1      -1.168  11.464  22.532  0.00  0.00    +0.000 A 
ATOM      7  C   UNL     1      -0.904  11.599  21.161  0.00  0.00    +0.000 A 
ATOM      8  C   UNL     1      -0.140  10.645  20.481  0.00  0.00    +0.000 A 
ATOM      9  C   UNL     1       0.209  10.823  19.063  0.00  0.00    +0.000 A 
ATOM     10  O   UNL     1      -0.291  11.706  18.377  0.00  0.00    +0.000 OA
ATOM     11  N   UNL     1       1.106   9.920  18.570  0.00  0.00    +0.000 N 
ATOM     12  H   UNL     1       1.432  10.032  17.617  0.00  0.00    +0.000 HD
ENDROOT
BRANCH   6  13
ATOM     13  C   UNL     1      -1.962  12.481  23.256  0.00  0.00    +0.000 A 
ATOM     14  C   UNL     1      -1.430  13.744  23.566  0.00  0.00    +0.000 A 
ATOM     15  C   UNL     1      -2.221  14.671  24.230  0.00  0.00    +0.000 A 
ATOM     16  N   UNL     1      -3.494  14.444  24.603  0.00  0.00    +0.000 NA
ATOM     17  C   UNL     1      -3.998  13.231  24.302  0.00  0.00    +0.000 A 
ATOM     18  C   UNL     1      -3.284  12.236  23.649  0.00  0.00    +0.000 A 
ENDBRANCH   6  13
BRANCH   1  19
ATOM     19  C   UNL     1       2.201   7.752  18.352  0.00  0.00    +0.000 C 
BRANCH  19  20
ATOM     20  N   UNL     1       3.028   8.487  17.363  0.00  0.00    +0.000 NA
ATOM     21  H   UNL     1       2.432   9.153  16.869  0.00  0.00    +0.000 HD
ATOM     22  H   UNL     1       3.334   7.821  16.648  0.00  0.00    +0.000 HD
ENDBRANCH  19  20
BRANCH  19  23
ATOM     23  C   UNL     1       2.948   6.642  19.117  0.00  0.00    +0.000 C 
BRANCH  23  24
ATOM     24  C   UNL     1       2.243   5.308  19.224  0.00  0.00    +0.000 A 
ATOM     25  C   UNL     1       2.072   4.505  18.087  0.00  0.00    +0.000 A 
ATOM     26  C   UNL     1       1.396   3.290  18.162  0.00  0.00    +0.000 A 
ATOM     27  C   UNL     1       0.902   2.846  19.385  0.00  0.00    +0.000 A 
ATOM     28  C   UNL     1       1.092   3.617  20.531  0.00  0.00    +0.000 A 
ATOM     29  C   UNL     1       1.758   4.843  20.453  0.00  0.00    +0.000 A 
ENDBRANCH  23  24
ENDBRANCH  19  23
ENDBRANCH   1  19
TORSDOF 5
ENDMDL
MODEL 4
REMARK VINA RESULT:      -8.2      2.058      2.822
REMARK  Name = 
REMARK  5 active torsions:
REMARK  status: ('A' for Active; 'I' for Inactive)
REMARK    1  A    between atoms: N_1  and  C_2
REMARK    2  A    between atoms: C_2  and  C_3
REMARK    3  A    between atoms: C_2  and  C_10
REMARK    4  A    between atoms: C_3  and  C_4
REMARK    5  A    between atoms: C_15  and  C_16
REMARK                            x       y       z     vdW  Elec       q    Type
REMARK                         _______ _______ _______ _____ _____    ______ ____
ROOT
ATOM      1  C   UNL     1       4.216   5.658  17.615  0.00  0.00    +0.000 A 
ATOM      2  N   UNL     1       3.936   6.898  17.360  0.00  0.00    +0.000 NA
ATOM      3  C   UNL     1       3.027   7.550  18.208  0.00  0.00    +0.000 A 
ATOM      4  C   UNL     1       2.543   8.809  17.855  0.00  0.00    +0.000 A 
ATOM      5  C   UNL     1       1.662   9.496  18.701  0.00  0.00    +0.000 A 
ATOM      6  C   UNL     1       1.243   8.952  19.931  0.00  0.00    +0.000 A 
ATOM      7  C   UNL     1       1.725   7.678  20.267  0.00  0.00    +0.000 A 
ATOM      8  C   UNL     1       2.586   6.989  19.407  0.00  0.00    +0.000 A 
ATOM      9  C   UNL     1       3.030   5.621  19.712  0.00  0.00    +0.000 A 
ATOM     10  O   UNL     1       2.815   5.096  20.799  0.00  0.00    +0.000 OA
ATOM     11  N   UNL     1       3.716   4.996  18.710  0.00  0.00    +0.000 N 
ATOM     12  H   UNL     1       3.991   4.030  18.841  0.00  0.00    +0.000 HD
ENDROOT
BRANCH   6  13
ATOM     13  C   UNL     1       0.318   9.675  20.833  0.00  0.00    +0.000 A 
ATOM     14  C   UNL     1       0.121   9.266  22.162  0.00  0.00    +0.000 A 
ATOM     15  C   UNL     1      -0.743   9.987  22.975  0.00  0.00    +0.000 A 
ATOM     16  N   UNL     1      -1.416  11.080  22.574  0.00  0.00    +0.000 NA
ATOM     17  C   UNL     1      -1.222  11.468  21.298  0.00  0.00    +0.000 A 
ATOM     18  C   UNL     1      -0.387  10.808  20.407  0.00  0.00    +0.000 A 
ENDBRANCH   6  13
BRANCH   1  19
ATOM     19  C   UNL     1       5.224   4.834  16.802  0.00  0.00    +0.000 C 
BRANCH  19  20
ATOM     20  N   UNL     1       5.929   3.895  17.709  0.00  0.00    +0.000 NA
ATOM     21  H   UNL     1       5.322   3.693  18.505  0.00  0.00    +0.000 HD
ATOM     22  H   UNL     1       6.736   4.383  18.105  0.00  0.00    +0.000 HD
ENDBRANCH  19  20
BRANCH  19  23
ATOM     23  C   UNL     1       4.668   4.192  15.516  0.00  0.00    +0.000 C 
BRANCH  23  24
ATOM     24  C   UNL     1       5.575   4.212  14.306  0.00  0.00    +0.000 A 
ATOM     25  C   UNL     1       5.227   3.502  13.149  0.00  0.00    +0.000 A 
ATOM     26  C   UNL     1       6.068   3.483  12.038  0.00  0.00    +0.000 A 
ATOM     27  C   UNL     1       7.260   4.199  12.061  0.00  0.00    +0.000 A 
ATOM     28  C   UNL     1       7.606   4.938  13.192  0.00  0.00    +0.000 A 
ATOM     29  C   UNL     1       6.769   4.945  14.311  0.00  0.00    +0.000 A 
ENDBRANCH  23  24
ENDBRANCH  19  23
ENDBRANCH   1  19
TORSDOF 5
ENDMDL
MODEL 5
REMARK VINA RESULT:      -8.1      2.542      9.182
REMARK  Name = 
REMARK  5 active torsions:
REMARK  status: ('A' for Active; 'I' for Inactive)
REMARK    1  A    between atoms: N_1  and  C_2
REMARK    2  A    between atoms: C_2  and  C_3
REMARK    3  A    between atoms: C_2  and  C_10
REMARK    4  A    between atoms: C_3  and  C_4
REMARK    5  A    between atoms: C_15  and  C_16
REMARK                            x       y       z     vdW  Elec       q    Type
REMARK                         _______ _______ _______ _____ _____    ______ ____
ROOT
ATOM      1  C   UNL     1       0.281   9.476  21.213  0.00  0.00    +0.000 A 
ATOM      2  N   UNL     1       0.842   8.337  21.472  0.00  0.00    +0.000 NA
ATOM      3  C   UNL     1       1.578   7.723  20.445  0.00  0.00    +0.000 A 
ATOM      4  C   UNL     1       2.023   6.412  20.611  0.00  0.00    +0.000 A 
ATOM      5  C   UNL     1       2.788   5.788  19.616  0.00  0.00    +0.000 A 
ATOM      6  C   UNL     1       3.141   6.457  18.427  0.00  0.00    +0.000 A 
ATOM      7  C   UNL     1       2.673   7.771  18.267  0.00  0.00    +0.000 A 
ATOM      8  C   UNL     1       1.892   8.377  19.255  0.00  0.00    +0.000 A 
ATOM      9  C   UNL     1       1.329   9.722  19.058  0.00  0.00    +0.000 A 
ATOM     10  O   UNL     1       1.659  10.433  18.115  0.00  0.00    +0.000 OA
ATOM     11  N   UNL     1       0.439  10.124  20.012  0.00  0.00    +0.000 N 
ATOM     12  H   UNL     1      -0.028  11.015  19.894  0.00  0.00    +0.000 HD
ENDROOT
BRANCH   6  13
ATOM     13  C   UNL     1       3.955   5.808  17.375  0.00  0.00    +0.000 A 
ATOM     14  C   UNL     1       4.748   6.560  16.493  0.00  0.00    +0.000 A 
ATOM     15  C   UNL     1       5.508   5.904  15.534  0.00  0.00    +0.000 A 
ATOM     16  N   UNL     1       5.546   4.567  15.390  0.00  0.00    +0.000 NA
ATOM     17  C   UNL     1       4.784   3.851  16.241  0.00  0.00    +0.000 A 
ATOM     18  C   UNL     1       3.984   4.416  17.225  0.00  0.00    +0.000 A 
ENDBRANCH   6  13
BRANCH   1  19
ATOM     19  C   UNL     1      -0.514  10.282  22.251  0.00  0.00    +0.000 C 
BRANCH  19  20
ATOM     20  N   UNL     1      -0.006   9.962  23.608  0.00  0.00    +0.000 NA
ATOM     21  H   UNL     1       0.613   9.153  23.543  0.00  0.00    +0.000 HD
ATOM     22  H   UNL     1      -0.796   9.650  24.177  0.00  0.00    +0.000 HD
ENDBRANCH  19  20
BRANCH  19  23
ATOM     23  C   UNL     1      -0.651  11.788  21.953  0.00  0.00    +0.000 C 
BRANCH  23  24
ATOM     24  C   UNL     1      -1.566  12.574  22.865  0.00  0.00    +0.000 A 
ATOM     25  C   UNL     1      -2.829  12.069  23.206  0.00  0.00    +0.000 A 
ATOM     26  C   UNL     1      -3.697  12.796  24.018  0.00  0.00    +0.000 A 
ATOM     27  C   UNL     1      -3.301  14.030  24.524  0.00  0.00    +0.000 A 
ATOM     28  C   UNL     1      -2.035  14.531  24.223  0.00  0.00    +0.000 A 
ATOM     29  C   UNL     1      -1.170  13.808  23.397  0.00  0.00    +0.000 A 
ENDBRANCH  23  24
ENDBRANCH  19  23
ENDBRANCH   1  19
TORSDOF 5
ENDMDL
MODEL 6
REMARK VINA RESULT:      -8.1      3.239      5.221
REMARK  Name = 
REMARK  5 active torsions:
REMARK  status: ('A' for Active; 'I' for Inactive)
REMARK    1  A    between atoms: N_1  and  C_2
REMARK    2  A    between atoms: C_2  and  C_3
REMARK    3  A    between atoms: C_2  and  C_10
REMARK    4  A    between atoms: C_3  and  C_4
REMARK    5  A    between atoms: C_15  and  C_16
REMARK                            x       y       z     vdW  Elec       q    Type
REMARK                         _______ _______ _______ _____ _____    ______ ____
ROOT
ATOM      1  C   UNL     1       1.220   8.787  19.418  0.00  0.00    +0.000 A 
ATOM      2  N   UNL     1       0.436   9.751  19.053  0.00  0.00    +0.000 NA
ATOM      3  C   UNL     1      -0.179  10.510  20.062  0.00  0.00    +0.000 A 
ATOM      4  C   UNL     1      -1.181  11.417  19.721  0.00  0.00    +0.000 A 
ATOM      5  C   UNL     1      -1.787  12.212  20.704  0.00  0.00    +0.000 A 
ATOM      6  C   UNL     1      -1.403  12.133  22.057  0.00  0.00    +0.000 A 
ATOM      7  C   UNL     1      -0.404  11.206  22.388  0.00  0.00    +0.000 A 
ATOM      8  C   UNL     1       0.179  10.401  21.405  0.00  0.00    +0.000 A 
ATOM      9  C   UNL     1       1.167   9.369  21.756  0.00  0.00    +0.000 A 
ATOM     10  O   UNL     1       1.650   9.288  22.879  0.00  0.00    +0.000 OA
ATOM     11  N   UNL     1       1.520   8.534  20.735  0.00  0.00    +0.000 N 
ATOM     12  H   UNL     1       2.150   7.765  20.935  0.00  0.00    +0.000 HD
ENDROOT
BRANCH   6  13
ATOM     13  C   UNL     1      -2.033  12.975  23.100  0.00  0.00    +0.000 A 
ATOM     14  C   UNL     1      -1.382  14.105  23.622  0.00  0.00    +0.000 A 
ATOM     15  C   UNL     1      -2.021  14.874  24.585  0.00  0.00    +0.000 A 
ATOM     16  N   UNL     1      -3.251  14.611  25.062  0.00  0.00    +0.000 NA
ATOM     17  C   UNL     1      -3.870  13.525  24.557  0.00  0.00    +0.000 A 
ATOM     18  C   UNL     1      -3.310  12.691  23.599  0.00  0.00    +0.000 A 
ENDBRANCH   6  13
BRANCH   1  19
ATOM     19  C   UNL     1       1.994   7.904  18.428  0.00  0.00    +0.000 C 
BRANCH  19  20
ATOM     20  N   UNL     1       2.720   8.772  17.468  0.00  0.00    +0.000 NA
ATOM     21  H   UNL     1       3.278   8.180  16.851  0.00  0.00    +0.000 HD
ATOM     22  H   UNL     1       3.401   9.326  17.994  0.00  0.00    +0.000 HD
ENDBRANCH  19  20
BRANCH  19  23
ATOM     23  C   UNL     1       2.849   6.791  19.064  0.00  0.00    +0.000 C 
BRANCH  23  24
ATOM     24  C   UNL     1       2.190   5.438  19.212  0.00  0.00    +0.000 A 
ATOM     25  C   UNL     1       2.003   4.615  18.091  0.00  0.00    +0.000 A 
ATOM     26  C   UNL     1       1.367   3.381  18.205  0.00  0.00    +0.000 A 
ATOM     27  C   UNL     1       0.932   2.939  19.450  0.00  0.00    +0.000 A 
ATOM     28  C   UNL     1       1.139   3.730  20.579  0.00  0.00    +0.000 A 
ATOM     29  C   UNL     1       1.764   4.974  20.463  0.00  0.00    +0.000 A 
ENDBRANCH  23  24
ENDBRANCH  19  23
ENDBRANCH   1  19
TORSDOF 5
ENDMDL
MODEL 7
REMARK VINA RESULT:      -8.1      3.245      5.129
REMARK  Name = 
REMARK  5 active torsions:
REMARK  status: ('A' for Active; 'I' for Inactive)
REMARK    1  A    between atoms: N_1  and  C_2
REMARK    2  A    between atoms: C_2  and  C_3
REMARK    3  A    between atoms: C_2  and  C_10
REMARK    4  A    between atoms: C_3  and  C_4
REMARK    5  A    between atoms: C_15  and  C_16
REMARK                            x       y       z     vdW  Elec       q    Type
REMARK                         _______ _______ _______ _____ _____    ______ ____
ROOT
ATOM      1  C   UNL     1       1.223   8.788  19.424  0.00  0.00    +0.000 A 
ATOM      2  N   UNL     1       0.443   9.754  19.052  0.00  0.00    +0.000 NA
ATOM      3  C   UNL     1      -0.173  10.519  20.056  0.00  0.00    +0.000 A 
ATOM      4  C   UNL     1      -1.171  11.428  19.709  0.00  0.00    +0.000 A 
ATOM      5  C   UNL     1      -1.777  12.229  20.687  0.00  0.00    +0.000 A 
ATOM      6  C   UNL     1      -1.399  12.153  22.042  0.00  0.00    +0.000 A 
ATOM      7  C   UNL     1      -0.404  11.223  22.379  0.00  0.00    +0.000 A 
ATOM      8  C   UNL     1       0.180  10.413  21.401  0.00  0.00    +0.000 A 
ATOM      9  C   UNL     1       1.163   9.379  21.759  0.00  0.00    +0.000 A 
ATOM     10  O   UNL     1       1.641   9.300  22.885  0.00  0.00    +0.000 OA
ATOM     11  N   UNL     1       1.517   8.539  20.743  0.00  0.00    +0.000 N 
ATOM     12  H   UNL     1       2.143   7.768  20.947  0.00  0.00    +0.000 HD
ENDROOT
BRANCH   6  13
ATOM     13  C   UNL     1      -2.029  13.000  23.079  0.00  0.00    +0.000 A 
ATOM     14  C   UNL     1      -3.307  12.712  23.585  0.00  0.00    +0.000 A 
ATOM     15  C   UNL     1      -3.849  13.525  24.571  0.00  0.00    +0.000 A 
ATOM     16  N   UNL     1      -3.219  14.593  25.094  0.00  0.00    +0.000 NA
ATOM     17  C   UNL     1      -1.993  14.863  24.605  0.00  0.00    +0.000 A 
ATOM     18  C   UNL     1      -1.372  14.115  23.614  0.00  0.00    +0.000 A 
ENDBRANCH   6  13
BRANCH   1  19
ATOM     19  C   UNL     1       1.997   7.900  18.439  0.00  0.00    +0.000 C 
BRANCH  19  20
ATOM     20  N   UNL     1       2.741   8.761  17.489  0.00  0.00    +0.000 NA
ATOM     21  H   UNL     1       3.253   9.468  18.020  0.00  0.00    +0.000 HD
ATOM     22  H   UNL     1       2.059   9.285  16.934  0.00  0.00    +0.000 HD
ENDBRANCH  19  20
BRANCH  19  23
ATOM     23  C   UNL     1       2.834   6.776  19.082  0.00  0.00    +0.000 C 
BRANCH  23  24
ATOM     24  C   UNL     1       2.167   5.424  19.201  0.00  0.00    +0.000 A 
ATOM     25  C   UNL     1       1.710   4.969  20.446  0.00  0.00    +0.000 A 
ATOM     26  C   UNL     1       1.124   3.712  20.579  0.00  0.00    +0.000 A 
ATOM     27  C   UNL     1       0.963   2.901  19.460  0.00  0.00    +0.000 A 
ATOM     28  C   UNL     1       1.382   3.353  18.209  0.00  0.00    +0.000 A 
ATOM     29  C   UNL     1       1.982   4.608  18.078  0.00  0.00    +0.000 A 
ENDBRANCH  23  24
ENDBRANCH  19  23
ENDBRANCH   1  19
TORSDOF 5
ENDMDL
MODEL 8
REMARK VINA RESULT:      -8.1      2.964      4.881
REMARK  Name = 
REMARK  5 active torsions:
REMARK  status: ('A' for Active; 'I' for Inactive)
REMARK    1  A    between atoms: N_1  and  C_2
REMARK    2  A    between atoms: C_2  and  C_3
REMARK    3  A    between atoms: C_2  and  C_10
REMARK    4  A    between atoms: C_3  and  C_4
REMARK    5  A    between atoms: C_15  and  C_16
REMARK                            x       y       z     vdW  Elec       q    Type
REMARK                         _______ _______ _______ _____ _____    ______ ____
ROOT
ATOM      1  C   UNL     1       1.683   8.001  20.161  0.00  0.00    +0.000 A 
ATOM      2  N   UNL     1       1.113   8.063  21.323  0.00  0.00    +0.000 NA
ATOM      3  C   UNL     1       0.318   9.187  21.602  0.00  0.00    +0.000 A 
ATOM      4  C   UNL     1      -0.144   9.393  22.901  0.00  0.00    +0.000 A 
ATOM      5  C   UNL     1      -0.967  10.488  23.198  0.00  0.00    +0.000 A 
ATOM      6  C   UNL     1      -1.362  11.407  22.206  0.00  0.00    +0.000 A 
ATOM      7  C   UNL     1      -0.877  11.195  20.906  0.00  0.00    +0.000 A 
ATOM      8  C   UNL     1      -0.038  10.113  20.623  0.00  0.00    +0.000 A 
ATOM      9  C   UNL     1       0.541   9.932  19.283  0.00  0.00    +0.000 A 
ATOM     10  O   UNL     1       0.181  10.604  18.323  0.00  0.00    +0.000 OA
ATOM     11  N   UNL     1       1.482   8.948  19.186  0.00  0.00    +0.000 N 
ATOM     12  H   UNL     1       1.960   8.820  18.302  0.00  0.00    +0.000 HD
ENDROOT
BRANCH   6  13
ATOM     13  C   UNL     1      -2.237  12.561  22.510  0.00  0.00    +0.000 A 
ATOM     14  C   UNL     1      -3.150  12.528  23.578  0.00  0.00    +0.000 A 
ATOM     15  C   UNL     1      -3.936  13.642  23.836  0.00  0.00    +0.000 A 
ATOM     16  N   UNL     1      -3.880  14.783  23.123  0.00  0.00    +0.000 NA
ATOM     17  C   UNL     1      -3.002  14.808  22.101  0.00  0.00    +0.000 A 
ATOM     18  C   UNL     1      -2.180  13.742  21.760  0.00  0.00    +0.000 A 
ENDBRANCH   6  13
BRANCH   1  19
ATOM     19  C   UNL     1       2.542   6.813  19.702  0.00  0.00    +0.000 C 
BRANCH  19  20
ATOM     20  N   UNL     1       2.574   5.792  20.778  0.00  0.00    +0.000 NA
ATOM     21  H   UNL     1       1.616   5.504  20.983  0.00  0.00    +0.000 HD
ATOM     22  H   UNL     1       2.907   6.244  21.634  0.00  0.00    +0.000 HD
ENDBRANCH  19  20
BRANCH  19  23
ATOM     23  C   UNL     1       2.211   6.263  18.301  0.00  0.00    +0.000 C 
BRANCH  23  24
ATOM     24  C   UNL     1       2.454   4.786  18.085  0.00  0.00    +0.000 A 
ATOM     25  C   UNL     1       1.434   3.857  18.333  0.00  0.00    +0.000 A 
ATOM     26  C   UNL     1       1.652   2.491  18.171  0.00  0.00    +0.000 A 
ATOM     27  C   UNL     1       2.890   2.034  17.731  0.00  0.00    +0.000 A 
ATOM     28  C   UNL     1       3.906   2.947  17.448  0.00  0.00    +0.000 A 
ATOM     29  C   UNL     1       3.691   4.316  17.624  0.00  0.00    +0.000 A 
ENDBRANCH  23  24
ENDBRANCH  19  23
ENDBRANCH   1  19
TORSDOF 5
ENDMDL
MODEL 9
REMARK VINA RESULT:      -8.1      3.140      4.852
REMARK  Name = 
REMARK  5 active torsions:
REMARK  status: ('A' for Active; 'I' for Inactive)
REMARK    1  A    between atoms: N_1  and  C_2
REMARK    2  A    between atoms: C_2  and  C_3
REMARK    3  A    between atoms: C_2  and  C_10
REMARK    4  A    between atoms: C_3  and  C_4
REMARK    5  A    between atoms: C_15  and  C_16
REMARK                            x       y       z     vdW  Elec       q    Type
REMARK                         _______ _______ _______ _____ _____    ______ ____
ROOT
ATOM      1  C   UNL     1       2.000   7.966  19.563  0.00  0.00    +0.000 A 
ATOM      2  N   UNL     1       1.491   7.832  20.747  0.00  0.00    +0.000 NA
ATOM      3  C   UNL     1       0.773   8.916  21.276  0.00  0.00    +0.000 A 
ATOM      4  C   UNL     1       0.387   8.894  22.615  0.00  0.00    +0.000 A 
ATOM      5  C   UNL     1      -0.361   9.948  23.159  0.00  0.00    +0.000 A 
ATOM      6  C   UNL     1      -0.753  11.054  22.380  0.00  0.00    +0.000 A 
ATOM      7  C   UNL     1      -0.344  11.070  21.038  0.00  0.00    +0.000 A 
ATOM      8  C   UNL     1       0.420  10.026  20.509  0.00  0.00    +0.000 A 
ATOM      9  C   UNL     1       0.922  10.076  19.128  0.00  0.00    +0.000 A 
ATOM     10  O   UNL     1       0.552  10.933  18.333  0.00  0.00    +0.000 OA
ATOM     11  N   UNL     1       1.803   9.087  18.795  0.00  0.00    +0.000 N 
ATOM     12  H   UNL     1       2.230   9.109  17.876  0.00  0.00    +0.000 HD
ENDROOT
BRANCH   6  13
ATOM     13  C   UNL     1      -1.549  12.167  22.945  0.00  0.00    +0.000 A 
ATOM     14  C   UNL     1      -2.865  11.973  23.396  0.00  0.00    +0.000 A 
ATOM     15  C   UNL     1      -3.564  13.044  23.935  0.00  0.00    +0.000 A 
ATOM     16  N   UNL     1      -3.057  14.284  24.066  0.00  0.00    +0.000 NA
ATOM     17  C   UNL     1      -1.794  14.463  23.632  0.00  0.00    +0.000 A 
ATOM     18  C   UNL     1      -1.018  13.457  23.071  0.00  0.00    +0.000 A 
ENDBRANCH   6  13
BRANCH   1  19
ATOM     19  C   UNL     1       2.769   6.849  18.842  0.00  0.00    +0.000 C 
BRANCH  19  20
ATOM     20  N   UNL     1       3.605   6.120  19.827  0.00  0.00    +0.000 NA
ATOM     21  H   UNL     1       4.423   6.689  20.046  0.00  0.00    +0.000 HD
ATOM     22  H   UNL     1       3.975   5.283  19.370  0.00  0.00    +0.000 HD
ENDBRANCH  19  20
BRANCH  19  23
ATOM     23  C   UNL     1       1.919   5.948  17.925  0.00  0.00    +0.000 C 
BRANCH  23  24
ATOM     24  C   UNL     1       1.885   4.476  18.274  0.00  0.00    +0.000 A 
ATOM     25  C   UNL     1       1.166   4.030  19.392  0.00  0.00    +0.000 A 
ATOM     26  C   UNL     1       1.152   2.683  19.746  0.00  0.00    +0.000 A 
ATOM     27  C   UNL     1       1.838   1.756  18.967  0.00  0.00    +0.000 A 
ATOM     28  C   UNL     1       2.531   2.178  17.834  0.00  0.00    +0.000 A 
ATOM     29  C   UNL     1       2.556   3.531  17.487  0.00  0.00    +0.000 A 
ENDBRANCH  23  24
ENDBRANCH  19  23
ENDBRANCH   1  19
TORSDOF 5
ENDMDL
