MODEL 1
REMARK VINA RESULT:      -8.2      0.000      0.000
REMARK  Name = 
REMARK  7 active torsions:
REMARK  status: ('A' for Active; 'I' for Inactive)
REMARK    1  A    between atoms: C_1  and  C_2
REMARK    2  A    between atoms: C_2  and  C_3
REMARK    3  A    between atoms: C_2  and  C_4
REMARK    4  A    between atoms: C_9  and  C_10
REMARK    5  A    between atoms: C_15  and  C_16
REMARK    6  A    between atoms: C_23  and  C_24
REMARK    7  A    between atoms: C_28  and  O_29
REMARK                            x       y       z     vdW  Elec       q    Type
REMARK                         _______ _______ _______ _____ _____    ______ ____
ROOT
ATOM      1  C   UNL     1       3.969   3.334  19.587  0.00  0.00    +0.000 A 
ATOM      2  N   UNL     1       2.950   3.503  20.510  0.00  0.00    +0.000 NA
ATOM      3  C   UNL     1       2.563   4.744  20.353  0.00  0.00    +0.000 A 
ATOM      4  C   UNL     1       1.506   5.443  21.035  0.00  0.00    +0.000 A 
ATOM      5  N   UNL     1       1.225   6.695  20.779  0.00  0.00    +0.000 NA
ATOM      6  C   UNL     1       1.999   7.351  19.824  0.00  0.00    +0.000 A 
ATOM      7  C   UNL     1       3.036   6.758  19.196  0.00  0.00    +0.000 A 
ATOM      8  N   UNL     1       3.297   5.416  19.421  0.00  0.00    +0.000 N 
ATOM      9  C   UNL     1       4.188   4.510  18.855  0.00  0.00    +0.000 A 
ENDROOT
BRANCH   9  10
ATOM     10  C   UNL     1       5.080   4.798  17.716  0.00  0.00    +0.000 A 
ATOM     11  C   UNL     1       6.294   5.478  17.886  0.00  0.00    +0.000 A 
ATOM     12  F   UNL     1       6.637   5.975  19.083  0.00  0.00    +0.000 F 
ATOM     13  C   UNL     1       7.192   5.678  16.834  0.00  0.00    +0.000 A 
ATOM     14  C   UNL     1       6.850   5.249  15.561  0.00  0.00    +0.000 A 
ATOM     15  C   UNL     1       5.639   4.616  15.335  0.00  0.00    +0.000 A 
ATOM     16  C   UNL     1       4.785   4.369  16.409  0.00  0.00    +0.000 A 
ATOM     17  F   UNL     1       3.659   3.685  16.151  0.00  0.00    +0.000 F 
BRANCH  14  18
ATOM     18  O   UNL     1       7.682   5.425  14.498  0.00  0.00    +0.000 OA
ATOM     19  H   UNL     1       7.164   5.421  13.676  0.00  0.00    +0.000 HD
ENDBRANCH  14  18
ENDBRANCH   9  10
BRANCH   6  20
ATOM     20  C   UNL     1       1.676   8.765  19.497  0.00  0.00    +0.000 A 
ATOM     21  C   UNL     1       2.039   9.306  18.257  0.00  0.00    +0.000 A 
ATOM     22  C   UNL     1       1.705  10.621  17.927  0.00  0.00    +0.000 A 
ATOM     23  C   UNL     1       1.008  11.413  18.836  0.00  0.00    +0.000 A 
ATOM     24  F   UNL     1       0.684  12.662  18.476  0.00  0.00    +0.000 F 
ATOM     25  C   UNL     1       0.653  10.926  20.086  0.00  0.00    +0.000 A 
ATOM     26  C   UNL     1       1.010   9.603  20.414  0.00  0.00    +0.000 A 
BRANCH  25  27
ATOM     27  C   UNL     1      -0.109  11.761  21.072  0.00  0.00    +0.000 C 
ATOM     28  F   UNL     1      -1.341  12.165  20.663  0.00  0.00    +0.000 F 
ATOM     29  F   UNL     1      -0.309  11.100  22.248  0.00  0.00    +0.000 F 
ATOM     30  F   UNL     1       0.561  12.900  21.408  0.00  0.00    +0.000 F 
ENDBRANCH  25  27
ENDBRANCH   6  20
BRANCH   1  32
ATOM     31  C   UNL     1       4.884   1.378  20.864  0.00  0.00    +0.000 C 
ATOM     32  C   UNL     1       4.629   1.982  19.480  0.00  0.00    +0.000 C 
ATOM     33  C   UNL     1       3.821   1.016  18.613  0.00  0.00    +0.000 C 
ENDBRANCH   1  32
TORSDOF 5
ENDMDL
MODEL 2
REMARK VINA RESULT:      -8.1      0.205      1.624
REMARK  Name = 
REMARK  7 active torsions:
REMARK  status: ('A' for Active; 'I' for Inactive)
REMARK    1  A    between atoms: C_1  and  C_2
REMARK    2  A    between atoms: C_2  and  C_3
REMARK    3  A    between atoms: C_2  and  C_4
REMARK    4  A    between atoms: C_9  and  C_10
REMARK    5  A    between atoms: C_15  and  C_16
REMARK    6  A    between atoms: C_23  and  C_24
REMARK    7  A    between atoms: C_28  and  O_29
REMARK                            x       y       z     vdW  Elec       q    Type
REMARK                         _______ _______ _______ _____ _____    ______ ____
ROOT
ATOM      1  C   UNL     1       3.988   3.279  19.656  0.00  0.00    +0.000 A 
ATOM      2  N   UNL     1       2.962   3.474  20.565  0.00  0.00    +0.000 NA
ATOM      3  C   UNL     1       2.583   4.712  20.375  0.00  0.00    +0.000 A 
ATOM      4  C   UNL     1       1.522   5.432  21.031  0.00  0.00    +0.000 A 
ATOM      5  N   UNL     1       1.249   6.678  20.742  0.00  0.00    +0.000 NA
ATOM      6  C   UNL     1       2.034   7.308  19.779  0.00  0.00    +0.000 A 
ATOM      7  C   UNL     1       3.075   6.696  19.175  0.00  0.00    +0.000 A 
ATOM      8  N   UNL     1       3.328   5.359  19.434  0.00  0.00    +0.000 N 
ATOM      9  C   UNL     1       4.219   4.436  18.898  0.00  0.00    +0.000 A 
ENDROOT
BRANCH   9  10
ATOM     10  C   UNL     1       5.122   4.693  17.760  0.00  0.00    +0.000 A 
ATOM     11  C   UNL     1       4.785   4.315  16.452  0.00  0.00    +0.000 A 
ATOM     12  F   UNL     1       3.666   3.616  16.211  0.00  0.00    +0.000 F 
ATOM     13  C   UNL     1       5.586   4.632  15.353  0.00  0.00    +0.000 A 
ATOM     14  C   UNL     1       6.789   5.288  15.558  0.00  0.00    +0.000 A 
ATOM     15  C   UNL     1       7.188   5.638  16.837  0.00  0.00    +0.000 A 
ATOM     16  C   UNL     1       6.345   5.370  17.915  0.00  0.00    +0.000 A 
ATOM     17  F   UNL     1       6.743   5.798  19.124  0.00  0.00    +0.000 F 
BRANCH  14  18
ATOM     18  O   UNL     1       7.613   5.615  14.524  0.00  0.00    +0.000 OA
ATOM     19  H   UNL     1       7.298   6.433  14.105  0.00  0.00    +0.000 HD
ENDBRANCH  14  18
ENDBRANCH   9  10
BRANCH   6  20
ATOM     20  C   UNL     1       1.720   8.715  19.415  0.00  0.00    +0.000 A 
ATOM     21  C   UNL     1       2.211   9.265  18.223  0.00  0.00    +0.000 A 
ATOM     22  C   UNL     1       1.888  10.573  17.855  0.00  0.00    +0.000 A 
ATOM     23  C   UNL     1       1.075  11.349  18.678  0.00  0.00    +0.000 A 
ATOM     24  F   UNL     1       0.768  12.591  18.282  0.00  0.00    +0.000 F 
ATOM     25  C   UNL     1       0.591  10.853  19.881  0.00  0.00    +0.000 A 
ATOM     26  C   UNL     1       0.937   9.538  20.249  0.00  0.00    +0.000 A 
BRANCH  25  27
ATOM     27  C   UNL     1      -0.296  11.670  20.772  0.00  0.00    +0.000 C 
ATOM     28  F   UNL     1       0.251  12.824  21.239  0.00  0.00    +0.000 F 
ATOM     29  F   UNL     1      -1.448  12.038  20.142  0.00  0.00    +0.000 F 
ATOM     30  F   UNL     1      -0.695  10.977  21.877  0.00  0.00    +0.000 F 
ENDBRANCH  25  27
ENDBRANCH   6  20
BRANCH   1  32
ATOM     31  C   UNL     1       4.841   1.329  20.985  0.00  0.00    +0.000 C 
ATOM     32  C   UNL     1       4.644   1.921  19.587  0.00  0.00    +0.000 C 
ATOM     33  C   UNL     1       3.864   0.952  18.698  0.00  0.00    +0.000 C 
ENDBRANCH   1  32
TORSDOF 5
ENDMDL
MODEL 3
REMARK VINA RESULT:      -7.8      3.519      8.750
REMARK  Name = 
REMARK  7 active torsions:
REMARK  status: ('A' for Active; 'I' for Inactive)
REMARK    1  A    between atoms: C_1  and  C_2
REMARK    2  A    between atoms: C_2  and  C_3
REMARK    3  A    between atoms: C_2  and  C_4
REMARK    4  A    between atoms: C_9  and  C_10
REMARK    5  A    between atoms: C_15  and  C_16
REMARK    6  A    between atoms: C_23  and  C_24
REMARK    7  A    between atoms: C_28  and  O_29
REMARK                            x       y       z     vdW  Elec       q    Type
REMARK                         _______ _______ _______ _____ _____    ______ ____
ROOT
ATOM      1  C   UNL     1      -0.168  12.983  22.081  0.00  0.00    +0.000 A 
ATOM      2  N   UNL     1      -0.707  11.942  22.818  0.00  0.00    +0.000 NA
ATOM      3  C   UNL     1      -0.219  10.859  22.267  0.00  0.00    +0.000 A 
ATOM      4  C   UNL     1      -0.424   9.489  22.657  0.00  0.00    +0.000 A 
ATOM      5  N   UNL     1       0.128   8.495  22.010  0.00  0.00    +0.000 NA
ATOM      6  C   UNL     1       0.920   8.799  20.905  0.00  0.00    +0.000 A 
ATOM      7  C   UNL     1       1.099  10.063  20.465  0.00  0.00    +0.000 A 
ATOM      8  N   UNL     1       0.566  11.121  21.183  0.00  0.00    +0.000 N 
ATOM      9  C   UNL     1       0.672  12.502  21.066  0.00  0.00    +0.000 A 
ENDROOT
BRANCH   9  10
ATOM     10  C   UNL     1       1.535  13.207  20.099  0.00  0.00    +0.000 A 
ATOM     11  C   UNL     1       2.684  13.900  20.506  0.00  0.00    +0.000 A 
ATOM     12  F   UNL     1       2.979  14.026  21.808  0.00  0.00    +0.000 F 
ATOM     13  C   UNL     1       3.560  14.493  19.594  0.00  0.00    +0.000 A 
ATOM     14  C   UNL     1       3.260  14.455  18.242  0.00  0.00    +0.000 A 
ATOM     15  C   UNL     1       2.110  13.824  17.796  0.00  0.00    +0.000 A 
ATOM     16  C   UNL     1       1.281  13.182  18.715  0.00  0.00    +0.000 A 
ATOM     17  F   UNL     1       0.222  12.520  18.225  0.00  0.00    +0.000 F 
BRANCH  14  18
ATOM     18  O   UNL     1       4.074  15.024  17.310  0.00  0.00    +0.000 OA
ATOM     19  H   UNL     1       4.048  14.498  16.493  0.00  0.00    +0.000 HD
ENDBRANCH  14  18
ENDBRANCH   9  10
BRANCH   6  20
ATOM     20  C   UNL     1       1.580   7.685  20.175  0.00  0.00    +0.000 A 
ATOM     21  C   UNL     1       2.186   7.913  18.932  0.00  0.00    +0.000 A 
ATOM     22  C   UNL     1       2.842   6.881  18.258  0.00  0.00    +0.000 A 
ATOM     23  C   UNL     1       2.896   5.606  18.817  0.00  0.00    +0.000 A 
ATOM     24  F   UNL     1       3.554   4.647  18.154  0.00  0.00    +0.000 F 
ATOM     25  C   UNL     1       2.285   5.330  20.033  0.00  0.00    +0.000 A 
ATOM     26  C   UNL     1       1.612   6.376  20.696  0.00  0.00    +0.000 A 
BRANCH  25  27
ATOM     27  C   UNL     1       2.344   3.967  20.655  0.00  0.00    +0.000 C 
ATOM     28  F   UNL     1       3.471   3.254  20.390  0.00  0.00    +0.000 F 
ATOM     29  F   UNL     1       2.258   4.025  22.015  0.00  0.00    +0.000 F 
ATOM     30  F   UNL     1       1.305   3.176  20.262  0.00  0.00    +0.000 F 
ENDBRANCH  25  27
ENDBRANCH   6  20
BRANCH   1  32
ATOM     31  C   UNL     1      -1.344  15.091  21.397  0.00  0.00    +0.000 C 
ATOM     32  C   UNL     1      -0.507  14.399  22.477  0.00  0.00    +0.000 C 
ATOM     33  C   UNL     1      -1.216  14.463  23.829  0.00  0.00    +0.000 C 
ENDBRANCH   1  32
TORSDOF 5
ENDMDL
MODEL 4
REMARK VINA RESULT:      -7.8      3.536      8.840
REMARK  Name = 
REMARK  7 active torsions:
REMARK  status: ('A' for Active; 'I' for Inactive)
REMARK    1  A    between atoms: C_1  and  C_2
REMARK    2  A    between atoms: C_2  and  C_3
REMARK    3  A    between atoms: C_2  and  C_4
REMARK    4  A    between atoms: C_9  and  C_10
REMARK    5  A    between atoms: C_15  and  C_16
REMARK    6  A    between atoms: C_23  and  C_24
REMARK    7  A    between atoms: C_28  and  O_29
REMARK                            x       y       z     vdW  Elec       q    Type
REMARK                         _______ _______ _______ _____ _____    ______ ____
ROOT
ATOM      1  C   UNL     1      -0.142  12.890  22.056  0.00  0.00    +0.000 A 
ATOM      2  N   UNL     1      -0.688  11.869  22.816  0.00  0.00    +0.000 NA
ATOM      3  C   UNL     1      -0.206  10.772  22.290  0.00  0.00    +0.000 A 
ATOM      4  C   UNL     1      -0.419   9.412  22.711  0.00  0.00    +0.000 A 
ATOM      5  N   UNL     1       0.128   8.400  22.087  0.00  0.00    +0.000 NA
ATOM      6  C   UNL     1       0.921   8.675  20.975  0.00  0.00    +0.000 A 
ATOM      7  C   UNL     1       1.107   9.927  20.507  0.00  0.00    +0.000 A 
ATOM      8  N   UNL     1       0.580  11.004  21.201  0.00  0.00    +0.000 N 
ATOM      9  C   UNL     1       0.694  12.382  21.052  0.00  0.00    +0.000 A 
ENDROOT
BRANCH   9  10
ATOM     10  C   UNL     1       1.562  13.059  20.069  0.00  0.00    +0.000 A 
ATOM     11  C   UNL     1       1.265  13.054  18.699  0.00  0.00    +0.000 A 
ATOM     12  F   UNL     1       0.228  12.346  18.228  0.00  0.00    +0.000 F 
ATOM     13  C   UNL     1       2.025  13.766  17.768  0.00  0.00    +0.000 A 
ATOM     14  C   UNL     1       3.150  14.453  18.195  0.00  0.00    +0.000 A 
ATOM     15  C   UNL     1       3.511  14.447  19.532  0.00  0.00    +0.000 A 
ATOM     16  C   UNL     1       2.704  13.783  20.455  0.00  0.00    +0.000 A 
ATOM     17  F   UNL     1       3.055  13.871  21.748  0.00  0.00    +0.000 F 
BRANCH  14  18
ATOM     18  O   UNL     1       3.931  15.157  17.329  0.00  0.00    +0.000 OA
ATOM     19  H   UNL     1       4.268  15.954  17.772  0.00  0.00    +0.000 HD
ENDBRANCH  14  18
ENDBRANCH   9  10
BRANCH   6  20
ATOM     20  C   UNL     1       1.575   7.541  20.271  0.00  0.00    +0.000 A 
ATOM     21  C   UNL     1       2.229   7.748  19.049  0.00  0.00    +0.000 A 
ATOM     22  C   UNL     1       2.880   6.696  18.400  0.00  0.00    +0.000 A 
ATOM     23  C   UNL     1       2.879   5.422  18.964  0.00  0.00    +0.000 A 
ATOM     24  F   UNL     1       3.533   4.443  18.325  0.00  0.00    +0.000 F 
ATOM     25  C   UNL     1       2.219   5.167  20.158  0.00  0.00    +0.000 A 
ATOM     26  C   UNL     1       1.553   6.233  20.795  0.00  0.00    +0.000 A 
BRANCH  25  27
ATOM     27  C   UNL     1       2.220   3.805  20.785  0.00  0.00    +0.000 C 
ATOM     28  F   UNL     1       1.165   3.012  20.457  0.00  0.00    +0.000 F 
ATOM     29  F   UNL     1       3.333   3.092  20.449  0.00  0.00    +0.000 F 
ATOM     30  F   UNL     1       2.228   3.864  22.147  0.00  0.00    +0.000 F 
ENDBRANCH  25  27
ENDBRANCH   6  20
BRANCH   1  32
ATOM     31  C   UNL     1      -1.288  14.995  21.314  0.00  0.00    +0.000 C 
ATOM     32  C   UNL     1      -0.473  14.317  22.419  0.00  0.00    +0.000 C 
ATOM     33  C   UNL     1      -1.201  14.414  23.760  0.00  0.00    +0.000 C 
ENDBRANCH   1  32
TORSDOF 5
ENDMDL
MODEL 5
REMARK VINA RESULT:      -7.7      4.046      9.535
REMARK  Name = 
REMARK  7 active torsions:
REMARK  status: ('A' for Active; 'I' for Inactive)
REMARK    1  A    between atoms: C_1  and  C_2
REMARK    2  A    between atoms: C_2  and  C_3
REMARK    3  A    between atoms: C_2  and  C_4
REMARK    4  A    between atoms: C_9  and  C_10
REMARK    5  A    between atoms: C_15  and  C_16
REMARK    6  A    between atoms: C_23  and  C_24
REMARK    7  A    between atoms: C_28  and  O_29
REMARK                            x       y       z     vdW  Elec       q    Type
REMARK                         _______ _______ _______ _____ _____    ______ ____
ROOT
ATOM      1  C   UNL     1      -0.645  13.843  22.558  0.00  0.00    +0.000 A 
ATOM      2  N   UNL     1      -1.080  12.685  23.181  0.00  0.00    +0.000 NA
ATOM      3  C   UNL     1      -0.565  11.714  22.470  0.00  0.00    +0.000 A 
ATOM      4  C   UNL     1      -0.669  10.295  22.689  0.00  0.00    +0.000 A 
ATOM      5  N   UNL     1      -0.100   9.427  21.892  0.00  0.00    +0.000 NA
ATOM      6  C   UNL     1       0.606   9.919  20.796  0.00  0.00    +0.000 A 
ATOM      7  C   UNL     1       0.687  11.236  20.515  0.00  0.00    +0.000 A 
ATOM      8  N   UNL     1       0.138  12.159  21.390  0.00  0.00    +0.000 N 
ATOM      9  C   UNL     1       0.159  13.549  21.447  0.00  0.00    +0.000 A 
ENDROOT
BRANCH   9  10
ATOM     10  C   UNL     1       0.922  14.423  20.536  0.00  0.00    +0.000 A 
ATOM     11  C   UNL     1       0.292  15.159  19.523  0.00  0.00    +0.000 A 
ATOM     12  F   UNL     1      -1.020  15.015  19.289  0.00  0.00    +0.000 F 
ATOM     13  C   UNL     1       0.988  16.060  18.712  0.00  0.00    +0.000 A 
ATOM     14  C   UNL     1       2.359  16.190  18.865  0.00  0.00    +0.000 A 
ATOM     15  C   UNL     1       3.032  15.446  19.820  0.00  0.00    +0.000 A 
ATOM     16  C   UNL     1       2.312  14.600  20.662  0.00  0.00    +0.000 A 
ATOM     17  F   UNL     1       3.000  13.960  21.620  0.00  0.00    +0.000 F 
BRANCH  14  18
ATOM     18  O   UNL     1       3.087  17.046  18.097  0.00  0.00    +0.000 OA
ATOM     19  H   UNL     1       3.237  17.873  18.586  0.00  0.00    +0.000 HD
ENDBRANCH  14  18
ENDBRANCH   9  10
BRANCH   6  20
ATOM     20  C   UNL     1       1.285   8.950  19.895  0.00  0.00    +0.000 A 
ATOM     21  C   UNL     1       1.561   9.293  18.565  0.00  0.00    +0.000 A 
ATOM     22  C   UNL     1       2.232   8.403  17.724  0.00  0.00    +0.000 A 
ATOM     23  C   UNL     1       2.631   7.157  18.202  0.00  0.00    +0.000 A 
ATOM     24  F   UNL     1       3.293   6.339  17.373  0.00  0.00    +0.000 F 
ATOM     25  C   UNL     1       2.353   6.766  19.504  0.00  0.00    +0.000 A 
ATOM     26  C   UNL     1       1.660   7.666  20.339  0.00  0.00    +0.000 A 
BRANCH  25  27
ATOM     27  C   UNL     1       2.786   5.434  20.038  0.00  0.00    +0.000 C 
ATOM     28  F   UNL     1       2.378   5.152  21.304  0.00  0.00    +0.000 F 
ATOM     29  F   UNL     1       2.329   4.405  19.267  0.00  0.00    +0.000 F 
ATOM     30  F   UNL     1       4.143   5.300  20.048  0.00  0.00    +0.000 F 
ENDBRANCH  25  27
ENDBRANCH   6  20
BRANCH   1  32
ATOM     31  C   UNL     1      -2.206  15.799  22.379  0.00  0.00    +0.000 C 
ATOM     32  C   UNL     1      -1.040  15.174  23.150  0.00  0.00    +0.000 C 
ATOM     33  C   UNL     1      -1.377  15.063  24.637  0.00  0.00    +0.000 C 
ENDBRANCH   1  32
TORSDOF 5
ENDMDL
MODEL 6
REMARK VINA RESULT:      -7.6      3.903      9.423
REMARK  Name = 
REMARK  7 active torsions:
REMARK  status: ('A' for Active; 'I' for Inactive)
REMARK    1  A    between atoms: C_1  and  C_2
REMARK    2  A    between atoms: C_2  and  C_3
REMARK    3  A    between atoms: C_2  and  C_4
REMARK    4  A    between atoms: C_9  and  C_10
REMARK    5  A    between atoms: C_15  and  C_16
REMARK    6  A    between atoms: C_23  and  C_24
REMARK    7  A    between atoms: C_28  and  O_29
REMARK                            x       y       z     vdW  Elec       q    Type
REMARK                         _______ _______ _______ _____ _____    ______ ____
ROOT
ATOM      1  C   UNL     1      -1.309  13.098  22.873  0.00  0.00    +0.000 A 
ATOM      2  N   UNL     1      -1.463  11.864  23.484  0.00  0.00    +0.000 NA
ATOM      3  C   UNL     1      -0.819  11.029  22.709  0.00  0.00    +0.000 A 
ATOM      4  C   UNL     1      -0.625   9.614  22.888  0.00  0.00    +0.000 A 
ATOM      5  N   UNL     1       0.046   8.892  22.027  0.00  0.00    +0.000 NA
ATOM      6  C   UNL     1       0.563   9.535  20.905  0.00  0.00    +0.000 A 
ATOM      7  C   UNL     1       0.364  10.848  20.663  0.00  0.00    +0.000 A 
ATOM      8  N   UNL     1      -0.293  11.626  21.602  0.00  0.00    +0.000 N 
ATOM      9  C   UNL     1      -0.543  12.991  21.703  0.00  0.00    +0.000 A 
ENDROOT
BRANCH   9  10
ATOM     10  C   UNL     1      -0.031  14.016  20.774  0.00  0.00    +0.000 A 
ATOM     11  C   UNL     1       1.043  14.850  21.117  0.00  0.00    +0.000 A 
ATOM     12  F   UNL     1       1.577  14.804  22.346  0.00  0.00    +0.000 F 
ATOM     13  C   UNL     1       1.597  15.762  20.215  0.00  0.00    +0.000 A 
ATOM     14  C   UNL     1       1.032  15.900  18.957  0.00  0.00    +0.000 A 
ATOM     15  C   UNL     1      -0.061  15.133  18.591  0.00  0.00    +0.000 A 
ATOM     16  C   UNL     1      -0.560  14.183  19.481  0.00  0.00    +0.000 A 
ATOM     17  F   UNL     1      -1.571  13.412  19.050  0.00  0.00    +0.000 F 
BRANCH  14  18
ATOM     18  O   UNL     1       1.526  16.779  18.042  0.00  0.00    +0.000 OA
ATOM     19  H   UNL     1       2.047  16.297  17.378  0.00  0.00    +0.000 HD
ENDBRANCH  14  18
ENDBRANCH   9  10
BRANCH   6  20
ATOM     20  C   UNL     1       1.355   8.738  19.931  0.00  0.00    +0.000 A 
ATOM     21  C   UNL     1       1.637   9.252  18.659  0.00  0.00    +0.000 A 
ATOM     22  C   UNL     1       2.413   8.526  17.752  0.00  0.00    +0.000 A 
ATOM     23  C   UNL     1       2.910   7.274  18.105  0.00  0.00    +0.000 A 
ATOM     24  F   UNL     1       3.669   6.617  17.219  0.00  0.00    +0.000 F 
ATOM     25  C   UNL     1       2.631   6.715  19.345  0.00  0.00    +0.000 A 
ATOM     26  C   UNL     1       1.834   7.450  20.245  0.00  0.00    +0.000 A 
BRANCH  25  27
ATOM     27  C   UNL     1       3.169   5.375  19.746  0.00  0.00    +0.000 C 
ATOM     28  F   UNL     1       2.836   4.343  18.925  0.00  0.00    +0.000 F 
ATOM     29  F   UNL     1       4.532   5.373  19.806  0.00  0.00    +0.000 F 
ATOM     30  F   UNL     1       2.754   5.004  20.991  0.00  0.00    +0.000 F 
ENDBRANCH  25  27
ENDBRANCH   6  20
BRANCH   1  32
ATOM     31  C   UNL     1      -3.219  13.956  24.255  0.00  0.00    +0.000 C 
ATOM     32  C   UNL     1      -1.916  14.312  23.533  0.00  0.00    +0.000 C 
ATOM     33  C   UNL     1      -0.939  14.993  24.491  0.00  0.00    +0.000 C 
ENDBRANCH   1  32
TORSDOF 5
ENDMDL
MODEL 7
REMARK VINA RESULT:      -7.5      3.593      9.145
REMARK  Name = 
REMARK  7 active torsions:
REMARK  status: ('A' for Active; 'I' for Inactive)
REMARK    1  A    between atoms: C_1  and  C_2
REMARK    2  A    between atoms: C_2  and  C_3
REMARK    3  A    between atoms: C_2  and  C_4
REMARK    4  A    between atoms: C_9  and  C_10
REMARK    5  A    between atoms: C_15  and  C_16
REMARK    6  A    between atoms: C_23  and  C_24
REMARK    7  A    between atoms: C_28  and  O_29
REMARK                            x       y       z     vdW  Elec       q    Type
REMARK                         _______ _______ _______ _____ _____    ______ ____
ROOT
ATOM      1  C   UNL     1      -0.980  12.545  22.773  0.00  0.00    +0.000 A 
ATOM      2  N   UNL     1      -1.147  11.289  23.335  0.00  0.00    +0.000 NA
ATOM      3  C   UNL     1      -0.495  10.481  22.537  0.00  0.00    +0.000 A 
ATOM      4  C   UNL     1      -0.310   9.059  22.665  0.00  0.00    +0.000 A 
ATOM      5  N   UNL     1       0.369   8.368  21.786  0.00  0.00    +0.000 NA
ATOM      6  C   UNL     1       0.905   9.051  20.696  0.00  0.00    +0.000 A 
ATOM      7  C   UNL     1       0.713  10.373  20.502  0.00  0.00    +0.000 A 
ATOM      8  N   UNL     1       0.047  11.118  21.461  0.00  0.00    +0.000 N 
ATOM      9  C   UNL     1      -0.199  12.478  21.611  0.00  0.00    +0.000 A 
ENDROOT
BRANCH   9  10
ATOM     10  C   UNL     1       0.329  13.537  20.728  0.00  0.00    +0.000 A 
ATOM     11  C   UNL     1       1.698  13.836  20.675  0.00  0.00    +0.000 A 
ATOM     12  F   UNL     1       2.562  13.230  21.503  0.00  0.00    +0.000 F 
ATOM     13  C   UNL     1       2.224  14.770  19.779  0.00  0.00    +0.000 A 
ATOM     14  C   UNL     1       1.363  15.477  18.955  0.00  0.00    +0.000 A 
ATOM     15  C   UNL     1      -0.002  15.251  19.006  0.00  0.00    +0.000 A 
ATOM     16  C   UNL     1      -0.501  14.269  19.861  0.00  0.00    +0.000 A 
ATOM     17  F   UNL     1      -1.822  14.036  19.818  0.00  0.00    +0.000 F 
BRANCH  14  18
ATOM     18  O   UNL     1       1.820  16.405  18.069  0.00  0.00    +0.000 OA
ATOM     19  H   UNL     1       2.425  17.016  18.522  0.00  0.00    +0.000 HD
ENDBRANCH  14  18
ENDBRANCH   9  10
BRANCH   6  20
ATOM     20  C   UNL     1       1.706   8.288  19.703  0.00  0.00    +0.000 A 
ATOM     21  C   UNL     1       1.969   8.831  18.439  0.00  0.00    +0.000 A 
ATOM     22  C   UNL     1       2.754   8.138  17.514  0.00  0.00    +0.000 A 
ATOM     23  C   UNL     1       3.279   6.890  17.841  0.00  0.00    +0.000 A 
ATOM     24  F   UNL     1       4.046   6.264  16.939  0.00  0.00    +0.000 F 
ATOM     25  C   UNL     1       3.019   6.303  19.072  0.00  0.00    +0.000 A 
ATOM     26  C   UNL     1       2.213   7.005  19.990  0.00  0.00    +0.000 A 
BRANCH  25  27
ATOM     27  C   UNL     1       3.587   4.967  19.445  0.00  0.00    +0.000 C 
ATOM     28  F   UNL     1       3.315   3.955  18.579  0.00  0.00    +0.000 F 
ATOM     29  F   UNL     1       4.946   5.005  19.552  0.00  0.00    +0.000 F 
ATOM     30  F   UNL     1       3.143   4.540  20.662  0.00  0.00    +0.000 F 
ENDBRANCH  25  27
ENDBRANCH   6  20
BRANCH   1  32
ATOM     31  C   UNL     1      -0.608  14.908  23.527  0.00  0.00    +0.000 C 
ATOM     32  C   UNL     1      -1.591  13.735  23.471  0.00  0.00    +0.000 C 
ATOM     33  C   UNL     1      -2.907  14.167  22.825  0.00  0.00    +0.000 C 
ENDBRANCH   1  32
TORSDOF 5
ENDMDL
MODEL 8
REMARK VINA RESULT:      -7.4      3.799      9.196
REMARK  Name = 
REMARK  7 active torsions:
REMARK  status: ('A' for Active; 'I' for Inactive)
REMARK    1  A    between atoms: C_1  and  C_2
REMARK    2  A    between atoms: C_2  and  C_3
REMARK    3  A    between atoms: C_2  and  C_4
REMARK    4  A    between atoms: C_9  and  C_10
REMARK    5  A    between atoms: C_15  and  C_16
REMARK    6  A    between atoms: C_23  and  C_24
REMARK    7  A    between atoms: C_28  and  O_29
REMARK                            x       y       z     vdW  Elec       q    Type
REMARK                         _______ _______ _______ _____ _____    ______ ____
ROOT
ATOM      1  C   UNL     1      -0.524  13.509  22.413  0.00  0.00    +0.000 A 
ATOM      2  N   UNL     1      -0.974  12.365  23.051  0.00  0.00    +0.000 NA
ATOM      3  C   UNL     1      -0.451  11.378  22.368  0.00  0.00    +0.000 A 
ATOM      4  C   UNL     1      -0.564   9.964  22.614  0.00  0.00    +0.000 A 
ATOM      5  N   UNL     1       0.015   9.078  21.844  0.00  0.00    +0.000 NA
ATOM      6  C   UNL     1       0.742   9.545  20.751  0.00  0.00    +0.000 A 
ATOM      7  C   UNL     1       0.832  10.857  20.445  0.00  0.00    +0.000 A 
ATOM      8  N   UNL     1       0.272  11.799  21.292  0.00  0.00    +0.000 N 
ATOM      9  C   UNL     1       0.297  13.189  21.322  0.00  0.00    +0.000 A 
ENDROOT
BRANCH   9  10
ATOM     10  C   UNL     1       1.079  14.042  20.406  0.00  0.00    +0.000 A 
ATOM     11  C   UNL     1       2.481  14.067  20.441  0.00  0.00    +0.000 A 
ATOM     12  F   UNL     1       3.153  13.385  21.380  0.00  0.00    +0.000 F 
ATOM     13  C   UNL     1       3.237  14.798  19.522  0.00  0.00    +0.000 A 
ATOM     14  C   UNL     1       2.588  15.579  18.579  0.00  0.00    +0.000 A 
ATOM     15  C   UNL     1       1.205  15.624  18.537  0.00  0.00    +0.000 A 
ATOM     16  C   UNL     1       0.467  14.838  19.421  0.00  0.00    +0.000 A 
ATOM     17  F   UNL     1      -0.868  14.859  19.290  0.00  0.00    +0.000 F 
BRANCH  14  18
ATOM     18  O   UNL     1       3.276  16.318  17.664  0.00  0.00    +0.000 OA
ATOM     19  H   UNL     1       3.183  15.913  16.785  0.00  0.00    +0.000 HD
ENDBRANCH  14  18
ENDBRANCH   9  10
BRANCH   6  20
ATOM     20  C   UNL     1       1.432   8.556  19.881  0.00  0.00    +0.000 A 
ATOM     21  C   UNL     1       1.800   8.899  18.574  0.00  0.00    +0.000 A 
ATOM     22  C   UNL     1       2.483   7.988  17.764  0.00  0.00    +0.000 A 
ATOM     23  C   UNL     1       2.801   6.722  18.251  0.00  0.00    +0.000 A 
ATOM     24  F   UNL     1       3.477   5.884  17.454  0.00  0.00    +0.000 F 
ATOM     25  C   UNL     1       2.429   6.333  19.531  0.00  0.00    +0.000 A 
ATOM     26  C   UNL     1       1.726   7.254  20.332  0.00  0.00    +0.000 A 
BRANCH  25  27
ATOM     27  C   UNL     1       2.775   4.979  20.075  0.00  0.00    +0.000 C 
ATOM     28  F   UNL     1       4.085   4.629  19.980  0.00  0.00    +0.000 F 
ATOM     29  F   UNL     1       2.459   4.868  21.397  0.00  0.00    +0.000 F 
ATOM     30  F   UNL     1       2.081   3.982  19.454  0.00  0.00    +0.000 F 
ENDBRANCH  25  27
ENDBRANCH   6  20
BRANCH   1  32
ATOM     31  C   UNL     1       0.267  15.814  23.006  0.00  0.00    +0.000 C 
ATOM     32  C   UNL     1      -0.924  14.852  22.971  0.00  0.00    +0.000 C 
ATOM     33  C   UNL     1      -2.091  15.470  22.201  0.00  0.00    +0.000 C 
ENDBRANCH   1  32
TORSDOF 5
ENDMDL
MODEL 9
REMARK VINA RESULT:      -7.3      3.344      8.598
REMARK  Name = 
REMARK  7 active torsions:
REMARK  status: ('A' for Active; 'I' for Inactive)
REMARK    1  A    between atoms: C_1  and  C_2
REMARK    2  A    between atoms: C_2  and  C_3
REMARK    3  A    between atoms: C_2  and  C_4
REMARK    4  A    between atoms: C_9  and  C_10
REMARK    5  A    between atoms: C_15  and  C_16
REMARK    6  A    between atoms: C_23  and  C_24
REMARK    7  A    between atoms: C_28  and  O_29
REMARK                            x       y       z     vdW  Elec       q    Type
REMARK                         _______ _______ _______ _____ _____    ______ ____
ROOT
ATOM      1  C   UNL     1      -0.290  12.822  22.073  0.00  0.00    +0.000 A 
ATOM      2  N   UNL     1      -0.871  11.818  22.830  0.00  0.00    +0.000 NA
ATOM      3  C   UNL     1      -0.356  10.710  22.360  0.00  0.00    +0.000 A 
ATOM      4  C   UNL     1      -0.584   9.360  22.806  0.00  0.00    +0.000 A 
ATOM      5  N   UNL     1       0.001   8.335  22.240  0.00  0.00    +0.000 NA
ATOM      6  C   UNL     1       0.852   8.586  21.166  0.00  0.00    +0.000 A 
ATOM      7  C   UNL     1       1.057   9.826  20.675  0.00  0.00    +0.000 A 
ATOM      8  N   UNL     1       0.487  10.918  21.309  0.00  0.00    +0.000 N 
ATOM      9  C   UNL     1       0.602  12.292  21.130  0.00  0.00    +0.000 A 
ENDROOT
BRANCH   9  10
ATOM     10  C   UNL     1       1.518  12.948  20.177  0.00  0.00    +0.000 A 
ATOM     11  C   UNL     1       2.579  13.755  20.613  0.00  0.00    +0.000 A 
ATOM     12  F   UNL     1       2.734  14.034  21.915  0.00  0.00    +0.000 F 
ATOM     13  C   UNL     1       3.508  14.308  19.729  0.00  0.00    +0.000 A 
ATOM     14  C   UNL     1       3.349  14.110  18.366  0.00  0.00    +0.000 A 
ATOM     15  C   UNL     1       2.287  13.361  17.886  0.00  0.00    +0.000 A 
ATOM     16  C   UNL     1       1.407  12.764  18.787  0.00  0.00    +0.000 A 
ATOM     17  F   UNL     1       0.441  11.986  18.274  0.00  0.00    +0.000 F 
BRANCH  14  18
ATOM     18  O   UNL     1       4.220  14.632  17.459  0.00  0.00    +0.000 OA
ATOM     19  H   UNL     1       5.118  14.313  17.651  0.00  0.00    +0.000 HD
ENDBRANCH  14  18
ENDBRANCH   9  10
BRANCH   6  20
ATOM     20  C   UNL     1       1.549   7.438  20.529  0.00  0.00    +0.000 A 
ATOM     21  C   UNL     1       1.370   6.139  21.022  0.00  0.00    +0.000 A 
ATOM     22  C   UNL     1       1.992   5.050  20.406  0.00  0.00    +0.000 A 
ATOM     23  C   UNL     1       2.803   5.249  19.292  0.00  0.00    +0.000 A 
ATOM     24  F   UNL     1       3.364   4.179  18.712  0.00  0.00    +0.000 F 
ATOM     25  C   UNL     1       3.030   6.522  18.788  0.00  0.00    +0.000 A 
ATOM     26  C   UNL     1       2.411   7.614  19.428  0.00  0.00    +0.000 A 
BRANCH  25  27
ATOM     27  C   UNL     1       3.891   6.752  17.582  0.00  0.00    +0.000 C 
ATOM     28  F   UNL     1       3.915   5.735  16.680  0.00  0.00    +0.000 F 
ATOM     29  F   UNL     1       3.498   7.855  16.881  0.00  0.00    +0.000 F 
ATOM     30  F   UNL     1       5.193   6.982  17.915  0.00  0.00    +0.000 F 
ENDBRANCH  25  27
ENDBRANCH   6  20
BRANCH   1  32
ATOM     31  C   UNL     1      -1.570  14.838  21.303  0.00  0.00    +0.000 C 
ATOM     32  C   UNL     1      -0.648  14.255  22.379  0.00  0.00    +0.000 C 
ATOM     33  C   UNL     1      -1.276  14.407  23.764  0.00  0.00    +0.000 C 
ENDBRANCH   1  32
TORSDOF 5
ENDMDL
