MODEL 1
REMARK VINA RESULT:      -8.1      0.000      0.000
REMARK  Name = 
REMARK  6 active torsions:
REMARK  status: ('A' for Active; 'I' for Inactive)
REMARK    1  A    between atoms: C_1  and  O_2
REMARK    2  A    between atoms: O_2  and  C_3
REMARK    3  A    between atoms: C_3  and  C_4
REMARK    4  A    between atoms: C_4  and  C_5
REMARK    5  A    between atoms: C_4  and  C_6
REMARK    6  A    between atoms: C_10  and  C_12
REMARK                            x       y       z     vdW  Elec       q    Type
REMARK                         _______ _______ _______ _____ _____    ______ ____
ROOT
ATOM      1  C   UNL     1       3.150   2.250  19.208  0.00  0.00    +0.000 C 
ATOM      2  C   UNL     1       4.439   2.745  19.910  0.00  0.00    +0.000 C 
ATOM      3  C   UNL     1       4.828   4.148  19.442  0.00  0.00    +0.000 C 
ATOM      4  N   UNL     1       5.026   4.147  17.993  0.00  0.00    +0.000 N 
ATOM      5  C   UNL     1       6.316   4.332  17.484  0.00  0.00    +0.000 C 
ATOM      6  O   UNL     1       7.293   4.430  18.231  0.00  0.00    +0.000 OA
ATOM      7  C   UNL     1       3.877   3.665  17.216  0.00  0.00    +0.000 C 
ATOM      8  C   UNL     1       3.455   2.272  17.694  0.00  0.00    +0.000 C 
ENDROOT
BRANCH   5   9
ATOM      9  C   UNL     1       6.507   4.368  16.042  0.00  0.00    +0.000 A 
ATOM     10  N   UNL     1       5.926   3.579  15.155  0.00  0.00    +0.000 NA
ATOM     11  C   UNL     1       6.438   3.941  13.939  0.00  0.00    +0.000 A 
ATOM     12  C   UNL     1       6.204   3.383  12.676  0.00  0.00    +0.000 A 
ATOM     13  C   UNL     1       6.859   3.941  11.571  0.00  0.00    +0.000 A 
ATOM     14  C   UNL     1       7.722   5.026  11.726  0.00  0.00    +0.000 A 
ATOM     15  C   UNL     1       7.972   5.591  12.983  0.00  0.00    +0.000 A 
ATOM     16  C   UNL     1       7.309   5.015  14.067  0.00  0.00    +0.000 A 
ATOM     17  N   UNL     1       7.309   5.290  15.410  0.00  0.00    +0.000 N 
ATOM     18  H   UNL     1       7.832   6.010  15.885  0.00  0.00    +0.000 HD
ENDBRANCH   5   9
BRANCH   1  19
ATOM     19  C   UNL     1       1.847   3.045  19.572  0.00  0.00    +0.000 C 
ATOM     20  C   UNL     1       0.597   2.416  18.935  0.00  0.00    +0.000 C 
BRANCH  19  21
ATOM     21  C   UNL     1       1.598   3.154  21.088  0.00  0.00    +0.000 C 
BRANCH  21  23
ATOM     22  C   UNL     1       1.681   5.496  20.813  0.00  0.00    +0.000 C 
ATOM     23  O   UNL     1       2.115   4.385  21.582  0.00  0.00    +0.000 OA
ENDBRANCH  21  23
ENDBRANCH  19  21
ENDBRANCH   1  19
TORSDOF 4
ENDMDL
MODEL 2
REMARK VINA RESULT:      -7.4      1.029      1.720
REMARK  Name = 
REMARK  6 active torsions:
REMARK  status: ('A' for Active; 'I' for Inactive)
REMARK    1  A    between atoms: C_1  and  O_2
REMARK    2  A    between atoms: O_2  and  C_3
REMARK    3  A    between atoms: C_3  and  C_4
REMARK    4  A    between atoms: C_4  and  C_5
REMARK    5  A    between atoms: C_4  and  C_6
REMARK    6  A    between atoms: C_10  and  C_12
REMARK                            x       y       z     vdW  Elec       q    Type
REMARK                         _______ _______ _______ _____ _____    ______ ____
ROOT
ATOM      1  C   UNL     1       3.006   3.349  19.179  0.00  0.00    +0.000 C 
ATOM      2  C   UNL     1       4.379   3.532  19.871  0.00  0.00    +0.000 C 
ATOM      3  C   UNL     1       5.094   4.788  19.373  0.00  0.00    +0.000 C 
ATOM      4  N   UNL     1       5.280   4.709  17.925  0.00  0.00    +0.000 N 
ATOM      5  C   UNL     1       6.574   4.565  17.413  0.00  0.00    +0.000 C 
ATOM      6  O   UNL     1       7.549   4.438  18.159  0.00  0.00    +0.000 OA
ATOM      7  C   UNL     1       4.045   4.503  17.157  0.00  0.00    +0.000 C 
ATOM      8  C   UNL     1       3.300   3.264  17.664  0.00  0.00    +0.000 C 
ENDROOT
BRANCH   5   9
ATOM      9  C   UNL     1       6.762   4.522  15.971  0.00  0.00    +0.000 A 
ATOM     10  N   UNL     1       7.519   5.334  15.255  0.00  0.00    +0.000 NA
ATOM     11  C   UNL     1       7.351   4.953  13.952  0.00  0.00    +0.000 A 
ATOM     12  C   UNL     1       7.879   5.521  12.786  0.00  0.00    +0.000 A 
ATOM     13  C   UNL     1       7.552   4.937  11.556  0.00  0.00    +0.000 A 
ATOM     14  C   UNL     1       6.722   3.818  11.494  0.00  0.00    +0.000 A 
ATOM     15  C   UNL     1       6.180   3.242  12.651  0.00  0.00    +0.000 A 
ATOM     16  C   UNL     1       6.519   3.844  13.863  0.00  0.00    +0.000 A 
ATOM     17  N   UNL     1       6.185   3.569  15.163  0.00  0.00    +0.000 N 
ATOM     18  H   UNL     1       5.586   2.828  15.496  0.00  0.00    +0.000 HD
ENDBRANCH   5   9
BRANCH   1  19
ATOM     19  C   UNL     1       1.935   4.443  19.523  0.00  0.00    +0.000 C 
ATOM     20  C   UNL     1       0.697   3.838  20.205  0.00  0.00    +0.000 C 
BRANCH  19  21
ATOM     21  C   UNL     1       2.474   5.563  20.435  0.00  0.00    +0.000 C 
BRANCH  21  23
ATOM     22  C   UNL     1       1.508   7.681  20.820  0.00  0.00    +0.000 C 
ATOM     23  O   UNL     1       2.161   6.837  19.883  0.00  0.00    +0.000 OA
ENDBRANCH  21  23
ENDBRANCH  19  21
ENDBRANCH   1  19
TORSDOF 4
ENDMDL
MODEL 3
REMARK VINA RESULT:      -7.1      2.245      3.123
REMARK  Name = 
REMARK  6 active torsions:
REMARK  status: ('A' for Active; 'I' for Inactive)
REMARK    1  A    between atoms: C_1  and  O_2
REMARK    2  A    between atoms: O_2  and  C_3
REMARK    3  A    between atoms: C_3  and  C_4
REMARK    4  A    between atoms: C_4  and  C_5
REMARK    5  A    between atoms: C_4  and  C_6
REMARK    6  A    between atoms: C_10  and  C_12
REMARK                            x       y       z     vdW  Elec       q    Type
REMARK                         _______ _______ _______ _____ _____    ______ ____
ROOT
ATOM      1  C   UNL     1       2.490   6.154  19.000  0.00  0.00    +0.000 C 
ATOM      2  C   UNL     1       3.562   5.372  19.800  0.00  0.00    +0.000 C 
ATOM      3  C   UNL     1       4.972   5.864  19.474  0.00  0.00    +0.000 C 
ATOM      4  N   UNL     1       5.226   5.720  18.041  0.00  0.00    +0.000 N 
ATOM      5  C   UNL     1       6.164   4.776  17.609  0.00  0.00    +0.000 C 
ATOM      6  O   UNL     1       6.729   4.022  18.405  0.00  0.00    +0.000 OA
ATOM      7  C   UNL     1       4.252   6.395  17.174  0.00  0.00    +0.000 C 
ATOM      8  C   UNL     1       2.829   5.936  17.508  0.00  0.00    +0.000 C 
ENDROOT
BRANCH   5   9
ATOM      9  C   UNL     1       6.442   4.658  16.186  0.00  0.00    +0.000 A 
ATOM     10  N   UNL     1       7.334   5.353  15.502  0.00  0.00    +0.000 NA
ATOM     11  C   UNL     1       7.211   4.944  14.202  0.00  0.00    +0.000 A 
ATOM     12  C   UNL     1       7.878   5.405  13.060  0.00  0.00    +0.000 A 
ATOM     13  C   UNL     1       7.571   4.816  11.828  0.00  0.00    +0.000 A 
ATOM     14  C   UNL     1       6.625   3.794  11.741  0.00  0.00    +0.000 A 
ATOM     15  C   UNL     1       5.944   3.326  12.872  0.00  0.00    +0.000 A 
ATOM     16  C   UNL     1       6.267   3.932  14.087  0.00  0.00    +0.000 A 
ATOM     17  N   UNL     1       5.817   3.745  15.368  0.00  0.00    +0.000 N 
ATOM     18  H   UNL     1       5.116   3.088  15.679  0.00  0.00    +0.000 HD
ENDBRANCH   5   9
BRANCH   1  19
ATOM     19  C   UNL     1       2.357   7.673  19.372  0.00  0.00    +0.000 C 
ATOM     20  C   UNL     1       1.722   8.487  18.232  0.00  0.00    +0.000 C 
BRANCH  19  21
ATOM     21  C   UNL     1       1.528   7.921  20.646  0.00  0.00    +0.000 C 
BRANCH  21  23
ATOM     22  C   UNL     1       0.640   9.809  21.749  0.00  0.00    +0.000 C 
ATOM     23  O   UNL     1       0.774   9.122  20.514  0.00  0.00    +0.000 OA
ENDBRANCH  21  23
ENDBRANCH  19  21
ENDBRANCH   1  19
TORSDOF 4
ENDMDL
MODEL 4
REMARK VINA RESULT:      -7.1      1.028      1.809
REMARK  Name = 
REMARK  6 active torsions:
REMARK  status: ('A' for Active; 'I' for Inactive)
REMARK    1  A    between atoms: C_1  and  O_2
REMARK    2  A    between atoms: O_2  and  C_3
REMARK    3  A    between atoms: C_3  and  C_4
REMARK    4  A    between atoms: C_4  and  C_5
REMARK    5  A    between atoms: C_4  and  C_6
REMARK    6  A    between atoms: C_10  and  C_12
REMARK                            x       y       z     vdW  Elec       q    Type
REMARK                         _______ _______ _______ _____ _____    ______ ____
ROOT
ATOM      1  C   UNL     1       3.157   3.604  19.110  0.00  0.00    +0.000 C 
ATOM      2  C   UNL     1       4.559   3.671  19.765  0.00  0.00    +0.000 C 
ATOM      3  C   UNL     1       5.354   4.877  19.265  0.00  0.00    +0.000 C 
ATOM      4  N   UNL     1       5.493   4.808  17.811  0.00  0.00    +0.000 N 
ATOM      5  C   UNL     1       6.758   4.574  17.261  0.00  0.00    +0.000 C 
ATOM      6  O   UNL     1       7.740   4.363  17.977  0.00  0.00    +0.000 OA
ATOM      7  C   UNL     1       4.225   4.708  17.076  0.00  0.00    +0.000 C 
ATOM      8  C   UNL     1       3.403   3.521  17.586  0.00  0.00    +0.000 C 
ENDROOT
BRANCH   5   9
ATOM      9  C   UNL     1       6.903   4.541  15.813  0.00  0.00    +0.000 A 
ATOM     10  N   UNL     1       7.644   5.353  15.081  0.00  0.00    +0.000 NA
ATOM     11  C   UNL     1       7.435   4.982  13.781  0.00  0.00    +0.000 A 
ATOM     12  C   UNL     1       7.931   5.556  12.603  0.00  0.00    +0.000 A 
ATOM     13  C   UNL     1       7.565   4.983  11.379  0.00  0.00    +0.000 A 
ATOM     14  C   UNL     1       6.726   3.869  11.335  0.00  0.00    +0.000 A 
ATOM     15  C   UNL     1       6.215   3.288  12.503  0.00  0.00    +0.000 A 
ATOM     16  C   UNL     1       6.594   3.879  13.709  0.00  0.00    +0.000 A 
ATOM     17  N   UNL     1       6.297   3.597  15.017  0.00  0.00    +0.000 N 
ATOM     18  H   UNL     1       5.704   2.856  15.361  0.00  0.00    +0.000 HD
ENDBRANCH   5   9
BRANCH   1  19
ATOM     19  C   UNL     1       2.182   4.770  19.500  0.00  0.00    +0.000 C 
ATOM     20  C   UNL     1       1.501   5.383  18.265  0.00  0.00    +0.000 C 
BRANCH  19  21
ATOM     21  C   UNL     1       1.077   4.342  20.484  0.00  0.00    +0.000 C 
BRANCH  21  23
ATOM     22  C   UNL     1       1.501   2.508  21.907  0.00  0.00    +0.000 C 
ATOM     23  O   UNL     1       1.066   2.925  20.622  0.00  0.00    +0.000 OA
ENDBRANCH  21  23
ENDBRANCH  19  21
ENDBRANCH   1  19
TORSDOF 4
ENDMDL
MODEL 5
REMARK VINA RESULT:      -7.1      2.189      2.825
REMARK  Name = 
REMARK  6 active torsions:
REMARK  status: ('A' for Active; 'I' for Inactive)
REMARK    1  A    between atoms: C_1  and  O_2
REMARK    2  A    between atoms: O_2  and  C_3
REMARK    3  A    between atoms: C_3  and  C_4
REMARK    4  A    between atoms: C_4  and  C_5
REMARK    5  A    between atoms: C_4  and  C_6
REMARK    6  A    between atoms: C_10  and  C_12
REMARK                            x       y       z     vdW  Elec       q    Type
REMARK                         _______ _______ _______ _____ _____    ______ ____
ROOT
ATOM      1  C   UNL     1       2.405   6.106  19.116  0.00  0.00    +0.000 C 
ATOM      2  C   UNL     1       3.488   5.302  19.878  0.00  0.00    +0.000 C 
ATOM      3  C   UNL     1       4.895   5.779  19.519  0.00  0.00    +0.000 C 
ATOM      4  N   UNL     1       5.108   5.650  18.078  0.00  0.00    +0.000 N 
ATOM      5  C   UNL     1       6.022   4.699  17.610  0.00  0.00    +0.000 C 
ATOM      6  O   UNL     1       6.598   3.928  18.382  0.00  0.00    +0.000 OA
ATOM      7  C   UNL     1       4.119   6.346  17.245  0.00  0.00    +0.000 C 
ATOM      8  C   UNL     1       2.700   5.901  17.614  0.00  0.00    +0.000 C 
ENDROOT
BRANCH   5   9
ATOM      9  C   UNL     1       6.260   4.594  16.178  0.00  0.00    +0.000 A 
ATOM     10  N   UNL     1       5.633   3.792  15.336  0.00  0.00    +0.000 NA
ATOM     11  C   UNL     1       6.216   4.001  14.116  0.00  0.00    +0.000 A 
ATOM     12  C   UNL     1       5.969   3.362  12.894  0.00  0.00    +0.000 A 
ATOM     13  C   UNL     1       6.709   3.761  11.774  0.00  0.00    +0.000 A 
ATOM     14  C   UNL     1       7.667   4.770  11.874  0.00  0.00    +0.000 A 
ATOM     15  C   UNL     1       7.932   5.413  13.090  0.00  0.00    +0.000 A 
ATOM     16  C   UNL     1       7.182   4.995  14.191  0.00  0.00    +0.000 A 
ATOM     17  N   UNL     1       7.167   5.381  15.506  0.00  0.00    +0.000 N 
ATOM     18  H   UNL     1       7.742   6.087  15.942  0.00  0.00    +0.000 HD
ENDBRANCH   5   9
BRANCH   1  19
ATOM     19  C   UNL     1       2.301   7.622  19.508  0.00  0.00    +0.000 C 
ATOM     20  C   UNL     1       1.687   8.464  18.378  0.00  0.00    +0.000 C 
BRANCH  19  21
ATOM     21  C   UNL     1       1.473   7.869  20.784  0.00  0.00    +0.000 C 
BRANCH  21  23
ATOM     22  C   UNL     1      -0.158   9.280  21.742  0.00  0.00    +0.000 C 
ATOM     23  O   UNL     1       0.759   9.096  20.674  0.00  0.00    +0.000 OA
ENDBRANCH  21  23
ENDBRANCH  19  21
ENDBRANCH   1  19
TORSDOF 4
ENDMDL
MODEL 6
REMARK VINA RESULT:      -6.8      0.886      1.124
REMARK  Name = 
REMARK  6 active torsions:
REMARK  status: ('A' for Active; 'I' for Inactive)
REMARK    1  A    between atoms: C_1  and  O_2
REMARK    2  A    between atoms: O_2  and  C_3
REMARK    3  A    between atoms: C_3  and  C_4
REMARK    4  A    between atoms: C_4  and  C_5
REMARK    5  A    between atoms: C_4  and  C_6
REMARK    6  A    between atoms: C_10  and  C_12
REMARK                            x       y       z     vdW  Elec       q    Type
REMARK                         _______ _______ _______ _____ _____    ______ ____
ROOT
ATOM      1  C   UNL     1       3.380   3.319  19.401  0.00  0.00    +0.000 C 
ATOM      2  C   UNL     1       4.811   3.511  19.960  0.00  0.00    +0.000 C 
ATOM      3  C   UNL     1       5.470   4.769  19.392  0.00  0.00    +0.000 C 
ATOM      4  N   UNL     1       5.517   4.686  17.933  0.00  0.00    +0.000 N 
ATOM      5  C   UNL     1       6.759   4.546  17.302  0.00  0.00    +0.000 C 
ATOM      6  O   UNL     1       7.800   4.427  17.953  0.00  0.00    +0.000 OA
ATOM      7  C   UNL     1       4.217   4.470  17.287  0.00  0.00    +0.000 C 
ATOM      8  C   UNL     1       3.530   3.230  17.866  0.00  0.00    +0.000 C 
ENDROOT
BRANCH   5   9
ATOM      9  C   UNL     1       6.809   4.499  15.849  0.00  0.00    +0.000 A 
ATOM     10  N   UNL     1       6.149   3.662  15.068  0.00  0.00    +0.000 NA
ATOM     11  C   UNL     1       6.540   3.953  13.790  0.00  0.00    +0.000 A 
ATOM     12  C   UNL     1       6.188   3.324  12.589  0.00  0.00    +0.000 A 
ATOM     13  C   UNL     1       6.730   3.818  11.396  0.00  0.00    +0.000 A 
ATOM     14  C   UNL     1       7.600   4.909  11.405  0.00  0.00    +0.000 A 
ATOM     15  C   UNL     1       7.968   5.544  12.598  0.00  0.00    +0.000 A 
ATOM     16  C   UNL     1       7.414   5.031  13.772  0.00  0.00    +0.000 A 
ATOM     17  N   UNL     1       7.543   5.382  15.091  0.00  0.00    +0.000 N 
ATOM     18  H   UNL     1       8.106   6.128  15.472  0.00  0.00    +0.000 HD
ENDBRANCH   5   9
BRANCH   1  19
ATOM     19  C   UNL     1       2.340   4.410  19.842  0.00  0.00    +0.000 C 
ATOM     20  C   UNL     1       0.999   4.252  19.107  0.00  0.00    +0.000 C 
BRANCH  19  21
ATOM     21  C   UNL     1       2.052   4.405  21.355  0.00  0.00    +0.000 C 
BRANCH  21  23
ATOM     22  C   UNL     1       1.264   2.310  22.104  0.00  0.00    +0.000 C 
ATOM     23  O   UNL     1       2.398   3.143  21.917  0.00  0.00    +0.000 OA
ENDBRANCH  21  23
ENDBRANCH  19  21
ENDBRANCH   1  19
TORSDOF 4
ENDMDL
MODEL 7
REMARK VINA RESULT:      -6.8      4.606      8.692
REMARK  Name = 
REMARK  6 active torsions:
REMARK  status: ('A' for Active; 'I' for Inactive)
REMARK    1  A    between atoms: C_1  and  O_2
REMARK    2  A    between atoms: O_2  and  C_3
REMARK    3  A    between atoms: C_3  and  C_4
REMARK    4  A    between atoms: C_4  and  C_5
REMARK    5  A    between atoms: C_4  and  C_6
REMARK    6  A    between atoms: C_10  and  C_12
REMARK                            x       y       z     vdW  Elec       q    Type
REMARK                         _______ _______ _______ _____ _____    ______ ____
ROOT
ATOM      1  C   UNL     1       2.051   4.321  19.308  0.00  0.00    +0.000 C 
ATOM      2  C   UNL     1       2.401   5.179  18.067  0.00  0.00    +0.000 C 
ATOM      3  C   UNL     1       3.131   6.463  18.462  0.00  0.00    +0.000 C 
ATOM      4  N   UNL     1       2.300   7.241  19.381  0.00  0.00    +0.000 N 
ATOM      5  C   UNL     1       1.765   8.458  18.945  0.00  0.00    +0.000 C 
ATOM      6  O   UNL     1       1.926   8.853  17.788  0.00  0.00    +0.000 OA
ATOM      7  C   UNL     1       1.875   6.519  20.587  0.00  0.00    +0.000 C 
ATOM      8  C   UNL     1       1.168   5.214  20.208  0.00  0.00    +0.000 C 
ENDROOT
BRANCH   5   9
ATOM      9  C   UNL     1       0.968   9.249  19.871  0.00  0.00    +0.000 A 
ATOM     10  N   UNL     1       0.889   9.080  21.179  0.00  0.00    +0.000 NA
ATOM     11  C   UNL     1      -0.008  10.013  21.623  0.00  0.00    +0.000 A 
ATOM     12  C   UNL     1      -0.500  10.225  22.918  0.00  0.00    +0.000 A 
ATOM     13  C   UNL     1      -1.424  11.258  23.117  0.00  0.00    +0.000 A 
ATOM     14  C   UNL     1      -1.843  12.056  22.052  0.00  0.00    +0.000 A 
ATOM     15  C   UNL     1      -1.367  11.852  20.751  0.00  0.00    +0.000 A 
ATOM     16  C   UNL     1      -0.449  10.815  20.579  0.00  0.00    +0.000 A 
ATOM     17  N   UNL     1       0.213  10.331  19.481  0.00  0.00    +0.000 N 
ATOM     18  H   UNL     1       0.143  10.665  18.531  0.00  0.00    +0.000 HD
ENDBRANCH   5   9
BRANCH   1  19
ATOM     19  C   UNL     1       3.283   3.724  20.075  0.00  0.00    +0.000 C 
ATOM     20  C   UNL     1       2.864   2.623  21.063  0.00  0.00    +0.000 C 
BRANCH  19  21
ATOM     21  C   UNL     1       4.359   3.136  19.142  0.00  0.00    +0.000 C 
BRANCH  21  23
ATOM     22  C   UNL     1       6.080   4.376  18.109  0.00  0.00    +0.000 C 
ATOM     23  O   UNL     1       5.593   3.823  19.322  0.00  0.00    +0.000 OA
ENDBRANCH  21  23
ENDBRANCH  19  21
ENDBRANCH   1  19
TORSDOF 4
ENDMDL
MODEL 8
REMARK VINA RESULT:      -6.6      1.572      2.380
REMARK  Name = 
REMARK  6 active torsions:
REMARK  status: ('A' for Active; 'I' for Inactive)
REMARK    1  A    between atoms: C_1  and  O_2
REMARK    2  A    between atoms: O_2  and  C_3
REMARK    3  A    between atoms: C_3  and  C_4
REMARK    4  A    between atoms: C_4  and  C_5
REMARK    5  A    between atoms: C_4  and  C_6
REMARK    6  A    between atoms: C_10  and  C_12
REMARK                            x       y       z     vdW  Elec       q    Type
REMARK                         _______ _______ _______ _____ _____    ______ ____
ROOT
ATOM      1  C   UNL     1       2.830   4.233  19.108  0.00  0.00    +0.000 C 
ATOM      2  C   UNL     1       4.205   4.104  19.810  0.00  0.00    +0.000 C 
ATOM      3  C   UNL     1       5.183   5.174  19.324  0.00  0.00    +0.000 C 
ATOM      4  N   UNL     1       5.356   5.064  17.876  0.00  0.00    +0.000 N 
ATOM      5  C   UNL     1       6.591   4.640  17.371  0.00  0.00    +0.000 C 
ATOM      6  O   UNL     1       7.508   4.298  18.121  0.00  0.00    +0.000 OA
ATOM      7  C   UNL     1       4.112   5.139  17.100  0.00  0.00    +0.000 C 
ATOM      8  C   UNL     1       3.108   4.092  17.595  0.00  0.00    +0.000 C 
ENDROOT
BRANCH   5   9
ATOM      9  C   UNL     1       6.774   4.564  15.929  0.00  0.00    +0.000 A 
ATOM     10  N   UNL     1       7.556   5.338  15.197  0.00  0.00    +0.000 NA
ATOM     11  C   UNL     1       7.373   4.937  13.902  0.00  0.00    +0.000 A 
ATOM     12  C   UNL     1       7.917   5.466  12.724  0.00  0.00    +0.000 A 
ATOM     13  C   UNL     1       7.570   4.870  11.506  0.00  0.00    +0.000 A 
ATOM     14  C   UNL     1       6.704   3.777  11.467  0.00  0.00    +0.000 A 
ATOM     15  C   UNL     1       6.146   3.241  12.635  0.00  0.00    +0.000 A 
ATOM     16  C   UNL     1       6.506   3.855  13.835  0.00  0.00    +0.000 A 
ATOM     17  N   UNL     1       6.166   3.615  15.141  0.00  0.00    +0.000 N 
ATOM     18  H   UNL     1       5.544   2.899  15.488  0.00  0.00    +0.000 HD
ENDBRANCH   5   9
BRANCH   1  19
ATOM     19  C   UNL     1       2.024   5.535  19.454  0.00  0.00    +0.000 C 
ATOM     20  C   UNL     1       1.489   5.511  20.895  0.00  0.00    +0.000 C 
BRANCH  19  21
ATOM     21  C   UNL     1       2.844   6.827  19.278  0.00  0.00    +0.000 C 
BRANCH  21  23
ATOM     22  C   UNL     1       2.254   8.658  17.911  0.00  0.00    +0.000 C 
ATOM     23  O   UNL     1       1.973   7.940  19.103  0.00  0.00    +0.000 OA
ENDBRANCH  21  23
ENDBRANCH  19  21
ENDBRANCH   1  19
TORSDOF 4
ENDMDL
MODEL 9
REMARK VINA RESULT:      -6.5      4.347      8.532
REMARK  Name = 
REMARK  6 active torsions:
REMARK  status: ('A' for Active; 'I' for Inactive)
REMARK    1  A    between atoms: C_1  and  O_2
REMARK    2  A    between atoms: O_2  and  C_3
REMARK    3  A    between atoms: C_3  and  C_4
REMARK    4  A    between atoms: C_4  and  C_5
REMARK    5  A    between atoms: C_4  and  C_6
REMARK    6  A    between atoms: C_10  and  C_12
REMARK                            x       y       z     vdW  Elec       q    Type
REMARK                         _______ _______ _______ _____ _____    ______ ____
ROOT
ATOM      1  C   UNL     1       2.871   4.371  18.792  0.00  0.00    +0.000 C 
ATOM      2  C   UNL     1       3.031   5.288  17.554  0.00  0.00    +0.000 C 
ATOM      3  C   UNL     1       3.611   6.649  17.936  0.00  0.00    +0.000 C 
ATOM      4  N   UNL     1       2.744   7.297  18.920  0.00  0.00    +0.000 N 
ATOM      5  C   UNL     1       2.030   8.441  18.545  0.00  0.00    +0.000 C 
ATOM      6  O   UNL     1       2.068   8.872  17.390  0.00  0.00    +0.000 OA
ATOM      7  C   UNL     1       2.491   6.507  20.131  0.00  0.00    +0.000 C 
ATOM      8  C   UNL     1       1.936   5.127  19.763  0.00  0.00    +0.000 C 
ENDROOT
BRANCH   5   9
ATOM      9  C   UNL     1       1.195   9.106  19.534  0.00  0.00    +0.000 A 
ATOM     10  N   UNL     1       0.487  10.205  19.350  0.00  0.00    +0.000 NA
ATOM     11  C   UNL     1      -0.093  10.485  20.557  0.00  0.00    +0.000 A 
ATOM     12  C   UNL     1      -0.894  11.574  20.926  0.00  0.00    +0.000 A 
ATOM     13  C   UNL     1      -1.371  11.632  22.241  0.00  0.00    +0.000 A 
ATOM     14  C   UNL     1      -1.056  10.630  23.160  0.00  0.00    +0.000 A 
ATOM     15  C   UNL     1      -0.250   9.540  22.809  0.00  0.00    +0.000 A 
ATOM     16  C   UNL     1       0.214   9.507  21.494  0.00  0.00    +0.000 A 
ATOM     17  N   UNL     1       1.006   8.623  20.809  0.00  0.00    +0.000 N 
ATOM     18  H   UNL     1       1.428   7.778  21.166  0.00  0.00    +0.000 HD
ENDBRANCH   5   9
BRANCH   1  19
ATOM     19  C   UNL     1       4.215   3.929  19.471  0.00  0.00    +0.000 C 
ATOM     20  C   UNL     1       4.199   2.439  19.854  0.00  0.00    +0.000 C 
BRANCH  19  21
ATOM     21  C   UNL     1       5.456   4.176  18.593  0.00  0.00    +0.000 C 
BRANCH  21  23
ATOM     22  C   UNL     1       7.461   5.419  18.548  0.00  0.00    +0.000 C 
ATOM     23  O   UNL     1       6.489   4.782  19.363  0.00  0.00    +0.000 OA
ENDBRANCH  21  23
ENDBRANCH  19  21
ENDBRANCH   1  19
TORSDOF 4
ENDMDL
