MODEL 1
REMARK VINA RESULT:      -9.0      0.000      0.000
REMARK  Name = 
REMARK  4 active torsions:
REMARK  status: ('A' for Active; 'I' for Inactive)
REMARK    1  A    between atoms: C_15  and  N_16
REMARK    2  A    between atoms: N_16  and  C_17
REMARK    3  A    between atoms: C_17  and  C_18
REMARK    4  A    between atoms: C_18  and  C_19
REMARK                            x       y       z     vdW  Elec       q    Type
REMARK                         _______ _______ _______ _____ _____    ______ ____
ROOT
ATOM      1  O   UNL     1       4.236   1.906  20.251  0.00  0.00    +0.000 OA
ATOM      2  C   UNL     1       4.304   2.941  19.623  0.00  0.00    +0.000 C 
ATOM      3  N   UNL     1       5.192   3.211  18.609  0.00  0.00    +0.000 N 
ATOM      4  C   UNL     1       5.042   4.542  18.038  0.00  0.00    +0.000 C 
ATOM      5  C   UNL     1       4.691   4.419  16.543  0.00  0.00    +0.000 C 
ATOM      6  C   UNL     1       5.855   3.858  15.719  0.00  0.00    +0.000 C 
ATOM      7  C   UNL     1       7.129   4.672  15.922  0.00  0.00    +0.000 C 
ATOM      8  C   UNL     1       7.503   4.767  17.398  0.00  0.00    +0.000 C 
ATOM      9  C   UNL     1       6.352   5.333  18.236  0.00  0.00    +0.000 C 
ATOM     10  N   UNL     1       3.934   5.097  18.836  0.00  0.00    +0.000 N 
ATOM     11  C   UNL     1       3.497   4.173  19.764  0.00  0.00    +0.000 A 
ATOM     12  C   UNL     1       2.503   4.439  20.617  0.00  0.00    +0.000 A 
ATOM     13 CL   UNL     1       1.912   3.323  21.785  0.00  0.00    +0.000 Cl
ATOM     14  C   UNL     1       1.902   5.755  20.588  0.00  0.00    +0.000 A 
ATOM     15  C   UNL     1       2.289   6.711  19.721  0.00  0.00    +0.000 A 
ATOM     16  C   UNL     1       3.388   6.358  18.702  0.00  0.00    +0.000 A 
ATOM     17  O   UNL     1       3.750   7.171  17.856  0.00  0.00    +0.000 OA
ATOM     18  H   UNL     1       5.870   2.521  18.316  0.00  0.00    +0.000 HD
ENDROOT
BRANCH  15  19
ATOM     19  N   UNL     1       1.800   8.014  19.703  0.00  0.00    +0.000 N 
ATOM     20  H   UNL     1       1.259   8.198  18.859  0.00  0.00    +0.000 HD
BRANCH  19  21
ATOM     21  C   UNL     1       1.326   8.739  20.881  0.00  0.00    +0.000 C 
BRANCH  21  22
ATOM     22  C   UNL     1      -0.147   9.135  20.699  0.00  0.00    +0.000 C 
BRANCH  22  23
ATOM     23  C   UNL     1      -0.339  10.381  19.872  0.00  0.00    +0.000 A 
ATOM     24  C   UNL     1       0.499  11.485  20.048  0.00  0.00    +0.000 A 
ATOM     25  C   UNL     1       0.314  12.598  19.242  0.00  0.00    +0.000 A 
ATOM     26  N   UNL     1      -0.646  12.690  18.297  0.00  0.00    +0.000 NA
ATOM     27  C   UNL     1      -1.452  11.617  18.148  0.00  0.00    +0.000 A 
ATOM     28  C   UNL     1      -1.341  10.457  18.900  0.00  0.00    +0.000 A 
ENDBRANCH  22  23
ENDBRANCH  21  22
ENDBRANCH  19  21
ENDBRANCH  15  19
TORSDOF 4
ENDMDL
MODEL 2
REMARK VINA RESULT:      -9.0      1.356      1.629
REMARK  Name = 
REMARK  4 active torsions:
REMARK  status: ('A' for Active; 'I' for Inactive)
REMARK    1  A    between atoms: C_15  and  N_16
REMARK    2  A    between atoms: N_16  and  C_17
REMARK    3  A    between atoms: C_17  and  C_18
REMARK    4  A    between atoms: C_18  and  C_19
REMARK                            x       y       z     vdW  Elec       q    Type
REMARK                         _______ _______ _______ _____ _____    ______ ____
ROOT
ATOM      1  O   UNL     1       4.185   1.698  20.101  0.00  0.00    +0.000 OA
ATOM      2  C   UNL     1       4.241   2.785  19.568  0.00  0.00    +0.000 C 
ATOM      3  N   UNL     1       5.133   3.158  18.590  0.00  0.00    +0.000 N 
ATOM      4  C   UNL     1       4.966   4.533  18.140  0.00  0.00    +0.000 C 
ATOM      5  C   UNL     1       4.630   4.538  16.635  0.00  0.00    +0.000 C 
ATOM      6  C   UNL     1       5.810   4.072  15.776  0.00  0.00    +0.000 C 
ATOM      7  C   UNL     1       7.069   4.884  16.064  0.00  0.00    +0.000 C 
ATOM      8  C   UNL     1       7.429   4.852  17.546  0.00  0.00    +0.000 C 
ATOM      9  C   UNL     1       6.261   5.323  18.420  0.00  0.00    +0.000 C 
ATOM     10  N   UNL     1       3.842   4.997  18.972  0.00  0.00    +0.000 N 
ATOM     11  C   UNL     1       3.413   3.987  19.810  0.00  0.00    +0.000 A 
ATOM     12  C   UNL     1       2.407   4.160  20.673  0.00  0.00    +0.000 A 
ATOM     13 CL   UNL     1       1.824   2.936  21.731  0.00  0.00    +0.000 Cl
ATOM     14  C   UNL     1       1.784   5.464  20.755  0.00  0.00    +0.000 A 
ATOM     15  C   UNL     1       2.163   6.500  19.980  0.00  0.00    +0.000 A 
ATOM     16  C   UNL     1       3.277   6.256  18.946  0.00  0.00    +0.000 A 
ATOM     17  O   UNL     1       3.632   7.147  18.178  0.00  0.00    +0.000 OA
ATOM     18  H   UNL     1       5.824   2.508  18.244  0.00  0.00    +0.000 HD
ENDROOT
BRANCH  15  19
ATOM     19  N   UNL     1       1.653   7.791  20.074  0.00  0.00    +0.000 N 
ATOM     20  H   UNL     1       0.906   7.947  19.398  0.00  0.00    +0.000 HD
BRANCH  19  21
ATOM     21  C   UNL     1       1.483   8.529  21.325  0.00  0.00    +0.000 C 
BRANCH  21  22
ATOM     22  C   UNL     1       0.002   8.875  21.536  0.00  0.00    +0.000 C 
BRANCH  22  23
ATOM     23  C   UNL     1      -0.240  10.333  21.839  0.00  0.00    +0.000 A 
ATOM     24  C   UNL     1       0.374  11.328  21.073  0.00  0.00    +0.000 A 
ATOM     25  C   UNL     1       0.096  12.655  21.358  0.00  0.00    +0.000 A 
ATOM     26  N   UNL     1      -0.728  13.054  22.350  0.00  0.00    +0.000 NA
ATOM     27  C   UNL     1      -1.303  12.080  23.087  0.00  0.00    +0.000 A 
ATOM     28  C   UNL     1      -1.095  10.725  22.873  0.00  0.00    +0.000 A 
ENDBRANCH  22  23
ENDBRANCH  21  22
ENDBRANCH  19  21
ENDBRANCH  15  19
TORSDOF 4
ENDMDL
MODEL 3
REMARK VINA RESULT:      -8.8      1.524      1.830
REMARK  Name = 
REMARK  4 active torsions:
REMARK  status: ('A' for Active; 'I' for Inactive)
REMARK    1  A    between atoms: C_15  and  N_16
REMARK    2  A    between atoms: N_16  and  C_17
REMARK    3  A    between atoms: C_17  and  C_18
REMARK    4  A    between atoms: C_18  and  C_19
REMARK                            x       y       z     vdW  Elec       q    Type
REMARK                         _______ _______ _______ _____ _____    ______ ____
ROOT
ATOM      1  O   UNL     1       3.539   1.316  18.709  0.00  0.00    +0.000 OA
ATOM      2  C   UNL     1       3.790   2.479  18.480  0.00  0.00    +0.000 C 
ATOM      3  N   UNL     1       4.762   2.941  17.624  0.00  0.00    +0.000 N 
ATOM      4  C   UNL     1       4.836   4.394  17.553  0.00  0.00    +0.000 C 
ATOM      5  C   UNL     1       4.555   4.847  16.107  0.00  0.00    +0.000 C 
ATOM      6  C   UNL     1       5.670   4.433  15.142  0.00  0.00    +0.000 C 
ATOM      7  C   UNL     1       7.034   4.920  15.618  0.00  0.00    +0.000 C 
ATOM      8  C   UNL     1       7.336   4.444  17.036  0.00  0.00    +0.000 C 
ATOM      9  C   UNL     1       6.233   4.857  18.016  0.00  0.00    +0.000 C 
ATOM     10  N   UNL     1       3.777   4.805  18.491  0.00  0.00    +0.000 N 
ATOM     11  C   UNL     1       3.161   3.697  19.039  0.00  0.00    +0.000 A 
ATOM     12  C   UNL     1       2.170   3.803  19.929  0.00  0.00    +0.000 A 
ATOM     13 CL   UNL     1       1.360   2.459  20.635  0.00  0.00    +0.000 Cl
ATOM     14  C   UNL     1       1.766   5.124  20.358  0.00  0.00    +0.000 A 
ATOM     15  C   UNL     1       2.333   6.248  19.879  0.00  0.00    +0.000 A 
ATOM     16  C   UNL     1       3.426   6.102  18.804  0.00  0.00    +0.000 A 
ATOM     17  O   UNL     1       3.947   7.091  18.294  0.00  0.00    +0.000 OA
ATOM     18  H   UNL     1       5.349   2.299  17.111  0.00  0.00    +0.000 HD
ENDROOT
BRANCH  15  19
ATOM     19  N   UNL     1       2.038   7.537  20.315  0.00  0.00    +0.000 N 
ATOM     20  H   UNL     1       2.251   8.230  19.599  0.00  0.00    +0.000 HD
BRANCH  19  21
ATOM     21  C   UNL     1       0.898   7.887  21.160  0.00  0.00    +0.000 C 
BRANCH  21  22
ATOM     22  C   UNL     1       1.240   9.106  22.029  0.00  0.00    +0.000 C 
BRANCH  22  23
ATOM     23  C   UNL     1       0.172  10.171  22.024  0.00  0.00    +0.000 A 
ATOM     24  C   UNL     1      -0.683  10.324  23.118  0.00  0.00    +0.000 A 
ATOM     25  C   UNL     1      -1.626  11.339  23.091  0.00  0.00    +0.000 A 
ATOM     26  N   UNL     1      -1.783  12.191  22.055  0.00  0.00    +0.000 NA
ATOM     27  C   UNL     1      -0.955  12.022  21.003  0.00  0.00    +0.000 A 
ATOM     28  C   UNL     1       0.025  11.042  20.940  0.00  0.00    +0.000 A 
ENDBRANCH  22  23
ENDBRANCH  21  22
ENDBRANCH  19  21
ENDBRANCH  15  19
TORSDOF 4
ENDMDL
MODEL 4
REMARK VINA RESULT:      -8.8      1.129      1.498
REMARK  Name = 
REMARK  4 active torsions:
REMARK  status: ('A' for Active; 'I' for Inactive)
REMARK    1  A    between atoms: C_15  and  N_16
REMARK    2  A    between atoms: N_16  and  C_17
REMARK    3  A    between atoms: C_17  and  C_18
REMARK    4  A    between atoms: C_18  and  C_19
REMARK                            x       y       z     vdW  Elec       q    Type
REMARK                         _______ _______ _______ _____ _____    ______ ____
ROOT
ATOM      1  O   UNL     1       4.220   2.049  20.279  0.00  0.00    +0.000 OA
ATOM      2  C   UNL     1       4.313   3.053  19.607  0.00  0.00    +0.000 C 
ATOM      3  N   UNL     1       5.216   3.263  18.591  0.00  0.00    +0.000 N 
ATOM      4  C   UNL     1       5.095   4.571  17.962  0.00  0.00    +0.000 C 
ATOM      5  C   UNL     1       4.758   4.388  16.469  0.00  0.00    +0.000 C 
ATOM      6  C   UNL     1       5.919   3.772  15.683  0.00  0.00    +0.000 C 
ATOM      7  C   UNL     1       7.206   4.571  15.865  0.00  0.00    +0.000 C 
ATOM      8  C   UNL     1       7.567   4.724  17.339  0.00  0.00    +0.000 C 
ATOM      9  C   UNL     1       6.417   5.346  18.140  0.00  0.00    +0.000 C 
ATOM     10  N   UNL     1       3.989   5.179  18.722  0.00  0.00    +0.000 N 
ATOM     11  C   UNL     1       3.527   4.305  19.685  0.00  0.00    +0.000 A 
ATOM     12  C   UNL     1       2.529   4.625  20.514  0.00  0.00    +0.000 A 
ATOM     13 CL   UNL     1       1.906   3.572  21.724  0.00  0.00    +0.000 Cl
ATOM     14  C   UNL     1       1.951   5.948  20.421  0.00  0.00    +0.000 A 
ATOM     15  C   UNL     1       2.364   6.859  19.518  0.00  0.00    +0.000 A 
ATOM     16  C   UNL     1       3.468   6.443  18.528  0.00  0.00    +0.000 A 
ATOM     17  O   UNL     1       3.853   7.212  17.651  0.00  0.00    +0.000 OA
ATOM     18  H   UNL     1       5.884   2.549  18.336  0.00  0.00    +0.000 HD
ENDROOT
BRANCH  15  19
ATOM     19  N   UNL     1       1.899   8.168  19.439  0.00  0.00    +0.000 N 
ATOM     20  H   UNL     1       2.409   8.784  20.071  0.00  0.00    +0.000 HD
BRANCH  19  21
ATOM     21  C   UNL     1       1.456   8.819  18.207  0.00  0.00    +0.000 C 
BRANCH  21  22
ATOM     22  C   UNL     1       1.120  10.293  18.481  0.00  0.00    +0.000 C 
BRANCH  22  23
ATOM     23  C   UNL     1      -0.354  10.601  18.402  0.00  0.00    +0.000 A 
ATOM     24  C   UNL     1      -1.197   9.830  17.596  0.00  0.00    +0.000 A 
ATOM     25  C   UNL     1      -2.552  10.120  17.580  0.00  0.00    +0.000 A 
ATOM     26  N   UNL     1      -3.115  11.121  18.289  0.00  0.00    +0.000 NA
ATOM     27  C   UNL     1      -2.284  11.862  19.054  0.00  0.00    +0.000 A 
ATOM     28  C   UNL     1      -0.917  11.644  19.143  0.00  0.00    +0.000 A 
ENDBRANCH  22  23
ENDBRANCH  21  22
ENDBRANCH  19  21
ENDBRANCH  15  19
TORSDOF 4
ENDMDL
MODEL 5
REMARK VINA RESULT:      -8.6      0.516      1.001
REMARK  Name = 
REMARK  4 active torsions:
REMARK  status: ('A' for Active; 'I' for Inactive)
REMARK    1  A    between atoms: C_15  and  N_16
REMARK    2  A    between atoms: N_16  and  C_17
REMARK    3  A    between atoms: C_17  and  C_18
REMARK    4  A    between atoms: C_18  and  C_19
REMARK                            x       y       z     vdW  Elec       q    Type
REMARK                         _______ _______ _______ _____ _____    ______ ____
ROOT
ATOM      1  O   UNL     1       3.953   1.765  19.861  0.00  0.00    +0.000 OA
ATOM      2  C   UNL     1       4.096   2.848  19.335  0.00  0.00    +0.000 C 
ATOM      3  N   UNL     1       5.023   3.159  18.369  0.00  0.00    +0.000 N 
ATOM      4  C   UNL     1       4.963   4.545  17.925  0.00  0.00    +0.000 C 
ATOM      5  C   UNL     1       4.645   4.583  16.417  0.00  0.00    +0.000 C 
ATOM      6  C   UNL     1       5.796   4.035  15.568  0.00  0.00    +0.000 C 
ATOM      7  C   UNL     1       7.108   4.750  15.874  0.00  0.00    +0.000 C 
ATOM      8  C   UNL     1       7.449   4.684  17.359  0.00  0.00    +0.000 C 
ATOM      9  C   UNL     1       6.310   5.235  18.224  0.00  0.00    +0.000 C 
ATOM     10  N   UNL     1       3.867   5.087  18.748  0.00  0.00    +0.000 N 
ATOM     11  C   UNL     1       3.356   4.107  19.576  0.00  0.00    +0.000 A 
ATOM     12  C   UNL     1       2.356   4.349  20.429  0.00  0.00    +0.000 A 
ATOM     13 CL   UNL     1       1.673   3.166  21.474  0.00  0.00    +0.000 Cl
ATOM     14  C   UNL     1       1.831   5.695  20.513  0.00  0.00    +0.000 A 
ATOM     15  C   UNL     1       2.293   6.704  19.749  0.00  0.00    +0.000 A 
ATOM     16  C   UNL     1       3.397   6.384  18.724  0.00  0.00    +0.000 A 
ATOM     17  O   UNL     1       3.826   7.251  17.966  0.00  0.00    +0.000 OA
ATOM     18  H   UNL     1       5.668   2.461  18.026  0.00  0.00    +0.000 HD
ENDROOT
BRANCH  15  19
ATOM     19  N   UNL     1       1.879   8.029  19.845  0.00  0.00    +0.000 N 
ATOM     20  H   UNL     1       1.796   8.461  18.926  0.00  0.00    +0.000 HD
BRANCH  19  21
ATOM     21  C   UNL     1       0.917   8.530  20.825  0.00  0.00    +0.000 C 
BRANCH  21  22
ATOM     22  C   UNL     1       0.994  10.061  20.905  0.00  0.00    +0.000 C 
BRANCH  22  23
ATOM     23  C   UNL     1       0.153  10.763  19.868  0.00  0.00    +0.000 A 
ATOM     24  C   UNL     1      -0.953  10.124  19.301  0.00  0.00    +0.000 A 
ATOM     25  C   UNL     1      -1.723  10.817  18.380  0.00  0.00    +0.000 A 
ATOM     26  N   UNL     1      -1.462  12.079  17.979  0.00  0.00    +0.000 NA
ATOM     27  C   UNL     1      -0.383  12.676  18.530  0.00  0.00    +0.000 A 
ATOM     28  C   UNL     1       0.442  12.070  19.465  0.00  0.00    +0.000 A 
ENDBRANCH  22  23
ENDBRANCH  21  22
ENDBRANCH  19  21
ENDBRANCH  15  19
TORSDOF 4
ENDMDL
MODEL 6
REMARK VINA RESULT:      -8.5      1.172      1.541
REMARK  Name = 
REMARK  4 active torsions:
REMARK  status: ('A' for Active; 'I' for Inactive)
REMARK    1  A    between atoms: C_15  and  N_16
REMARK    2  A    between atoms: N_16  and  C_17
REMARK    3  A    between atoms: C_17  and  C_18
REMARK    4  A    between atoms: C_18  and  C_19
REMARK                            x       y       z     vdW  Elec       q    Type
REMARK                         _______ _______ _______ _____ _____    ______ ____
ROOT
ATOM      1  O   UNL     1       4.112   2.100  20.097  0.00  0.00    +0.000 OA
ATOM      2  C   UNL     1       4.255   3.104  19.432  0.00  0.00    +0.000 C 
ATOM      3  N   UNL     1       5.185   3.286  18.436  0.00  0.00    +0.000 N 
ATOM      4  C   UNL     1       5.124   4.600  17.811  0.00  0.00    +0.000 C 
ATOM      5  C   UNL     1       4.811   4.435  16.311  0.00  0.00    +0.000 C 
ATOM      6  C   UNL     1       5.967   3.782  15.546  0.00  0.00    +0.000 C 
ATOM      7  C   UNL     1       7.277   4.534  15.758  0.00  0.00    +0.000 C 
ATOM      8  C   UNL     1       7.612   4.668  17.240  0.00  0.00    +0.000 C 
ATOM      9  C   UNL     1       6.469   5.327  18.020  0.00  0.00    +0.000 C 
ATOM     10  N   UNL     1       4.025   5.244  18.551  0.00  0.00    +0.000 N 
ATOM     11  C   UNL     1       3.512   4.382  19.500  0.00  0.00    +0.000 A 
ATOM     12  C   UNL     1       2.509   4.734  20.311  0.00  0.00    +0.000 A 
ATOM     13 CL   UNL     1       1.824   3.699  21.501  0.00  0.00    +0.000 Cl
ATOM     14  C   UNL     1       1.981   6.078  20.212  0.00  0.00    +0.000 A 
ATOM     15  C   UNL     1       2.445   6.976  19.322  0.00  0.00    +0.000 A 
ATOM     16  C   UNL     1       3.553   6.526  18.353  0.00  0.00    +0.000 A 
ATOM     17  O   UNL     1       3.983   7.284  17.488  0.00  0.00    +0.000 OA
ATOM     18  H   UNL     1       5.833   2.550  18.191  0.00  0.00    +0.000 HD
ENDROOT
BRANCH  15  19
ATOM     19  N   UNL     1       2.028   8.302  19.240  0.00  0.00    +0.000 N 
ATOM     20  H   UNL     1       2.581   8.905  19.848  0.00  0.00    +0.000 HD
BRANCH  19  21
ATOM     21  C   UNL     1       1.571   8.955  18.014  0.00  0.00    +0.000 C 
BRANCH  21  22
ATOM     22  C   UNL     1       0.290   9.756  18.289  0.00  0.00    +0.000 C 
BRANCH  22  23
ATOM     23  C   UNL     1       0.446  10.787  19.380  0.00  0.00    +0.000 A 
ATOM     24  C   UNL     1      -0.290  10.683  20.563  0.00  0.00    +0.000 A 
ATOM     25  C   UNL     1      -0.090  11.629  21.557  0.00  0.00    +0.000 A 
ATOM     26  N   UNL     1       0.769  12.664  21.448  0.00  0.00    +0.000 NA
ATOM     27  C   UNL     1       1.464  12.753  20.294  0.00  0.00    +0.000 A 
ATOM     28  C   UNL     1       1.340  11.853  19.246  0.00  0.00    +0.000 A 
ENDBRANCH  22  23
ENDBRANCH  21  22
ENDBRANCH  19  21
ENDBRANCH  15  19
TORSDOF 4
ENDMDL
MODEL 7
REMARK VINA RESULT:      -8.5      0.952      1.275
REMARK  Name = 
REMARK  4 active torsions:
REMARK  status: ('A' for Active; 'I' for Inactive)
REMARK    1  A    between atoms: C_15  and  N_16
REMARK    2  A    between atoms: N_16  and  C_17
REMARK    3  A    between atoms: C_17  and  C_18
REMARK    4  A    between atoms: C_18  and  C_19
REMARK                            x       y       z     vdW  Elec       q    Type
REMARK                         _______ _______ _______ _____ _____    ______ ____
ROOT
ATOM      1  O   UNL     1       4.205   1.863  20.251  0.00  0.00    +0.000 OA
ATOM      2  C   UNL     1       4.276   2.905  19.636  0.00  0.00    +0.000 C 
ATOM      3  N   UNL     1       5.169   3.188  18.629  0.00  0.00    +0.000 N 
ATOM      4  C   UNL     1       5.021   4.527  18.075  0.00  0.00    +0.000 C 
ATOM      5  C   UNL     1       4.677   4.422  16.576  0.00  0.00    +0.000 C 
ATOM      6  C   UNL     1       5.844   3.873  15.751  0.00  0.00    +0.000 C 
ATOM      7  C   UNL     1       7.118   4.683  15.970  0.00  0.00    +0.000 C 
ATOM      8  C   UNL     1       7.485   4.760  17.448  0.00  0.00    +0.000 C 
ATOM      9  C   UNL     1       6.330   5.315  18.289  0.00  0.00    +0.000 C 
ATOM     10  N   UNL     1       3.909   5.072  18.874  0.00  0.00    +0.000 N 
ATOM     11  C   UNL     1       3.469   4.136  19.789  0.00  0.00    +0.000 A 
ATOM     12  C   UNL     1       2.471   4.391  20.641  0.00  0.00    +0.000 A 
ATOM     13 CL   UNL     1       1.874   3.261  21.792  0.00  0.00    +0.000 Cl
ATOM     14  C   UNL     1       1.869   5.707  20.625  0.00  0.00    +0.000 A 
ATOM     15  C   UNL     1       2.260   6.674  19.773  0.00  0.00    +0.000 A 
ATOM     16  C   UNL     1       3.364   6.334  18.755  0.00  0.00    +0.000 A 
ATOM     17  O   UNL     1       3.730   7.158  17.920  0.00  0.00    +0.000 OA
ATOM     18  H   UNL     1       5.847   2.502  18.330  0.00  0.00    +0.000 HD
ENDROOT
BRANCH  15  19
ATOM     19  N   UNL     1       1.771   7.977  19.770  0.00  0.00    +0.000 N 
ATOM     20  H   UNL     1       1.296   8.195  18.895  0.00  0.00    +0.000 HD
BRANCH  19  21
ATOM     21  C   UNL     1       1.208   8.656  20.935  0.00  0.00    +0.000 C 
BRANCH  21  22
ATOM     22  C   UNL     1      -0.106   9.355  20.555  0.00  0.00    +0.000 C 
BRANCH  22  23
ATOM     23  C   UNL     1      -0.026  10.860  20.611  0.00  0.00    +0.000 A 
ATOM     24  C   UNL     1      -1.191  11.629  20.676  0.00  0.00    +0.000 A 
ATOM     25  C   UNL     1      -1.076  13.008  20.765  0.00  0.00    +0.000 A 
ATOM     26  N   UNL     1       0.104  13.664  20.778  0.00  0.00    +0.000 NA
ATOM     27  C   UNL     1       1.218  12.905  20.704  0.00  0.00    +0.000 A 
ATOM     28  C   UNL     1       1.206  11.520  20.621  0.00  0.00    +0.000 A 
ENDBRANCH  22  23
ENDBRANCH  21  22
ENDBRANCH  19  21
ENDBRANCH  15  19
TORSDOF 4
ENDMDL
MODEL 8
REMARK VINA RESULT:      -8.4      1.247      1.497
REMARK  Name = 
REMARK  4 active torsions:
REMARK  status: ('A' for Active; 'I' for Inactive)
REMARK    1  A    between atoms: C_15  and  N_16
REMARK    2  A    between atoms: N_16  and  C_17
REMARK    3  A    between atoms: C_17  and  C_18
REMARK    4  A    between atoms: C_18  and  C_19
REMARK                            x       y       z     vdW  Elec       q    Type
REMARK                         _______ _______ _______ _____ _____    ______ ____
ROOT
ATOM      1  O   UNL     1       3.653   1.905  19.536  0.00  0.00    +0.000 OA
ATOM      2  C   UNL     1       3.916   2.956  18.994  0.00  0.00    +0.000 C 
ATOM      3  N   UNL     1       4.945   3.172  18.108  0.00  0.00    +0.000 N 
ATOM      4  C   UNL     1       5.020   4.542  17.620  0.00  0.00    +0.000 C 
ATOM      5  C   UNL     1       4.841   4.547  16.089  0.00  0.00    +0.000 C 
ATOM      6  C   UNL     1       6.023   3.895  15.365  0.00  0.00    +0.000 C 
ATOM      7  C   UNL     1       7.349   4.532  15.768  0.00  0.00    +0.000 C 
ATOM      8  C   UNL     1       7.550   4.496  17.279  0.00  0.00    +0.000 C 
ATOM      9  C   UNL     1       6.380   5.152  18.020  0.00  0.00    +0.000 C 
ATOM     10  N   UNL     1       3.896   5.183  18.324  0.00  0.00    +0.000 N 
ATOM     11  C   UNL     1       3.246   4.269  19.129  0.00  0.00    +0.000 A 
ATOM     12  C   UNL     1       2.194   4.607  19.881  0.00  0.00    +0.000 A 
ATOM     13 CL   UNL     1       1.340   3.509  20.893  0.00  0.00    +0.000 Cl
ATOM     14  C   UNL     1       1.757   5.987  19.876  0.00  0.00    +0.000 A 
ATOM     15  C   UNL     1       2.354   6.935  19.129  0.00  0.00    +0.000 A 
ATOM     16  C   UNL     1       3.520   6.507  18.219  0.00  0.00    +0.000 A 
ATOM     17  O   UNL     1       4.074   7.316  17.478  0.00  0.00    +0.000 OA
ATOM     18  H   UNL     1       5.568   2.421  17.845  0.00  0.00    +0.000 HD
ENDROOT
BRANCH  15  19
ATOM     19  N   UNL     1       2.026   8.288  19.148  0.00  0.00    +0.000 N 
ATOM     20  H   UNL     1       2.623   8.807  19.790  0.00  0.00    +0.000 HD
BRANCH  19  21
ATOM     21  C   UNL     1       1.601   9.056  17.980  0.00  0.00    +0.000 C 
BRANCH  21  22
ATOM     22  C   UNL     1       0.268   9.762  18.269  0.00  0.00    +0.000 C 
BRANCH  22  23
ATOM     23  C   UNL     1       0.283  10.586  19.532  0.00  0.00    +0.000 A 
ATOM     24  C   UNL     1       1.035  11.761  19.604  0.00  0.00    +0.000 A 
ATOM     25  C   UNL     1       0.992  12.510  20.769  0.00  0.00    +0.000 A 
ATOM     26  N   UNL     1       0.273  12.165  21.858  0.00  0.00    +0.000 NA
ATOM     27  C   UNL     1      -0.440  11.022  21.774  0.00  0.00    +0.000 A 
ATOM     28  C   UNL     1      -0.468  10.210  20.650  0.00  0.00    +0.000 A 
ENDBRANCH  22  23
ENDBRANCH  21  22
ENDBRANCH  19  21
ENDBRANCH  15  19
TORSDOF 4
ENDMDL
MODEL 9
REMARK VINA RESULT:      -8.4      1.108      1.157
REMARK  Name = 
REMARK  4 active torsions:
REMARK  status: ('A' for Active; 'I' for Inactive)
REMARK    1  A    between atoms: C_15  and  N_16
REMARK    2  A    between atoms: N_16  and  C_17
REMARK    3  A    between atoms: C_17  and  C_18
REMARK    4  A    between atoms: C_18  and  C_19
REMARK                            x       y       z     vdW  Elec       q    Type
REMARK                         _______ _______ _______ _____ _____    ______ ____
ROOT
ATOM      1  O   UNL     1       3.382   1.449  18.512  0.00  0.00    +0.000 OA
ATOM      2  C   UNL     1       3.695   2.607  18.337  0.00  0.00    +0.000 C 
ATOM      3  N   UNL     1       4.698   3.054  17.510  0.00  0.00    +0.000 N 
ATOM      4  C   UNL     1       4.850   4.502  17.503  0.00  0.00    +0.000 C 
ATOM      5  C   UNL     1       4.606   5.033  16.077  0.00  0.00    +0.000 C 
ATOM      6  C   UNL     1       5.706   4.602  15.102  0.00  0.00    +0.000 C 
ATOM      7  C   UNL     1       7.090   4.995  15.609  0.00  0.00    +0.000 C 
ATOM      8  C   UNL     1       7.353   4.442  17.006  0.00  0.00    +0.000 C 
ATOM      9  C   UNL     1       6.265   4.869  17.996  0.00  0.00    +0.000 C 
ATOM     10  N   UNL     1       3.805   4.927  18.451  0.00  0.00    +0.000 N 
ATOM     11  C   UNL     1       3.127   3.830  18.945  0.00  0.00    +0.000 A 
ATOM     12  C   UNL     1       2.134   3.949  19.832  0.00  0.00    +0.000 A 
ATOM     13 CL   UNL     1       1.249   2.621  20.472  0.00  0.00    +0.000 Cl
ATOM     14  C   UNL     1       1.796   5.271  20.317  0.00  0.00    +0.000 A 
ATOM     15  C   UNL     1       2.427   6.383  19.892  0.00  0.00    +0.000 A 
ATOM     16  C   UNL     1       3.520   6.226  18.819  0.00  0.00    +0.000 A 
ATOM     17  O   UNL     1       4.097   7.207  18.357  0.00  0.00    +0.000 OA
ATOM     18  H   UNL     1       5.255   2.404  16.972  0.00  0.00    +0.000 HD
ENDROOT
BRANCH  15  19
ATOM     19  N   UNL     1       2.196   7.665  20.383  0.00  0.00    +0.000 N 
ATOM     20  H   UNL     1       3.012   8.263  20.259  0.00  0.00    +0.000 HD
BRANCH  19  21
ATOM     21  C   UNL     1       0.921   8.373  20.289  0.00  0.00    +0.000 C 
BRANCH  21  22
ATOM     22  C   UNL     1       0.975   9.409  19.156  0.00  0.00    +0.000 C 
BRANCH  22  23
ATOM     23  C   UNL     1      -0.271  10.252  19.049  0.00  0.00    +0.000 A 
ATOM     24  C   UNL     1      -0.601  11.161  20.057  0.00  0.00    +0.000 A 
ATOM     25  C   UNL     1      -1.733  11.945  19.904  0.00  0.00    +0.000 A 
ATOM     26  N   UNL     1      -2.557  11.875  18.837  0.00  0.00    +0.000 NA
ATOM     27  C   UNL     1      -2.229  10.983  17.878  0.00  0.00    +0.000 A 
ATOM     28  C   UNL     1      -1.113  10.162  17.936  0.00  0.00    +0.000 A 
ENDBRANCH  22  23
ENDBRANCH  21  22
ENDBRANCH  19  21
ENDBRANCH  15  19
TORSDOF 4
ENDMDL
