MODEL 1
REMARK VINA RESULT:      -8.1      0.000      0.000
REMARK  Name = 
REMARK  8 active torsions:
REMARK  status: ('A' for Active; 'I' for Inactive)
REMARK    1  A    between atoms: C_1  and  O_2
REMARK    2  A    between atoms: O_2  and  C_3
REMARK    3  A    between atoms: C_5  and  O_6
REMARK    4  A    between atoms: O_6  and  C_7
REMARK    5  A    between atoms: C_9  and  C_10
REMARK    6  A    between atoms: C_16  and  C_18
REMARK    7  A    between atoms: C_18  and  O_19
REMARK    8  A    between atoms: O_19  and  C_20
REMARK                            x       y       z     vdW  Elec       q    Type
REMARK                         _______ _______ _______ _____ _____    ______ ____
ROOT
ATOM      1  C   UNL     1       3.710   5.134  18.904  0.00  0.00    +0.000 C 
ATOM      2  O   UNL     1       3.789   4.191  19.693  0.00  0.00    +0.000 OA
ATOM      3  N   UNL     1       2.747   6.131  19.035  0.00  0.00    +0.000 N 
ATOM      4  C   UNL     1       1.949   6.160  20.259  0.00  0.00    +0.000 C 
ATOM      5  C   UNL     1       1.886   7.584  20.821  0.00  0.00    +0.000 C 
ATOM      6  N   UNL     1       1.431   8.548  19.811  0.00  0.00    +0.000 N 
ATOM      7  C   UNL     1       0.553   9.599  20.062  0.00  0.00    +0.000 C 
ATOM      8  O   UNL     1       0.263  10.419  19.186  0.00  0.00    +0.000 OA
ATOM      9  C   UNL     1       2.137   8.483  18.521  0.00  0.00    +0.000 C 
ATOM     10  C   UNL     1       2.239   7.038  17.990  0.00  0.00    +0.000 C 
ENDROOT
BRANCH   1  15
ATOM     11  C   UNL     1       5.686   4.414  15.760  0.00  0.00    +0.000 A 
ATOM     12  C   UNL     1       6.622   5.448  15.810  0.00  0.00    +0.000 A 
ATOM     13  C   UNL     1       6.609   6.386  16.850  0.00  0.00    +0.000 A 
ATOM     14  C   UNL     1       5.667   6.261  17.868  0.00  0.00    +0.000 A 
ATOM     15  C   UNL     1       4.739   5.210  17.838  0.00  0.00    +0.000 A 
ATOM     16  C   UNL     1       4.717   4.330  16.754  0.00  0.00    +0.000 A 
BRANCH  11  18
ATOM     17  C   UNL     1       6.542   4.017  13.578  0.00  0.00    +0.000 C 
ATOM     18  O   UNL     1       5.802   3.552  14.704  0.00  0.00    +0.000 OA
ENDBRANCH  11  18
BRANCH  13  19
ATOM     19  O   UNL     1       7.567   7.361  16.757  0.00  0.00    +0.000 OA
ATOM     20  C   UNL     1       7.981   7.976  17.973  0.00  0.00    +0.000 C 
ENDBRANCH  13  19
ENDBRANCH   1  15
BRANCH   7  21
ATOM     21  C   UNL     1      -0.057   9.722  21.466  0.00  0.00    +0.000 C 
BRANCH  21  22
ATOM     22  O   UNL     1       0.354  10.966  22.018  0.00  0.00    +0.000 OA
BRANCH  22  23
ATOM     23  C   UNL     1      -0.612  11.861  22.385  0.00  0.00    +0.000 A 
ATOM     24  C   UNL     1      -0.331  13.178  22.015  0.00  0.00    +0.000 A 
ATOM     25  C   UNL     1      -1.250  14.201  22.250  0.00  0.00    +0.000 A 
ATOM     26  C   UNL     1      -2.476  13.929  22.862  0.00  0.00    +0.000 A 
ATOM     27  C   UNL     1      -3.441  14.935  23.033  0.00  0.00    +0.000 A 
ATOM     28  C   UNL     1      -4.651  14.667  23.664  0.00  0.00    +0.000 A 
ATOM     29  C   UNL     1      -4.895  13.391  24.177  0.00  0.00    +0.000 A 
ATOM     30  C   UNL     1      -3.950  12.376  23.998  0.00  0.00    +0.000 A 
ATOM     31  C   UNL     1      -2.743  12.613  23.314  0.00  0.00    +0.000 A 
ATOM     32  C   UNL     1      -1.810  11.588  23.051  0.00  0.00    +0.000 A 
ENDBRANCH  22  23
ENDBRANCH  21  22
ENDBRANCH   7  21
TORSDOF 6
ENDMDL
MODEL 2
REMARK VINA RESULT:      -8.1      0.473      2.113
REMARK  Name = 
REMARK  8 active torsions:
REMARK  status: ('A' for Active; 'I' for Inactive)
REMARK    1  A    between atoms: C_1  and  O_2
REMARK    2  A    between atoms: O_2  and  C_3
REMARK    3  A    between atoms: C_5  and  O_6
REMARK    4  A    between atoms: O_6  and  C_7
REMARK    5  A    between atoms: C_9  and  C_10
REMARK    6  A    between atoms: C_16  and  C_18
REMARK    7  A    between atoms: C_18  and  O_19
REMARK    8  A    between atoms: O_19  and  C_20
REMARK                            x       y       z     vdW  Elec       q    Type
REMARK                         _______ _______ _______ _____ _____    ______ ____
ROOT
ATOM      1  C   UNL     1       3.623   4.877  19.181  0.00  0.00    +0.000 C 
ATOM      2  O   UNL     1       3.575   3.896  19.924  0.00  0.00    +0.000 OA
ATOM      3  N   UNL     1       2.697   5.914  19.261  0.00  0.00    +0.000 N 
ATOM      4  C   UNL     1       1.776   5.926  20.396  0.00  0.00    +0.000 C 
ATOM      5  C   UNL     1       1.716   7.324  21.020  0.00  0.00    +0.000 C 
ATOM      6  N   UNL     1       1.414   8.355  20.019  0.00  0.00    +0.000 N 
ATOM      7  C   UNL     1       0.562   9.435  20.230  0.00  0.00    +0.000 C 
ATOM      8  O   UNL     1       0.404  10.308  19.372  0.00  0.00    +0.000 OA
ATOM      9  C   UNL     1       2.250   8.314  18.808  0.00  0.00    +0.000 C 
ATOM     10  C   UNL     1       2.343   6.893  18.217  0.00  0.00    +0.000 C 
ENDROOT
BRANCH   1  15
ATOM     11  C   UNL     1       6.925   5.832  17.601  0.00  0.00    +0.000 A 
ATOM     12  C   UNL     1       6.922   4.991  16.486  0.00  0.00    +0.000 A 
ATOM     13  C   UNL     1       5.862   4.107  16.250  0.00  0.00    +0.000 A 
ATOM     14  C   UNL     1       4.778   4.093  17.125  0.00  0.00    +0.000 A 
ATOM     15  C   UNL     1       4.762   4.952  18.233  0.00  0.00    +0.000 A 
ATOM     16  C   UNL     1       5.862   5.772  18.495  0.00  0.00    +0.000 A 
BRANCH  11  18
ATOM     17  C   UNL     1       7.760   8.057  17.586  0.00  0.00    +0.000 C 
ATOM     18  O   UNL     1       8.007   6.660  17.723  0.00  0.00    +0.000 OA
ENDBRANCH  11  18
BRANCH  13  19
ATOM     19  O   UNL     1       6.005   3.323  15.136  0.00  0.00    +0.000 OA
ATOM     20  C   UNL     1       6.154   3.995  13.889  0.00  0.00    +0.000 C 
ENDBRANCH  13  19
ENDBRANCH   1  15
BRANCH   7  21
ATOM     21  C   UNL     1      -0.187   9.523  21.567  0.00  0.00    +0.000 C 
BRANCH  21  22
ATOM     22  O   UNL     1       0.233  10.708  22.232  0.00  0.00    +0.000 OA
BRANCH  22  23
ATOM     23  C   UNL     1      -0.707  11.659  22.515  0.00  0.00    +0.000 A 
ATOM     24  C   UNL     1      -0.390  12.928  22.029  0.00  0.00    +0.000 A 
ATOM     25  C   UNL     1      -1.280  13.994  22.168  0.00  0.00    +0.000 A 
ATOM     26  C   UNL     1      -2.512  13.812  22.801  0.00  0.00    +0.000 A 
ATOM     27  C   UNL     1      -3.450  14.856  22.879  0.00  0.00    +0.000 A 
ATOM     28  C   UNL     1      -4.666  14.679  23.530  0.00  0.00    +0.000 A 
ATOM     29  C   UNL     1      -4.944  13.463  24.156  0.00  0.00    +0.000 A 
ATOM     30  C   UNL     1      -4.028  12.410  24.070  0.00  0.00    +0.000 A 
ATOM     31  C   UNL     1      -2.816  12.551  23.369  0.00  0.00    +0.000 A 
ATOM     32  C   UNL     1      -1.912  11.480  23.201  0.00  0.00    +0.000 A 
ENDBRANCH  22  23
ENDBRANCH  21  22
ENDBRANCH   7  21
TORSDOF 6
ENDMDL
MODEL 3
REMARK VINA RESULT:      -7.9      0.908      1.495
REMARK  Name = 
REMARK  8 active torsions:
REMARK  status: ('A' for Active; 'I' for Inactive)
REMARK    1  A    between atoms: C_1  and  O_2
REMARK    2  A    between atoms: O_2  and  C_3
REMARK    3  A    between atoms: C_5  and  O_6
REMARK    4  A    between atoms: O_6  and  C_7
REMARK    5  A    between atoms: C_9  and  C_10
REMARK    6  A    between atoms: C_16  and  C_18
REMARK    7  A    between atoms: C_18  and  O_19
REMARK    8  A    between atoms: O_19  and  C_20
REMARK                            x       y       z     vdW  Elec       q    Type
REMARK                         _______ _______ _______ _____ _____    ______ ____
ROOT
ATOM      1  C   UNL     1       3.527   5.158  19.366  0.00  0.00    +0.000 C 
ATOM      2  O   UNL     1       3.430   4.261  20.205  0.00  0.00    +0.000 OA
ATOM      3  N   UNL     1       2.630   6.221  19.308  0.00  0.00    +0.000 N 
ATOM      4  C   UNL     1       1.676   6.375  20.405  0.00  0.00    +0.000 C 
ATOM      5  C   UNL     1       1.639   7.831  20.879  0.00  0.00    +0.000 C 
ATOM      6  N   UNL     1       1.397   8.760  19.767  0.00  0.00    +0.000 N 
ATOM      7  C   UNL     1       0.570   9.878  19.838  0.00  0.00    +0.000 C 
ATOM      8  O   UNL     1       0.463  10.660  18.889  0.00  0.00    +0.000 OA
ATOM      9  C   UNL     1       2.267   8.572  18.595  0.00  0.00    +0.000 C 
ATOM     10  C   UNL     1       2.336   7.094  18.158  0.00  0.00    +0.000 C 
ENDROOT
BRANCH   1  15
ATOM     11  C   UNL     1       5.782   4.256  16.466  0.00  0.00    +0.000 A 
ATOM     12  C   UNL     1       6.862   5.106  16.713  0.00  0.00    +0.000 A 
ATOM     13  C   UNL     1       6.858   5.979  17.808  0.00  0.00    +0.000 A 
ATOM     14  C   UNL     1       5.773   5.973  18.681  0.00  0.00    +0.000 A 
ATOM     15  C   UNL     1       4.696   5.104  18.453  0.00  0.00    +0.000 A 
ATOM     16  C   UNL     1       4.682   4.296  17.315  0.00  0.00    +0.000 A 
BRANCH  11  18
ATOM     17  C   UNL     1       6.421   4.032  14.187  0.00  0.00    +0.000 C 
ATOM     18  O   UNL     1       5.901   3.439  15.374  0.00  0.00    +0.000 OA
ENDBRANCH  11  18
BRANCH  13  19
ATOM     19  O   UNL     1       7.969   6.774  17.913  0.00  0.00    +0.000 OA
ATOM     20  C   UNL     1       7.791   8.166  17.671  0.00  0.00    +0.000 C 
ENDBRANCH  13  19
ENDBRANCH   1  15
BRANCH   7  21
ATOM     21  C   UNL     1      -0.216  10.125  21.134  0.00  0.00    +0.000 C 
BRANCH  21  22
ATOM     22  O   UNL     1       0.257  11.333  21.714  0.00  0.00    +0.000 OA
BRANCH  22  23
ATOM     23  C   UNL     1      -0.646  12.150  22.334  0.00  0.00    +0.000 A 
ATOM     24  C   UNL     1      -1.819  11.501  22.724  0.00  0.00    +0.000 A 
ATOM     25  C   UNL     1      -2.810  12.176  23.438  0.00  0.00    +0.000 A 
ATOM     26  C   UNL     1      -2.649  13.522  23.777  0.00  0.00    +0.000 A 
ATOM     27  C   UNL     1      -3.603  14.193  24.561  0.00  0.00    +0.000 A 
ATOM     28  C   UNL     1      -3.453  15.538  24.878  0.00  0.00    +0.000 A 
ATOM     29  C   UNL     1      -2.362  16.249  24.373  0.00  0.00    +0.000 A 
ATOM     30  C   UNL     1      -1.396  15.590  23.606  0.00  0.00    +0.000 A 
ATOM     31  C   UNL     1      -1.502  14.216  23.321  0.00  0.00    +0.000 A 
ATOM     32  C   UNL     1      -0.501  13.512  22.618  0.00  0.00    +0.000 A 
ENDBRANCH  22  23
ENDBRANCH  21  22
ENDBRANCH   7  21
TORSDOF 6
ENDMDL
MODEL 4
REMARK VINA RESULT:      -7.9      1.127      2.379
REMARK  Name = 
REMARK  8 active torsions:
REMARK  status: ('A' for Active; 'I' for Inactive)
REMARK    1  A    between atoms: C_1  and  O_2
REMARK    2  A    between atoms: O_2  and  C_3
REMARK    3  A    between atoms: C_5  and  O_6
REMARK    4  A    between atoms: O_6  and  C_7
REMARK    5  A    between atoms: C_9  and  C_10
REMARK    6  A    between atoms: C_16  and  C_18
REMARK    7  A    between atoms: C_18  and  O_19
REMARK    8  A    between atoms: O_19  and  C_20
REMARK                            x       y       z     vdW  Elec       q    Type
REMARK                         _______ _______ _______ _____ _____    ______ ____
ROOT
ATOM      1  C   UNL     1       3.393   5.124  19.394  0.00  0.00    +0.000 C 
ATOM      2  O   UNL     1       3.291   4.188  20.188  0.00  0.00    +0.000 OA
ATOM      3  N   UNL     1       2.508   6.199  19.395  0.00  0.00    +0.000 N 
ATOM      4  C   UNL     1       1.563   6.309  20.505  0.00  0.00    +0.000 C 
ATOM      5  C   UNL     1       1.545   7.740  21.050  0.00  0.00    +0.000 C 
ATOM      6  N   UNL     1       1.306   8.725  19.988  0.00  0.00    +0.000 N 
ATOM      7  C   UNL     1       0.493   9.847  20.120  0.00  0.00    +0.000 C 
ATOM      8  O   UNL     1       0.389  10.677  19.211  0.00  0.00    +0.000 OA
ATOM      9  C   UNL     1       2.167   8.586  18.802  0.00  0.00    +0.000 C 
ATOM     10  C   UNL     1       2.217   7.131  18.292  0.00  0.00    +0.000 C 
ENDROOT
BRANCH   1  15
ATOM     11  C   UNL     1       6.822   5.744  17.920  0.00  0.00    +0.000 A 
ATOM     12  C   UNL     1       6.746   4.958  16.769  0.00  0.00    +0.000 A 
ATOM     13  C   UNL     1       5.594   4.218  16.473  0.00  0.00    +0.000 A 
ATOM     14  C   UNL     1       4.496   4.296  17.326  0.00  0.00    +0.000 A 
ATOM     15  C   UNL     1       4.556   5.103  18.472  0.00  0.00    +0.000 A 
ATOM     16  C   UNL     1       5.739   5.773  18.791  0.00  0.00    +0.000 A 
BRANCH  11  18
ATOM     17  C   UNL     1       7.957   7.830  17.831  0.00  0.00    +0.000 C 
ATOM     18  O   UNL     1       7.992   6.431  18.100  0.00  0.00    +0.000 OA
ENDBRANCH  11  18
BRANCH  13  19
ATOM     19  O   UNL     1       5.669   3.471  15.327  0.00  0.00    +0.000 OA
ATOM     20  C   UNL     1       6.512   3.963  14.291  0.00  0.00    +0.000 C 
ENDBRANCH  13  19
ENDBRANCH   1  15
BRANCH   7  21
ATOM     21  C   UNL     1      -0.282  10.038  21.431  0.00  0.00    +0.000 C 
BRANCH  21  22
ATOM     22  O   UNL     1      -0.421  11.434  21.663  0.00  0.00    +0.000 OA
BRANCH  22  23
ATOM     23  C   UNL     1      -1.673  11.929  21.897  0.00  0.00    +0.000 A 
ATOM     24  C   UNL     1      -2.305  12.427  20.756  0.00  0.00    +0.000 A 
ATOM     25  C   UNL     1      -3.617  12.900  20.811  0.00  0.00    +0.000 A 
ATOM     26  C   UNL     1      -4.328  12.886  22.014  0.00  0.00    +0.000 A 
ATOM     27  C   UNL     1      -5.674  13.286  22.067  0.00  0.00    +0.000 A 
ATOM     28  C   UNL     1      -6.372  13.293  23.269  0.00  0.00    +0.000 A 
ATOM     29  C   UNL     1      -5.717  12.941  24.451  0.00  0.00    +0.000 A 
ATOM     30  C   UNL     1      -4.383  12.524  24.410  0.00  0.00    +0.000 A 
ATOM     31  C   UNL     1      -3.675  12.457  23.195  0.00  0.00    +0.000 A 
ATOM     32  C   UNL     1      -2.355  11.964  23.117  0.00  0.00    +0.000 A 
ENDBRANCH  22  23
ENDBRANCH  21  22
ENDBRANCH   7  21
TORSDOF 6
ENDMDL
MODEL 5
REMARK VINA RESULT:      -7.8      2.124      3.829
REMARK  Name = 
REMARK  8 active torsions:
REMARK  status: ('A' for Active; 'I' for Inactive)
REMARK    1  A    between atoms: C_1  and  O_2
REMARK    2  A    between atoms: O_2  and  C_3
REMARK    3  A    between atoms: C_5  and  O_6
REMARK    4  A    between atoms: O_6  and  C_7
REMARK    5  A    between atoms: C_9  and  C_10
REMARK    6  A    between atoms: C_16  and  C_18
REMARK    7  A    between atoms: C_18  and  O_19
REMARK    8  A    between atoms: O_19  and  C_20
REMARK                            x       y       z     vdW  Elec       q    Type
REMARK                         _______ _______ _______ _____ _____    ______ ____
ROOT
ATOM      1  C   UNL     1       2.413   7.881  18.146  0.00  0.00    +0.000 C 
ATOM      2  O   UNL     1       2.545   8.430  17.052  0.00  0.00    +0.000 OA
ATOM      3  N   UNL     1       1.918   8.554  19.260  0.00  0.00    +0.000 N 
ATOM      4  C   UNL     1       1.350   9.886  19.061  0.00  0.00    +0.000 C 
ATOM      5  C   UNL     1       0.006  10.007  19.786  0.00  0.00    +0.000 C 
ATOM      6  N   UNL     1       0.115   9.631  21.201  0.00  0.00    +0.000 N 
ATOM      7  C   UNL     1      -0.521  10.295  22.246  0.00  0.00    +0.000 C 
ATOM      8  O   UNL     1      -0.447   9.887  23.409  0.00  0.00    +0.000 OA
ATOM      9  C   UNL     1       0.777   8.341  21.456  0.00  0.00    +0.000 C 
ATOM     10  C   UNL     1       2.104   8.210  20.681  0.00  0.00    +0.000 C 
ENDROOT
BRANCH   1  15
ATOM     11  C   UNL     1       4.298   4.639  18.647  0.00  0.00    +0.000 A 
ATOM     12  C   UNL     1       3.270   3.717  18.441  0.00  0.00    +0.000 A 
ATOM     13  C   UNL     1       1.966   4.139  18.154  0.00  0.00    +0.000 A 
ATOM     14  C   UNL     1       1.701   5.502  18.038  0.00  0.00    +0.000 A 
ATOM     15  C   UNL     1       2.733   6.433  18.218  0.00  0.00    +0.000 A 
ATOM     16  C   UNL     1       4.010   5.998  18.580  0.00  0.00    +0.000 A 
BRANCH  11  18
ATOM     17  C   UNL     1       6.621   4.621  18.144  0.00  0.00    +0.000 C 
ATOM     18  O   UNL     1       5.533   4.111  18.910  0.00  0.00    +0.000 OA
ENDBRANCH  11  18
BRANCH  13  19
ATOM     19  O   UNL     1       1.054   3.128  18.004  0.00  0.00    +0.000 OA
ATOM     20  C   UNL     1       0.985   2.162  19.048  0.00  0.00    +0.000 C 
ENDBRANCH  13  19
ENDBRANCH   1  15
BRANCH   7  21
ATOM     21  C   UNL     1      -1.327  11.562  21.923  0.00  0.00    +0.000 C 
BRANCH  21  22
ATOM     22  O   UNL     1      -1.430  12.334  23.112  0.00  0.00    +0.000 OA
BRANCH  22  23
ATOM     23  C   UNL     1      -2.601  12.995  23.355  0.00  0.00    +0.000 A 
ATOM     24  C   UNL     1      -2.477  14.385  23.349  0.00  0.00    +0.000 A 
ATOM     25  C   UNL     1      -3.594  15.207  23.506  0.00  0.00    +0.000 A 
ATOM     26  C   UNL     1      -4.865  14.653  23.674  0.00  0.00    +0.000 A 
ATOM     27  C   UNL     1      -6.008  15.468  23.755  0.00  0.00    +0.000 A 
ATOM     28  C   UNL     1      -7.269  14.915  23.946  0.00  0.00    +0.000 A 
ATOM     29  C   UNL     1      -7.402  13.535  24.105  0.00  0.00    +0.000 A 
ATOM     30  C   UNL     1      -6.276  12.711  24.009  0.00  0.00    +0.000 A 
ATOM     31  C   UNL     1      -4.998  13.246  23.761  0.00  0.00    +0.000 A 
ATOM     32  C   UNL     1      -3.861  12.430  23.581  0.00  0.00    +0.000 A 
ENDBRANCH  22  23
ENDBRANCH  21  22
ENDBRANCH   7  21
TORSDOF 6
ENDMDL
MODEL 6
REMARK VINA RESULT:      -7.8      3.065     10.913
REMARK  Name = 
REMARK  8 active torsions:
REMARK  status: ('A' for Active; 'I' for Inactive)
REMARK    1  A    between atoms: C_1  and  O_2
REMARK    2  A    between atoms: O_2  and  C_3
REMARK    3  A    between atoms: C_5  and  O_6
REMARK    4  A    between atoms: O_6  and  C_7
REMARK    5  A    between atoms: C_9  and  C_10
REMARK    6  A    between atoms: C_16  and  C_18
REMARK    7  A    between atoms: C_18  and  O_19
REMARK    8  A    between atoms: O_19  and  C_20
REMARK                            x       y       z     vdW  Elec       q    Type
REMARK                         _______ _______ _______ _____ _____    ______ ____
ROOT
ATOM      1  C   UNL     1      -1.105  11.750  22.657  0.00  0.00    +0.000 C 
ATOM      2  O   UNL     1      -1.534  10.893  23.431  0.00  0.00    +0.000 OA
ATOM      3  N   UNL     1      -0.169  11.455  21.669  0.00  0.00    +0.000 N 
ATOM      4  C   UNL     1       0.149  10.050  21.420  0.00  0.00    +0.000 C 
ATOM      5  C   UNL     1       0.130   9.756  19.917  0.00  0.00    +0.000 C 
ATOM      6  N   UNL     1       0.989  10.684  19.170  0.00  0.00    +0.000 N 
ATOM      7  C   UNL     1       1.808  10.319  18.105  0.00  0.00    +0.000 C 
ATOM      8  O   UNL     1       2.454  11.159  17.472  0.00  0.00    +0.000 OA
ATOM      9  C   UNL     1       0.776  12.110  19.467  0.00  0.00    +0.000 C 
ATOM     10  C   UNL     1       0.746  12.386  20.985  0.00  0.00    +0.000 C 
ENDROOT
BRANCH   1  15
ATOM     11  C   UNL     1      -3.334  14.759  22.119  0.00  0.00    +0.000 A 
ATOM     12  C   UNL     1      -2.808  15.634  23.072  0.00  0.00    +0.000 A 
ATOM     13  C   UNL     1      -1.744  15.250  23.897  0.00  0.00    +0.000 A 
ATOM     14  C   UNL     1      -1.180  13.986  23.739  0.00  0.00    +0.000 A 
ATOM     15  C   UNL     1      -1.686  13.111  22.767  0.00  0.00    +0.000 A 
ATOM     16  C   UNL     1      -2.797  13.482  22.006  0.00  0.00    +0.000 A 
BRANCH  11  18
ATOM     17  C   UNL     1      -4.132  16.478  20.685  0.00  0.00    +0.000 C 
ATOM     18  O   UNL     1      -4.365  15.247  21.363  0.00  0.00    +0.000 OA
ENDBRANCH  11  18
BRANCH  13  19
ATOM     19  O   UNL     1      -1.348  16.197  24.804  0.00  0.00    +0.000 OA
ATOM     20  C   UNL     1      -1.344  15.814  26.176  0.00  0.00    +0.000 C 
ENDBRANCH  13  19
ENDBRANCH   1  15
BRANCH   7  21
ATOM     21  C   UNL     1       1.895   8.833  17.728  0.00  0.00    +0.000 C 
BRANCH  21  22
ATOM     22  O   UNL     1       2.734   8.185  18.675  0.00  0.00    +0.000 OA
BRANCH  22  23
ATOM     23  C   UNL     1       2.537   6.853  18.910  0.00  0.00    +0.000 A 
ATOM     24  C   UNL     1       2.051   6.571  20.188  0.00  0.00    +0.000 A 
ATOM     25  C   UNL     1       1.726   5.266  20.560  0.00  0.00    +0.000 A 
ATOM     26  C   UNL     1       1.881   4.210  19.659  0.00  0.00    +0.000 A 
ATOM     27  C   UNL     1       1.484   2.905  19.994  0.00  0.00    +0.000 A 
ATOM     28  C   UNL     1       1.660   1.851  19.103  0.00  0.00    +0.000 A 
ATOM     29  C   UNL     1       2.282   2.082  17.875  0.00  0.00    +0.000 A 
ATOM     30  C   UNL     1       2.665   3.379  17.521  0.00  0.00    +0.000 A 
ATOM     31  C   UNL     1       2.445   4.468  18.386  0.00  0.00    +0.000 A 
ATOM     32  C   UNL     1       2.750   5.796  18.019  0.00  0.00    +0.000 A 
ENDBRANCH  22  23
ENDBRANCH  21  22
ENDBRANCH   7  21
TORSDOF 6
ENDMDL
MODEL 7
REMARK VINA RESULT:      -7.8      0.788      2.539
REMARK  Name = 
REMARK  8 active torsions:
REMARK  status: ('A' for Active; 'I' for Inactive)
REMARK    1  A    between atoms: C_1  and  O_2
REMARK    2  A    between atoms: O_2  and  C_3
REMARK    3  A    between atoms: C_5  and  O_6
REMARK    4  A    between atoms: O_6  and  C_7
REMARK    5  A    between atoms: C_9  and  C_10
REMARK    6  A    between atoms: C_16  and  C_18
REMARK    7  A    between atoms: C_18  and  O_19
REMARK    8  A    between atoms: O_19  and  C_20
REMARK                            x       y       z     vdW  Elec       q    Type
REMARK                         _______ _______ _______ _____ _____    ______ ____
ROOT
ATOM      1  C   UNL     1       3.380   5.478  19.002  0.00  0.00    +0.000 C 
ATOM      2  O   UNL     1       3.362   4.495  19.744  0.00  0.00    +0.000 OA
ATOM      3  N   UNL     1       2.465   6.520  19.127  0.00  0.00    +0.000 N 
ATOM      4  C   UNL     1       1.596   6.533  20.302  0.00  0.00    +0.000 C 
ATOM      5  C   UNL     1       1.572   7.929  20.933  0.00  0.00    +0.000 C 
ATOM      6  N   UNL     1       1.231   8.965  19.949  0.00  0.00    +0.000 N 
ATOM      7  C   UNL     1       0.395  10.049  20.202  0.00  0.00    +0.000 C 
ATOM      8  O   UNL     1       0.203  10.926  19.354  0.00  0.00    +0.000 OA
ATOM      9  C   UNL     1       2.011   8.924  18.702  0.00  0.00    +0.000 C 
ATOM     10  C   UNL     1       2.070   7.504  18.103  0.00  0.00    +0.000 C 
ENDROOT
BRANCH   1  15
ATOM     11  C   UNL     1       6.371   6.697  17.032  0.00  0.00    +0.000 A 
ATOM     12  C   UNL     1       6.578   5.604  16.188  0.00  0.00    +0.000 A 
ATOM     13  C   UNL     1       5.762   4.469  16.263  0.00  0.00    +0.000 A 
ATOM     14  C   UNL     1       4.706   4.446  17.171  0.00  0.00    +0.000 A 
ATOM     15  C   UNL     1       4.476   5.550  18.004  0.00  0.00    +0.000 A 
ATOM     16  C   UNL     1       5.346   6.642  17.970  0.00  0.00    +0.000 A 
BRANCH  11  18
ATOM     17  C   UNL     1       8.102   8.047  17.945  0.00  0.00    +0.000 C 
ATOM     18  O   UNL     1       7.223   7.755  16.862  0.00  0.00    +0.000 OA
ENDBRANCH  11  18
BRANCH  13  19
ATOM     19  O   UNL     1       6.097   3.462  15.396  0.00  0.00    +0.000 OA
ATOM     20  C   UNL     1       6.145   3.793  14.011  0.00  0.00    +0.000 C 
ENDBRANCH  13  19
ENDBRANCH   1  15
BRANCH   7  21
ATOM     21  C   UNL     1      -0.292  10.137  21.572  0.00  0.00    +0.000 C 
BRANCH  21  22
ATOM     22  O   UNL     1       0.119  11.346  22.196  0.00  0.00    +0.000 OA
BRANCH  22  23
ATOM     23  C   UNL     1      -0.846  12.205  22.643  0.00  0.00    +0.000 A 
ATOM     24  C   UNL     1      -2.032  11.574  23.020  0.00  0.00    +0.000 A 
ATOM     25  C   UNL     1      -3.089  12.301  23.569  0.00  0.00    +0.000 A 
ATOM     26  C   UNL     1      -2.982  13.682  23.752  0.00  0.00    +0.000 A 
ATOM     27  C   UNL     1      -4.008  14.414  24.375  0.00  0.00    +0.000 A 
ATOM     28  C   UNL     1      -3.908  15.792  24.536  0.00  0.00    +0.000 A 
ATOM     29  C   UNL     1      -2.795  16.468  24.032  0.00  0.00    +0.000 A 
ATOM     30  C   UNL     1      -1.759  15.750  23.426  0.00  0.00    +0.000 A 
ATOM     31  C   UNL     1      -1.816  14.349  23.303  0.00  0.00    +0.000 A 
ATOM     32  C   UNL     1      -0.749  13.595  22.769  0.00  0.00    +0.000 A 
ENDBRANCH  22  23
ENDBRANCH  21  22
ENDBRANCH   7  21
TORSDOF 6
ENDMDL
MODEL 8
REMARK VINA RESULT:      -7.7      0.962      2.362
REMARK  Name = 
REMARK  8 active torsions:
REMARK  status: ('A' for Active; 'I' for Inactive)
REMARK    1  A    between atoms: C_1  and  O_2
REMARK    2  A    between atoms: O_2  and  C_3
REMARK    3  A    between atoms: C_5  and  O_6
REMARK    4  A    between atoms: O_6  and  C_7
REMARK    5  A    between atoms: C_9  and  C_10
REMARK    6  A    between atoms: C_16  and  C_18
REMARK    7  A    between atoms: C_18  and  O_19
REMARK    8  A    between atoms: O_19  and  C_20
REMARK                            x       y       z     vdW  Elec       q    Type
REMARK                         _______ _______ _______ _____ _____    ______ ____
ROOT
ATOM      1  C   UNL     1       3.611   5.377  18.769  0.00  0.00    +0.000 C 
ATOM      2  O   UNL     1       3.658   4.449  19.577  0.00  0.00    +0.000 OA
ATOM      3  N   UNL     1       2.679   6.406  18.875  0.00  0.00    +0.000 N 
ATOM      4  C   UNL     1       1.878   6.486  20.095  0.00  0.00    +0.000 C 
ATOM      5  C   UNL     1       1.857   7.922  20.627  0.00  0.00    +0.000 C 
ATOM      6  N   UNL     1       1.435   8.879  19.595  0.00  0.00    +0.000 N 
ATOM      7  C   UNL     1       0.590   9.961  19.821  0.00  0.00    +0.000 C 
ATOM      8  O   UNL     1       0.329  10.771  18.926  0.00  0.00    +0.000 OA
ATOM      9  C   UNL     1       2.144   8.765  18.311  0.00  0.00    +0.000 C 
ATOM     10  C   UNL     1       2.204   7.307  17.810  0.00  0.00    +0.000 C 
ENDROOT
BRANCH   1  15
ATOM     11  C   UNL     1       6.735   6.235  16.815  0.00  0.00    +0.000 A 
ATOM     12  C   UNL     1       6.615   5.343  15.747  0.00  0.00    +0.000 A 
ATOM     13  C   UNL     1       5.535   4.456  15.663  0.00  0.00    +0.000 A 
ATOM     14  C   UNL     1       4.547   4.490  16.645  0.00  0.00    +0.000 A 
ATOM     15  C   UNL     1       4.647   5.400  17.707  0.00  0.00    +0.000 A 
ATOM     16  C   UNL     1       5.770   6.224  17.816  0.00  0.00    +0.000 A 
BRANCH  11  18
ATOM     17  C   UNL     1       7.797   8.186  17.662  0.00  0.00    +0.000 C 
ATOM     18  O   UNL     1       7.825   7.061  16.786  0.00  0.00    +0.000 OA
ENDBRANCH  11  18
BRANCH  13  19
ATOM     19  O   UNL     1       5.560   3.620  14.578  0.00  0.00    +0.000 OA
ATOM     20  C   UNL     1       6.491   3.931  13.546  0.00  0.00    +0.000 C 
ENDBRANCH  13  19
ENDBRANCH   1  15
BRANCH   7  21
ATOM     21  C   UNL     1      -0.022  10.132  21.219  0.00  0.00    +0.000 C 
BRANCH  21  22
ATOM     22  O   UNL     1      -1.160  10.976  21.103  0.00  0.00    +0.000 OA
BRANCH  22  23
ATOM     23  C   UNL     1      -1.232  12.079  21.906  0.00  0.00    +0.000 A 
ATOM     24  C   UNL     1      -0.205  13.000  21.693  0.00  0.00    +0.000 A 
ATOM     25  C   UNL     1      -0.176  14.215  22.379  0.00  0.00    +0.000 A 
ATOM     26  C   UNL     1      -1.178  14.536  23.298  0.00  0.00    +0.000 A 
ATOM     27  C   UNL     1      -1.204  15.787  23.938  0.00  0.00    +0.000 A 
ATOM     28  C   UNL     1      -2.190  16.095  24.869  0.00  0.00    +0.000 A 
ATOM     29  C   UNL     1      -3.142  15.134  25.211  0.00  0.00    +0.000 A 
ATOM     30  C   UNL     1      -3.139  13.891  24.569  0.00  0.00    +0.000 A 
ATOM     31  C   UNL     1      -2.184  13.580  23.584  0.00  0.00    +0.000 A 
ATOM     32  C   UNL     1      -2.208  12.365  22.866  0.00  0.00    +0.000 A 
ENDBRANCH  22  23
ENDBRANCH  21  22
ENDBRANCH   7  21
TORSDOF 6
ENDMDL
MODEL 9
REMARK VINA RESULT:      -7.7      2.714      4.864
REMARK  Name = 
REMARK  8 active torsions:
REMARK  status: ('A' for Active; 'I' for Inactive)
REMARK    1  A    between atoms: C_1  and  O_2
REMARK    2  A    between atoms: O_2  and  C_3
REMARK    3  A    between atoms: C_5  and  O_6
REMARK    4  A    between atoms: O_6  and  C_7
REMARK    5  A    between atoms: C_9  and  C_10
REMARK    6  A    between atoms: C_16  and  C_18
REMARK    7  A    between atoms: C_18  and  O_19
REMARK    8  A    between atoms: O_19  and  C_20
REMARK                            x       y       z     vdW  Elec       q    Type
REMARK                         _______ _______ _______ _____ _____    ______ ____
ROOT
ATOM      1  C   UNL     1       2.333   7.966  18.224  0.00  0.00    +0.000 C 
ATOM      2  O   UNL     1       2.535   8.507  17.136  0.00  0.00    +0.000 OA
ATOM      3  N   UNL     1       1.788   8.653  19.305  0.00  0.00    +0.000 N 
ATOM      4  C   UNL     1       1.254   9.993  19.068  0.00  0.00    +0.000 C 
ATOM      5  C   UNL     1      -0.126  10.140  19.717  0.00  0.00    +0.000 C 
ATOM      6  N   UNL     1      -0.102   9.769  21.138  0.00  0.00    +0.000 N 
ATOM      7  C   UNL     1      -0.784  10.450  22.142  0.00  0.00    +0.000 C 
ATOM      8  O   UNL     1      -0.781  10.047  23.309  0.00  0.00    +0.000 OA
ATOM      9  C   UNL     1       0.524   8.471  21.435  0.00  0.00    +0.000 C 
ATOM     10  C   UNL     1       1.890   8.315  20.736  0.00  0.00    +0.000 C 
ENDROOT
BRANCH   1  15
ATOM     11  C   UNL     1       1.951   4.206  18.068  0.00  0.00    +0.000 A 
ATOM     12  C   UNL     1       3.243   3.807  18.417  0.00  0.00    +0.000 A 
ATOM     13  C   UNL     1       4.241   4.751  18.691  0.00  0.00    +0.000 A 
ATOM     14  C   UNL     1       3.928   6.107  18.646  0.00  0.00    +0.000 A 
ATOM     15  C   UNL     1       2.626   6.514  18.320  0.00  0.00    +0.000 A 
ATOM     16  C   UNL     1       1.664   5.563  17.976  0.00  0.00    +0.000 A 
BRANCH  11  18
ATOM     17  C   UNL     1       0.861   2.259  18.890  0.00  0.00    +0.000 C 
ATOM     18  O   UNL     1       1.056   3.197  17.834  0.00  0.00    +0.000 OA
ENDBRANCH  11  18
BRANCH  13  19
ATOM     19  O   UNL     1       5.467   4.219  18.992  0.00  0.00    +0.000 OA
ATOM     20  C   UNL     1       6.563   4.622  18.176  0.00  0.00    +0.000 C 
ENDBRANCH  13  19
ENDBRANCH   1  15
BRANCH   7  21
ATOM     21  C   UNL     1      -1.550  11.727  21.770  0.00  0.00    +0.000 C 
BRANCH  21  22
ATOM     22  O   UNL     1      -0.770  12.844  22.175  0.00  0.00    +0.000 OA
BRANCH  22  23
ATOM     23  C   UNL     1      -0.115  13.560  21.212  0.00  0.00    +0.000 A 
ATOM     24  C   UNL     1      -0.883  14.578  20.645  0.00  0.00    +0.000 A 
ATOM     25  C   UNL     1      -0.337  15.449  19.701  0.00  0.00    +0.000 A 
ATOM     26  C   UNL     1       0.996  15.318  19.301  0.00  0.00    +0.000 A 
ATOM     27  C   UNL     1       1.580  16.235  18.410  0.00  0.00    +0.000 A 
ATOM     28  C   UNL     1       2.899  16.089  17.996  0.00  0.00    +0.000 A 
ATOM     29  C   UNL     1       3.643  14.992  18.432  0.00  0.00    +0.000 A 
ATOM     30  C   UNL     1       3.080  14.082  19.333  0.00  0.00    +0.000 A 
ATOM     31  C   UNL     1       1.765  14.242  19.807  0.00  0.00    +0.000 A 
ATOM     32  C   UNL     1       1.202  13.384  20.776  0.00  0.00    +0.000 A 
ENDBRANCH  22  23
ENDBRANCH  21  22
ENDBRANCH   7  21
TORSDOF 6
ENDMDL
