MODEL 1
REMARK VINA RESULT:      -8.9      0.000      0.000
REMARK  Name = 
REMARK  8 active torsions:
REMARK  status: ('A' for Active; 'I' for Inactive)
REMARK    1  A    between atoms: C_1  and  O_2
REMARK    2  A    between atoms: O_2  and  C_3
REMARK    3  A    between atoms: C_6  and  C_7
REMARK    4  A    between atoms: C_9  and  S_10
REMARK    5  A    between atoms: S_10  and  N_13
REMARK    6  A    between atoms: N_13  and  C_14
REMARK    7  A    between atoms: C_17  and  C_18
REMARK    8  A    between atoms: C_20  and  C_21
REMARK                            x       y       z     vdW  Elec       q    Type
REMARK                         _______ _______ _______ _____ _____    ______ ____
ROOT
ATOM      1  C   UNL     1       0.682   9.568  20.114  0.00  0.00    +0.000 A 
ATOM      2  C   UNL     1       1.206   8.474  20.799  0.00  0.00    +0.000 A 
ATOM      3  C   UNL     1       2.027   7.559  20.116  0.00  0.00    +0.000 A 
ATOM      4  C   UNL     1       2.330   7.714  18.748  0.00  0.00    +0.000 A 
ATOM      5  C   UNL     1       1.778   8.832  18.095  0.00  0.00    +0.000 A 
ATOM      6  C   UNL     1       0.959   9.742  18.766  0.00  0.00    +0.000 A 
ENDROOT
BRANCH   4   7
ATOM      7  C   UNL     1       3.188   6.753  18.020  0.00  0.00    +0.000 A 
ATOM      8  N   UNL     1       3.083   5.447  18.355  0.00  0.00    +0.000 NA
ATOM      9  C   UNL     1       3.865   4.522  17.730  0.00  0.00    +0.000 A 
ATOM     10  C   UNL     1       4.772   4.967  16.762  0.00  0.00    +0.000 A 
ATOM     11  C   UNL     1       5.775   4.456  15.893  0.00  0.00    +0.000 A 
ATOM     12  N   UNL     1       6.151   3.175  15.791  0.00  0.00    +0.000 N 
ATOM     13  N   UNL     1       6.348   5.411  15.159  0.00  0.00    +0.000 NA
ATOM     14  N   UNL     1       5.727   6.533  15.559  0.00  0.00    +0.000 N 
ATOM     15  C   UNL     1       4.775   6.324  16.510  0.00  0.00    +0.000 A 
ATOM     16  N   UNL     1       4.015   7.264  17.086  0.00  0.00    +0.000 NA
ATOM     17  H   UNL     1       5.558   2.411  16.089  0.00  0.00    +0.000 HD
ATOM     18  H   UNL     1       6.779   2.942  15.028  0.00  0.00    +0.000 HD
ATOM     19  H   UNL     1       6.000   7.420  15.156  0.00  0.00    +0.000 HD
BRANCH   9  20
ATOM     20  C   UNL     1       3.779   3.062  18.058  0.00  0.00    +0.000 C 
ATOM     21  C   UNL     1       2.723   2.542  19.008  0.00  0.00    +0.000 C 
ATOM     22  C   UNL     1       2.601   2.264  17.540  0.00  0.00    +0.000 C 
ENDBRANCH   9  20
ENDBRANCH   4   7
BRANCH   1  23
ATOM     23  N   UNL     1      -0.155  10.529  20.738  0.00  0.00    +0.000 N 
ATOM     24  H   UNL     1      -0.741  10.231  21.518  0.00  0.00    +0.000 HD
BRANCH  23  25
ATOM     25  S   UNL     1       0.340  12.132  20.844  0.00  0.00    +0.000 S 
ATOM     26  O   UNL     1       0.041  12.777  19.581  0.00  0.00    +0.000 OA
ATOM     27  O   UNL     1       1.686  12.124  21.363  0.00  0.00    +0.000 OA
BRANCH  25  32
ATOM     28  C   UNL     1      -2.645  12.654  23.533  0.00  0.00    +0.000 A 
ATOM     29  C   UNL     1      -2.410  13.931  24.032  0.00  0.00    +0.000 A 
ATOM     30  C   UNL     1      -1.331  14.684  23.557  0.00  0.00    +0.000 A 
ATOM     31  C   UNL     1      -0.465  14.168  22.574  0.00  0.00    +0.000 A 
ATOM     32  C   UNL     1      -0.680  12.867  22.099  0.00  0.00    +0.000 A 
ATOM     33  C   UNL     1      -1.779  12.127  22.572  0.00  0.00    +0.000 A 
BRANCH  28  35
ATOM     34  C   UNL     1      -4.709  12.418  24.680  0.00  0.00    +0.000 C 
ATOM     35  O   UNL     1      -3.677  11.835  23.892  0.00  0.00    +0.000 OA
ENDBRANCH  28  35
BRANCH  31  36
ATOM     36  C   UNL     1       0.606  15.002  22.117  0.00  0.00    +0.000 C 
ATOM     37  N   UNL     1       1.429  15.723  21.735  0.00  0.00    +0.000 NA
ENDBRANCH  31  36
ENDBRANCH  25  32
ENDBRANCH  23  25
ENDBRANCH   1  23
TORSDOF 7
ENDMDL
MODEL 2
REMARK VINA RESULT:      -8.6      4.306     10.529
REMARK  Name = 
REMARK  8 active torsions:
REMARK  status: ('A' for Active; 'I' for Inactive)
REMARK    1  A    between atoms: C_1  and  O_2
REMARK    2  A    between atoms: O_2  and  C_3
REMARK    3  A    between atoms: C_6  and  C_7
REMARK    4  A    between atoms: C_9  and  S_10
REMARK    5  A    between atoms: S_10  and  N_13
REMARK    6  A    between atoms: N_13  and  C_14
REMARK    7  A    between atoms: C_17  and  C_18
REMARK    8  A    between atoms: C_20  and  C_21
REMARK                            x       y       z     vdW  Elec       q    Type
REMARK                         _______ _______ _______ _____ _____    ______ ____
ROOT
ATOM      1  C   UNL     1       3.130   6.142  19.388  0.00  0.00    +0.000 A 
ATOM      2  C   UNL     1       3.139   7.101  18.378  0.00  0.00    +0.000 A 
ATOM      3  C   UNL     1       2.320   8.238  18.496  0.00  0.00    +0.000 A 
ATOM      4  C   UNL     1       1.479   8.432  19.611  0.00  0.00    +0.000 A 
ATOM      5  C   UNL     1       1.501   7.438  20.607  0.00  0.00    +0.000 A 
ATOM      6  C   UNL     1       2.309   6.305  20.494  0.00  0.00    +0.000 A 
ENDROOT
BRANCH   4   7
ATOM      7  C   UNL     1       0.609   9.622  19.741  0.00  0.00    +0.000 A 
ATOM      8  N   UNL     1      -0.197   9.921  18.697  0.00  0.00    +0.000 NA
ATOM      9  C   UNL     1      -1.003  11.018  18.756  0.00  0.00    +0.000 A 
ATOM     10  C   UNL     1      -0.955  11.816  19.905  0.00  0.00    +0.000 A 
ATOM     11  C   UNL     1      -1.527  13.007  20.430  0.00  0.00    +0.000 A 
ATOM     12  N   UNL     1      -2.419  13.791  19.810  0.00  0.00    +0.000 N 
ATOM     13  N   UNL     1      -1.068  13.301  21.646  0.00  0.00    +0.000 NA
ATOM     14  N   UNL     1      -0.196  12.310  21.903  0.00  0.00    +0.000 N 
ATOM     15  C   UNL     1      -0.094  11.396  20.900  0.00  0.00    +0.000 A 
ATOM     16  N   UNL     1       0.702  10.319  20.892  0.00  0.00    +0.000 NA
ATOM     17  H   UNL     1      -2.999  13.457  19.052  0.00  0.00    +0.000 HD
ATOM     18  H   UNL     1      -2.842  14.528  20.365  0.00  0.00    +0.000 HD
ATOM     19  H   UNL     1       0.312  12.314  22.778  0.00  0.00    +0.000 HD
BRANCH   9  20
ATOM     20  C   UNL     1      -1.922  11.386  17.630  0.00  0.00    +0.000 C 
ATOM     21  C   UNL     1      -2.379  10.347  16.631  0.00  0.00    +0.000 C 
ATOM     22  C   UNL     1      -3.345  10.872  17.649  0.00  0.00    +0.000 C 
ENDBRANCH   9  20
ENDBRANCH   4   7
BRANCH   1  23
ATOM     23  N   UNL     1       3.928   4.970  19.334  0.00  0.00    +0.000 N 
ATOM     24  H   UNL     1       4.204   4.528  20.211  0.00  0.00    +0.000 HD
BRANCH  23  25
ATOM     25  S   UNL     1       3.741   3.883  18.065  0.00  0.00    +0.000 S 
ATOM     26  O   UNL     1       2.452   4.132  17.451  0.00  0.00    +0.000 OA
ATOM     27  O   UNL     1       4.069   2.576  18.579  0.00  0.00    +0.000 OA
BRANCH  25  32
ATOM     28  C   UNL     1       5.722   4.286  14.555  0.00  0.00    +0.000 A 
ATOM     29  C   UNL     1       6.942   4.838  14.934  0.00  0.00    +0.000 A 
ATOM     30  C   UNL     1       7.205   5.101  16.283  0.00  0.00    +0.000 A 
ATOM     31  C   UNL     1       6.249   4.817  17.276  0.00  0.00    +0.000 A 
ATOM     32  C   UNL     1       5.007   4.296  16.890  0.00  0.00    +0.000 A 
ATOM     33  C   UNL     1       4.760   4.020  15.532  0.00  0.00    +0.000 A 
BRANCH  28  35
ATOM     34  C   UNL     1       6.385   3.456  12.433  0.00  0.00    +0.000 C 
ATOM     35  O   UNL     1       5.358   3.957  13.280  0.00  0.00    +0.000 OA
ENDBRANCH  28  35
BRANCH  31  36
ATOM     36  C   UNL     1       6.595   5.091  18.638  0.00  0.00    +0.000 C 
ATOM     37  N   UNL     1       6.911   5.259  19.741  0.00  0.00    +0.000 NA
ENDBRANCH  31  36
ENDBRANCH  25  32
ENDBRANCH  23  25
ENDBRANCH   1  23
TORSDOF 7
ENDMDL
MODEL 3
REMARK VINA RESULT:      -8.6      1.371      1.646
REMARK  Name = 
REMARK  8 active torsions:
REMARK  status: ('A' for Active; 'I' for Inactive)
REMARK    1  A    between atoms: C_1  and  O_2
REMARK    2  A    between atoms: O_2  and  C_3
REMARK    3  A    between atoms: C_6  and  C_7
REMARK    4  A    between atoms: C_9  and  S_10
REMARK    5  A    between atoms: S_10  and  N_13
REMARK    6  A    between atoms: N_13  and  C_14
REMARK    7  A    between atoms: C_17  and  C_18
REMARK    8  A    between atoms: C_20  and  C_21
REMARK                            x       y       z     vdW  Elec       q    Type
REMARK                         _______ _______ _______ _____ _____    ______ ____
ROOT
ATOM      1  C   UNL     1       0.527   9.597  19.935  0.00  0.00    +0.000 A 
ATOM      2  C   UNL     1       1.078   8.546  20.663  0.00  0.00    +0.000 A 
ATOM      3  C   UNL     1       1.938   7.636  20.023  0.00  0.00    +0.000 A 
ATOM      4  C   UNL     1       2.253   7.754  18.654  0.00  0.00    +0.000 A 
ATOM      5  C   UNL     1       1.673   8.829  17.955  0.00  0.00    +0.000 A 
ATOM      6  C   UNL     1       0.815   9.733  18.584  0.00  0.00    +0.000 A 
ENDROOT
BRANCH   4   7
ATOM      7  C   UNL     1       3.152   6.797  17.970  0.00  0.00    +0.000 A 
ATOM      8  N   UNL     1       3.052   5.493  18.315  0.00  0.00    +0.000 NA
ATOM      9  C   UNL     1       3.870   4.573  17.731  0.00  0.00    +0.000 A 
ATOM     10  C   UNL     1       4.809   5.021  16.794  0.00  0.00    +0.000 A 
ATOM     11  C   UNL     1       5.852   4.516  15.971  0.00  0.00    +0.000 A 
ATOM     12  N   UNL     1       6.249   3.238  15.898  0.00  0.00    +0.000 N 
ATOM     13  N   UNL     1       6.441   5.470  15.250  0.00  0.00    +0.000 NA
ATOM     14  N   UNL     1       5.788   6.588  15.614  0.00  0.00    +0.000 N 
ATOM     15  C   UNL     1       4.803   6.375  16.529  0.00  0.00    +0.000 A 
ATOM     16  N   UNL     1       4.008   7.311  17.064  0.00  0.00    +0.000 NA
ATOM     17  H   UNL     1       5.655   2.470  16.180  0.00  0.00    +0.000 HD
ATOM     18  H   UNL     1       6.909   3.007  15.162  0.00  0.00    +0.000 HD
ATOM     19  H   UNL     1       6.066   7.475  15.212  0.00  0.00    +0.000 HD
BRANCH   9  20
ATOM     20  C   UNL     1       3.791   3.115  18.071  0.00  0.00    +0.000 C 
ATOM     21  C   UNL     1       2.712   2.592  18.993  0.00  0.00    +0.000 C 
ATOM     22  C   UNL     1       2.639   2.298  17.525  0.00  0.00    +0.000 C 
ENDBRANCH   9  20
ENDBRANCH   4   7
BRANCH   1  23
ATOM     23  N   UNL     1      -0.350  10.551  20.514  0.00  0.00    +0.000 N 
ATOM     24  H   UNL     1      -1.340  10.317  20.592  0.00  0.00    +0.000 HD
BRANCH  23  25
ATOM     25  S   UNL     1       0.199  11.562  21.740  0.00  0.00    +0.000 S 
ATOM     26  O   UNL     1       1.465  12.128  21.318  0.00  0.00    +0.000 OA
ATOM     27  O   UNL     1       0.102  10.820  22.973  0.00  0.00    +0.000 OA
BRANCH  25  32
ATOM     28  C   UNL     1      -2.512  14.158  23.262  0.00  0.00    +0.000 A 
ATOM     29  C   UNL     1      -2.925  14.884  22.149  0.00  0.00    +0.000 A 
ATOM     30  C   UNL     1      -2.392  14.598  20.887  0.00  0.00    +0.000 A 
ATOM     31  C   UNL     1      -1.432  13.582  20.719  0.00  0.00    +0.000 A 
ATOM     32  C   UNL     1      -0.990  12.876  21.846  0.00  0.00    +0.000 A 
ATOM     33  C   UNL     1      -1.546  13.161  23.107  0.00  0.00    +0.000 A 
BRANCH  28  35
ATOM     34  C   UNL     1      -3.530  15.592  24.856  0.00  0.00    +0.000 C 
ATOM     35  O   UNL     1      -2.977  14.320  24.536  0.00  0.00    +0.000 OA
ENDBRANCH  28  35
BRANCH  31  36
ATOM     36  C   UNL     1      -0.947  13.329  19.396  0.00  0.00    +0.000 C 
ATOM     37  N   UNL     1      -0.608  13.090  18.313  0.00  0.00    +0.000 NA
ENDBRANCH  31  36
ENDBRANCH  25  32
ENDBRANCH  23  25
ENDBRANCH   1  23
TORSDOF 7
ENDMDL
MODEL 4
REMARK VINA RESULT:      -8.5      3.221      4.955
REMARK  Name = 
REMARK  8 active torsions:
REMARK  status: ('A' for Active; 'I' for Inactive)
REMARK    1  A    between atoms: C_1  and  O_2
REMARK    2  A    between atoms: O_2  and  C_3
REMARK    3  A    between atoms: C_6  and  C_7
REMARK    4  A    between atoms: C_9  and  S_10
REMARK    5  A    between atoms: S_10  and  N_13
REMARK    6  A    between atoms: N_13  and  C_14
REMARK    7  A    between atoms: C_17  and  C_18
REMARK    8  A    between atoms: C_20  and  C_21
REMARK                            x       y       z     vdW  Elec       q    Type
REMARK                         _______ _______ _______ _____ _____    ______ ____
ROOT
ATOM      1  C   UNL     1       0.862  10.458  19.054  0.00  0.00    +0.000 A 
ATOM      2  C   UNL     1       0.771   9.810  20.283  0.00  0.00    +0.000 A 
ATOM      3  C   UNL     1       1.334   8.530  20.433  0.00  0.00    +0.000 A 
ATOM      4  C   UNL     1       1.986   7.879  19.367  0.00  0.00    +0.000 A 
ATOM      5  C   UNL     1       2.054   8.569  18.142  0.00  0.00    +0.000 A 
ATOM      6  C   UNL     1       1.493   9.838  17.985  0.00  0.00    +0.000 A 
ENDROOT
BRANCH   4   7
ATOM      7  C   UNL     1       2.577   6.529  19.514  0.00  0.00    +0.000 A 
ATOM      8  N   UNL     1       3.564   6.185  18.655  0.00  0.00    +0.000 NA
ATOM      9  C   UNL     1       4.129   4.947  18.733  0.00  0.00    +0.000 A 
ATOM     10  C   UNL     1       3.650   4.060  19.704  0.00  0.00    +0.000 A 
ATOM     11  C   UNL     1       3.856   2.729  20.159  0.00  0.00    +0.000 A 
ATOM     12  N   UNL     1       4.731   1.851  19.653  0.00  0.00    +0.000 N 
ATOM     13  N   UNL     1       3.054   2.408  21.175  0.00  0.00    +0.000 NA
ATOM     14  N   UNL     1       2.327   3.522  21.368  0.00  0.00    +0.000 N 
ATOM     15  C   UNL     1       2.645   4.539  20.520  0.00  0.00    +0.000 A 
ATOM     16  N   UNL     1       2.073   5.749  20.491  0.00  0.00    +0.000 NA
ATOM     17  H   UNL     1       5.536   2.138  19.113  0.00  0.00    +0.000 HD
ATOM     18  H   UNL     1       4.864   0.989  20.173  0.00  0.00    +0.000 HD
ATOM     19  H   UNL     1       1.616   3.529  22.089  0.00  0.00    +0.000 HD
BRANCH   9  20
ATOM     20  C   UNL     1       5.232   4.522  17.811  0.00  0.00    +0.000 C 
ATOM     21  C   UNL     1       5.940   5.529  16.933  0.00  0.00    +0.000 C 
ATOM     22  C   UNL     1       6.650   4.952  18.120  0.00  0.00    +0.000 C 
ENDBRANCH   9  20
ENDBRANCH   4   7
BRANCH   1  23
ATOM     23  N   UNL     1       0.314  11.748  18.829  0.00  0.00    +0.000 N 
ATOM     24  H   UNL     1       0.426  12.170  17.907  0.00  0.00    +0.000 HD
BRANCH  23  25
ATOM     25  S   UNL     1      -1.100  12.209  19.611  0.00  0.00    +0.000 S 
ATOM     26  O   UNL     1      -1.120  13.657  19.683  0.00  0.00    +0.000 OA
ATOM     27  O   UNL     1      -1.196  11.414  20.811  0.00  0.00    +0.000 OA
BRANCH  25  32
ATOM     28  C   UNL     1      -3.081  10.636  16.448  0.00  0.00    +0.000 A 
ATOM     29  C   UNL     1      -4.418  10.864  16.758  0.00  0.00    +0.000 A 
ATOM     30  C   UNL     1      -4.762  11.517  17.946  0.00  0.00    +0.000 A 
ATOM     31  C   UNL     1      -3.770  11.950  18.848  0.00  0.00    +0.000 A 
ATOM     32  C   UNL     1      -2.427  11.686  18.553  0.00  0.00    +0.000 A 
ATOM     33  C   UNL     1      -2.092  11.044  17.346  0.00  0.00    +0.000 A 
BRANCH  28  35
ATOM     34  C   UNL     1      -3.432  10.159  14.149  0.00  0.00    +0.000 C 
ATOM     35  O   UNL     1      -2.617  10.039  15.310  0.00  0.00    +0.000 OA
ENDBRANCH  28  35
BRANCH  31  36
ATOM     36  C   UNL     1      -4.193  12.632  20.034  0.00  0.00    +0.000 C 
ATOM     37  N   UNL     1      -4.474  13.186  21.012  0.00  0.00    +0.000 NA
ENDBRANCH  31  36
ENDBRANCH  25  32
ENDBRANCH  23  25
ENDBRANCH   1  23
TORSDOF 7
ENDMDL
MODEL 5
REMARK VINA RESULT:      -8.5      1.598      2.200
REMARK  Name = 
REMARK  8 active torsions:
REMARK  status: ('A' for Active; 'I' for Inactive)
REMARK    1  A    between atoms: C_1  and  O_2
REMARK    2  A    between atoms: O_2  and  C_3
REMARK    3  A    between atoms: C_6  and  C_7
REMARK    4  A    between atoms: C_9  and  S_10
REMARK    5  A    between atoms: S_10  and  N_13
REMARK    6  A    between atoms: N_13  and  C_14
REMARK    7  A    between atoms: C_17  and  C_18
REMARK    8  A    between atoms: C_20  and  C_21
REMARK                            x       y       z     vdW  Elec       q    Type
REMARK                         _______ _______ _______ _____ _____    ______ ____
ROOT
ATOM      1  C   UNL     1       0.603   9.693  19.670  0.00  0.00    +0.000 A 
ATOM      2  C   UNL     1       1.172   8.684  20.442  0.00  0.00    +0.000 A 
ATOM      3  C   UNL     1       2.047   7.762  19.840  0.00  0.00    +0.000 A 
ATOM      4  C   UNL     1       2.360   7.827  18.468  0.00  0.00    +0.000 A 
ATOM      5  C   UNL     1       1.761   8.862  17.724  0.00  0.00    +0.000 A 
ATOM      6  C   UNL     1       0.889   9.777  18.315  0.00  0.00    +0.000 A 
ENDROOT
BRANCH   4   7
ATOM      7  C   UNL     1       3.275   6.858  17.824  0.00  0.00    +0.000 A 
ATOM      8  N   UNL     1       2.877   5.566  17.771  0.00  0.00    +0.000 NA
ATOM      9  C   UNL     1       3.690   4.629  17.208  0.00  0.00    +0.000 A 
ATOM     10  C   UNL     1       4.932   5.041  16.712  0.00  0.00    +0.000 A 
ATOM     11  C   UNL     1       6.093   4.499  16.097  0.00  0.00    +0.000 A 
ATOM     12  N   UNL     1       6.297   3.209  15.799  0.00  0.00    +0.000 N 
ATOM     13  N   UNL     1       7.015   5.427  15.840  0.00  0.00    +0.000 NA
ATOM     14  N   UNL     1       6.457   6.562  16.297  0.00  0.00    +0.000 N 
ATOM     15  C   UNL     1       5.213   6.388  16.822  0.00  0.00    +0.000 A 
ATOM     16  N   UNL     1       4.440   7.345  17.351  0.00  0.00    +0.000 NA
ATOM     17  H   UNL     1       5.537   2.550  15.697  0.00  0.00    +0.000 HD
ATOM     18  H   UNL     1       7.113   2.994  15.234  0.00  0.00    +0.000 HD
ATOM     19  H   UNL     1       6.976   7.428  16.233  0.00  0.00    +0.000 HD
BRANCH   9  20
ATOM     20  C   UNL     1       3.290   3.187  17.116  0.00  0.00    +0.000 C 
ATOM     21  C   UNL     1       3.622   2.218  18.229  0.00  0.00    +0.000 C 
ATOM     22  C   UNL     1       2.206   2.669  18.036  0.00  0.00    +0.000 C 
ENDBRANCH   9  20
ENDBRANCH   4   7
BRANCH   1  23
ATOM     23  N   UNL     1      -0.290  10.656  20.210  0.00  0.00    +0.000 N 
ATOM     24  H   UNL     1      -0.987  10.347  20.887  0.00  0.00    +0.000 HD
BRANCH  23  25
ATOM     25  S   UNL     1       0.224  12.238  20.449  0.00  0.00    +0.000 S 
ATOM     26  O   UNL     1       0.188  12.918  19.170  0.00  0.00    +0.000 OA
ATOM     27  O   UNL     1       1.448  12.173  21.210  0.00  0.00    +0.000 OA
BRANCH  25  32
ATOM     28  C   UNL     1      -2.378  14.933  21.989  0.00  0.00    +0.000 A 
ATOM     29  C   UNL     1      -2.861  14.301  23.130  0.00  0.00    +0.000 A 
ATOM     30  C   UNL     1      -2.399  13.026  23.475  0.00  0.00    +0.000 A 
ATOM     31  C   UNL     1      -1.448  12.360  22.679  0.00  0.00    +0.000 A 
ATOM     32  C   UNL     1      -0.990  12.982  21.510  0.00  0.00    +0.000 A 
ATOM     33  C   UNL     1      -1.449  14.272  21.182  0.00  0.00    +0.000 A 
BRANCH  28  35
ATOM     34  C   UNL     1      -1.999  16.706  20.457  0.00  0.00    +0.000 C 
ATOM     35  O   UNL     1      -2.726  16.184  21.563  0.00  0.00    +0.000 OA
ENDBRANCH  28  35
BRANCH  31  36
ATOM     36  C   UNL     1      -1.003  11.067  23.104  0.00  0.00    +0.000 C 
ATOM     37  N   UNL     1      -0.594  10.026  23.408  0.00  0.00    +0.000 NA
ENDBRANCH  31  36
ENDBRANCH  25  32
ENDBRANCH  23  25
ENDBRANCH   1  23
TORSDOF 7
ENDMDL
MODEL 6
REMARK VINA RESULT:      -8.4      1.436      1.951
REMARK  Name = 
REMARK  8 active torsions:
REMARK  status: ('A' for Active; 'I' for Inactive)
REMARK    1  A    between atoms: C_1  and  O_2
REMARK    2  A    between atoms: O_2  and  C_3
REMARK    3  A    between atoms: C_6  and  C_7
REMARK    4  A    between atoms: C_9  and  S_10
REMARK    5  A    between atoms: S_10  and  N_13
REMARK    6  A    between atoms: N_13  and  C_14
REMARK    7  A    between atoms: C_17  and  C_18
REMARK    8  A    between atoms: C_20  and  C_21
REMARK                            x       y       z     vdW  Elec       q    Type
REMARK                         _______ _______ _______ _____ _____    ______ ____
ROOT
ATOM      1  C   UNL     1       0.637   9.601  20.062  0.00  0.00    +0.000 A 
ATOM      2  C   UNL     1       1.118   8.486  20.743  0.00  0.00    +0.000 A 
ATOM      3  C   UNL     1       1.949   7.570  20.073  0.00  0.00    +0.000 A 
ATOM      4  C   UNL     1       2.304   7.747  18.720  0.00  0.00    +0.000 A 
ATOM      5  C   UNL     1       1.795   8.886  18.070  0.00  0.00    +0.000 A 
ATOM      6  C   UNL     1       0.967   9.797  18.729  0.00  0.00    +0.000 A 
ENDROOT
BRANCH   4   7
ATOM      7  C   UNL     1       3.173   6.785  18.005  0.00  0.00    +0.000 A 
ATOM      8  N   UNL     1       3.033   5.475  18.308  0.00  0.00    +0.000 NA
ATOM      9  C   UNL     1       3.822   4.549  17.694  0.00  0.00    +0.000 A 
ATOM     10  C   UNL     1       4.773   4.997  16.769  0.00  0.00    +0.000 A 
ATOM     11  C   UNL     1       5.798   4.487  15.928  0.00  0.00    +0.000 A 
ATOM     12  N   UNL     1       6.156   3.201  15.814  0.00  0.00    +0.000 N 
ATOM     13  N   UNL     1       6.415   5.445  15.236  0.00  0.00    +0.000 NA
ATOM     14  N   UNL     1       5.797   6.570  15.636  0.00  0.00    +0.000 N 
ATOM     15  C   UNL     1       4.807   6.359  16.547  0.00  0.00    +0.000 A 
ATOM     16  N   UNL     1       4.042   7.301  17.113  0.00  0.00    +0.000 NA
ATOM     17  H   UNL     1       5.540   2.442  16.074  0.00  0.00    +0.000 HD
ATOM     18  H   UNL     1       6.808   2.973  15.070  0.00  0.00    +0.000 HD
ATOM     19  H   UNL     1       6.101   7.460  15.262  0.00  0.00    +0.000 HD
BRANCH   9  20
ATOM     20  C   UNL     1       3.699   3.084  17.988  0.00  0.00    +0.000 C 
ATOM     21  C   UNL     1       2.807   2.591  19.105  0.00  0.00    +0.000 C 
ATOM     22  C   UNL     1       2.393   2.383  17.680  0.00  0.00    +0.000 C 
ENDBRANCH   9  20
ENDBRANCH   4   7
BRANCH   1  23
ATOM     23  N   UNL     1      -0.207  10.564  20.674  0.00  0.00    +0.000 N 
ATOM     24  H   UNL     1      -0.689  10.311  21.536  0.00  0.00    +0.000 HD
BRANCH  23  25
ATOM     25  S   UNL     1       0.171  12.199  20.572  0.00  0.00    +0.000 S 
ATOM     26  O   UNL     1      -0.007  12.613  19.194  0.00  0.00    +0.000 OA
ATOM     27  O   UNL     1       1.440  12.380  21.234  0.00  0.00    +0.000 OA
BRANCH  25  32
ATOM     28  C   UNL     1      -1.516  14.270  23.616  0.00  0.00    +0.000 A 
ATOM     29  C   UNL     1      -2.859  14.333  23.259  0.00  0.00    +0.000 A 
ATOM     30  C   UNL     1      -3.299  13.735  22.073  0.00  0.00    +0.000 A 
ATOM     31  C   UNL     1      -2.399  13.066  21.222  0.00  0.00    +0.000 A 
ATOM     32  C   UNL     1      -1.041  13.035  21.564  0.00  0.00    +0.000 A 
ATOM     33  C   UNL     1      -0.613  13.625  22.768  0.00  0.00    +0.000 A 
BRANCH  28  35
ATOM     34  C   UNL     1      -1.869  15.397  25.675  0.00  0.00    +0.000 C 
ATOM     35  O   UNL     1      -0.970  14.786  24.757  0.00  0.00    +0.000 OA
ENDBRANCH  28  35
BRANCH  31  36
ATOM     36  C   UNL     1      -2.923  12.457  20.036  0.00  0.00    +0.000 C 
ATOM     37  N   UNL     1      -3.403  11.994  19.088  0.00  0.00    +0.000 NA
ENDBRANCH  31  36
ENDBRANCH  25  32
ENDBRANCH  23  25
ENDBRANCH   1  23
TORSDOF 7
ENDMDL
MODEL 7
REMARK VINA RESULT:      -8.4      4.190     10.487
REMARK  Name = 
REMARK  8 active torsions:
REMARK  status: ('A' for Active; 'I' for Inactive)
REMARK    1  A    between atoms: C_1  and  O_2
REMARK    2  A    between atoms: O_2  and  C_3
REMARK    3  A    between atoms: C_6  and  C_7
REMARK    4  A    between atoms: C_9  and  S_10
REMARK    5  A    between atoms: S_10  and  N_13
REMARK    6  A    between atoms: N_13  and  C_14
REMARK    7  A    between atoms: C_17  and  C_18
REMARK    8  A    between atoms: C_20  and  C_21
REMARK                            x       y       z     vdW  Elec       q    Type
REMARK                         _______ _______ _______ _____ _____    ______ ____
ROOT
ATOM      1  C   UNL     1       3.161   6.031  19.251  0.00  0.00    +0.000 A 
ATOM      2  C   UNL     1       3.184   6.910  18.172  0.00  0.00    +0.000 A 
ATOM      3  C   UNL     1       2.493   8.132  18.259  0.00  0.00    +0.000 A 
ATOM      4  C   UNL     1       1.767   8.490  19.413  0.00  0.00    +0.000 A 
ATOM      5  C   UNL     1       1.769   7.572  20.480  0.00  0.00    +0.000 A 
ATOM      6  C   UNL     1       2.450   6.356  20.398  0.00  0.00    +0.000 A 
ENDROOT
BRANCH   4   7
ATOM      7  C   UNL     1       1.032   9.772  19.512  0.00  0.00    +0.000 A 
ATOM      8  N   UNL     1       0.166   9.914  20.541  0.00  0.00    +0.000 NA
ATOM      9  C   UNL     1      -0.552  11.065  20.669  0.00  0.00    +0.000 A 
ATOM     10  C   UNL     1      -0.376  12.066  19.706  0.00  0.00    +0.000 A 
ATOM     11  C   UNL     1      -0.867  13.358  19.376  0.00  0.00    +0.000 A 
ATOM     12  N   UNL     1      -1.803  14.041  20.050  0.00  0.00    +0.000 N 
ATOM     13  N   UNL     1      -0.301  13.854  18.275  0.00  0.00    +0.000 NA
ATOM     14  N   UNL     1       0.545  12.883  17.891  0.00  0.00    +0.000 N 
ATOM     15  C   UNL     1       0.543  11.796  18.711  0.00  0.00    +0.000 A 
ATOM     16  N   UNL     1       1.281  10.690  18.557  0.00  0.00    +0.000 NA
ATOM     17  H   UNL     1      -2.024  13.845  21.017  0.00  0.00    +0.000 HD
ATOM     18  H   UNL     1      -1.948  15.007  19.776  0.00  0.00    +0.000 HD
ATOM     19  H   UNL     1       1.094  13.010  17.050  0.00  0.00    +0.000 HD
BRANCH   9  20
ATOM     20  C   UNL     1      -1.517  11.276  21.797  0.00  0.00    +0.000 C 
ATOM     21  C   UNL     1      -1.238  10.708  23.170  0.00  0.00    +0.000 C 
ATOM     22  C   UNL     1      -1.118  12.184  22.940  0.00  0.00    +0.000 C 
ENDBRANCH   9  20
ENDBRANCH   4   7
BRANCH   1  23
ATOM     23  N   UNL     1       3.833   4.781  19.232  0.00  0.00    +0.000 N 
ATOM     24  H   UNL     1       3.973   4.291  20.116  0.00  0.00    +0.000 HD
BRANCH  23  25
ATOM     25  S   UNL     1       3.657   3.752  17.915  0.00  0.00    +0.000 S 
ATOM     26  O   UNL     1       2.392   4.058  17.275  0.00  0.00    +0.000 OA
ATOM     27  O   UNL     1       3.938   2.417  18.382  0.00  0.00    +0.000 OA
BRANCH  25  32
ATOM     28  C   UNL     1       5.768   4.203  14.487  0.00  0.00    +0.000 A 
ATOM     29  C   UNL     1       6.972   4.751  14.919  0.00  0.00    +0.000 A 
ATOM     30  C   UNL     1       7.184   4.996  16.280  0.00  0.00    +0.000 A 
ATOM     31  C   UNL     1       6.191   4.698  17.233  0.00  0.00    +0.000 A 
ATOM     32  C   UNL     1       4.965   4.181  16.793  0.00  0.00    +0.000 A 
ATOM     33  C   UNL     1       4.770   3.924  15.424  0.00  0.00    +0.000 A 
BRANCH  28  35
ATOM     34  C   UNL     1       6.540   3.606  12.323  0.00  0.00    +0.000 C 
ATOM     35  O   UNL     1       5.452   3.891  13.195  0.00  0.00    +0.000 OA
ENDBRANCH  28  35
BRANCH  31  36
ATOM     36  C   UNL     1       6.485   4.954  18.610  0.00  0.00    +0.000 C 
ATOM     37  N   UNL     1       6.732   5.097  19.734  0.00  0.00    +0.000 NA
ENDBRANCH  31  36
ENDBRANCH  25  32
ENDBRANCH  23  25
ENDBRANCH   1  23
TORSDOF 7
ENDMDL
MODEL 8
REMARK VINA RESULT:      -8.4      2.665      4.159
REMARK  Name = 
REMARK  8 active torsions:
REMARK  status: ('A' for Active; 'I' for Inactive)
REMARK    1  A    between atoms: C_1  and  O_2
REMARK    2  A    between atoms: O_2  and  C_3
REMARK    3  A    between atoms: C_6  and  C_7
REMARK    4  A    between atoms: C_9  and  S_10
REMARK    5  A    between atoms: S_10  and  N_13
REMARK    6  A    between atoms: N_13  and  C_14
REMARK    7  A    between atoms: C_17  and  C_18
REMARK    8  A    between atoms: C_20  and  C_21
REMARK                            x       y       z     vdW  Elec       q    Type
REMARK                         _______ _______ _______ _____ _____    ______ ____
ROOT
ATOM      1  C   UNL     1       0.647  10.171  19.584  0.00  0.00    +0.000 A 
ATOM      2  C   UNL     1       1.356   9.689  18.487  0.00  0.00    +0.000 A 
ATOM      3  C   UNL     1       1.978   8.430  18.564  0.00  0.00    +0.000 A 
ATOM      4  C   UNL     1       1.910   7.642  19.730  0.00  0.00    +0.000 A 
ATOM      5  C   UNL     1       1.185   8.168  20.816  0.00  0.00    +0.000 A 
ATOM      6  C   UNL     1       0.569   9.419  20.747  0.00  0.00    +0.000 A 
ENDROOT
BRANCH   4   7
ATOM      7  C   UNL     1       2.567   6.318  19.822  0.00  0.00    +0.000 A 
ATOM      8  N   UNL     1       3.562   6.055  18.945  0.00  0.00    +0.000 NA
ATOM      9  C   UNL     1       4.187   4.844  18.973  0.00  0.00    +0.000 A 
ATOM     10  C   UNL     1       3.758   3.898  19.911  0.00  0.00    +0.000 A 
ATOM     11  C   UNL     1       4.031   2.563  20.314  0.00  0.00    +0.000 A 
ATOM     12  N   UNL     1       4.944   1.747  19.770  0.00  0.00    +0.000 N 
ATOM     13  N   UNL     1       3.254   2.165  21.321  0.00  0.00    +0.000 NA
ATOM     14  N   UNL     1       2.475   3.234  21.562  0.00  0.00    +0.000 N 
ATOM     15  C   UNL     1       2.738   4.296  20.751  0.00  0.00    +0.000 A 
ATOM     16  N   UNL     1       2.108   5.478  20.771  0.00  0.00    +0.000 NA
ATOM     17  H   UNL     1       5.730   2.094  19.236  0.00  0.00    +0.000 HD
ATOM     18  H   UNL     1       5.122   0.873  20.255  0.00  0.00    +0.000 HD
ATOM     19  H   UNL     1       1.771   3.180  22.286  0.00  0.00    +0.000 HD
BRANCH   9  20
ATOM     20  C   UNL     1       5.302   4.507  18.029  0.00  0.00    +0.000 C 
ATOM     21  C   UNL     1       5.929   5.573  17.158  0.00  0.00    +0.000 C 
ATOM     22  C   UNL     1       6.693   5.025  18.325  0.00  0.00    +0.000 C 
ENDBRANCH   9  20
ENDBRANCH   4   7
BRANCH   1  23
ATOM     23  N   UNL     1      -0.003  11.433  19.578  0.00  0.00    +0.000 N 
ATOM     24  H   UNL     1       0.566  12.274  19.667  0.00  0.00    +0.000 HD
BRANCH  23  25
ATOM     25  S   UNL     1      -1.394  11.658  18.662  0.00  0.00    +0.000 S 
ATOM     26  O   UNL     1      -1.784  10.371  18.118  0.00  0.00    +0.000 OA
ATOM     27  O   UNL     1      -1.147  12.778  17.788  0.00  0.00    +0.000 OA
BRANCH  25  32
ATOM     28  C   UNL     1      -3.181  12.872  22.088  0.00  0.00    +0.000 A 
ATOM     29  C   UNL     1      -4.526  12.955  21.739  0.00  0.00    +0.000 A 
ATOM     30  C   UNL     1      -4.936  12.633  20.441  0.00  0.00    +0.000 A 
ATOM     31  C   UNL     1      -4.004  12.226  19.467  0.00  0.00    +0.000 A 
ATOM     32  C   UNL     1      -2.646  12.179  19.809  0.00  0.00    +0.000 A 
ATOM     33  C   UNL     1      -2.248  12.488  21.122  0.00  0.00    +0.000 A 
BRANCH  28  35
ATOM     34  C   UNL     1      -1.294  13.521  23.373  0.00  0.00    +0.000 C 
ATOM     35  O   UNL     1      -2.661  13.130  23.325  0.00  0.00    +0.000 OA
ENDBRANCH  28  35
BRANCH  31  36
ATOM     36  C   UNL     1      -4.497  11.890  18.165  0.00  0.00    +0.000 C 
ATOM     37  N   UNL     1      -4.871  11.559  17.119  0.00  0.00    +0.000 NA
ENDBRANCH  31  36
ENDBRANCH  25  32
ENDBRANCH  23  25
ENDBRANCH   1  23
TORSDOF 7
ENDMDL
MODEL 9
REMARK VINA RESULT:      -8.3      4.004     10.736
REMARK  Name = 
REMARK  8 active torsions:
REMARK  status: ('A' for Active; 'I' for Inactive)
REMARK    1  A    between atoms: C_1  and  O_2
REMARK    2  A    between atoms: O_2  and  C_3
REMARK    3  A    between atoms: C_6  and  C_7
REMARK    4  A    between atoms: C_9  and  S_10
REMARK    5  A    between atoms: S_10  and  N_13
REMARK    6  A    between atoms: N_13  and  C_14
REMARK    7  A    between atoms: C_17  and  C_18
REMARK    8  A    between atoms: C_20  and  C_21
REMARK                            x       y       z     vdW  Elec       q    Type
REMARK                         _______ _______ _______ _____ _____    ______ ____
ROOT
ATOM      1  C   UNL     1       2.525   6.074  18.812  0.00  0.00    +0.000 A 
ATOM      2  C   UNL     1       2.502   7.242  18.054  0.00  0.00    +0.000 A 
ATOM      3  C   UNL     1       1.956   8.415  18.606  0.00  0.00    +0.000 A 
ATOM      4  C   UNL     1       1.421   8.438  19.910  0.00  0.00    +0.000 A 
ATOM      5  C   UNL     1       1.462   7.236  20.640  0.00  0.00    +0.000 A 
ATOM      6  C   UNL     1       1.999   6.068  20.096  0.00  0.00    +0.000 A 
ENDROOT
BRANCH   4   7
ATOM      7  C   UNL     1       0.839   9.666  20.498  0.00  0.00    +0.000 A 
ATOM      8  N   UNL     1       1.121  10.841  19.890  0.00  0.00    +0.000 NA
ATOM      9  C   UNL     1       0.628  12.004  20.402  0.00  0.00    +0.000 A 
ATOM     10  C   UNL     1      -0.151  11.940  21.562  0.00  0.00    +0.000 A 
ATOM     11  C   UNL     1      -0.836  12.800  22.463  0.00  0.00    +0.000 A 
ATOM     12  N   UNL     1      -0.894  14.136  22.385  0.00  0.00    +0.000 N 
ATOM     13  N   UNL     1      -1.434  12.134  23.451  0.00  0.00    +0.000 NA
ATOM     14  N   UNL     1      -1.129  10.849  23.195  0.00  0.00    +0.000 N 
ATOM     15  C   UNL     1      -0.369  10.678  22.078  0.00  0.00    +0.000 A 
ATOM     16  N   UNL     1       0.080   9.510  21.601  0.00  0.00    +0.000 NA
ATOM     17  H   UNL     1      -0.725  14.636  21.523  0.00  0.00    +0.000 HD
ATOM     18  H   UNL     1      -1.537  14.603  23.018  0.00  0.00    +0.000 HD
ATOM     19  H   UNL     1      -1.457  10.129  23.825  0.00  0.00    +0.000 HD
BRANCH   9  20
ATOM     20  C   UNL     1       0.905  13.331  19.760  0.00  0.00    +0.000 C 
ATOM     21  C   UNL     1       1.431  13.412  18.344  0.00  0.00    +0.000 C 
ATOM     22  C   UNL     1       0.011  13.797  18.631  0.00  0.00    +0.000 C 
ENDBRANCH   9  20
ENDBRANCH   4   7
BRANCH   1  23
ATOM     23  N   UNL     1       3.057   4.854  18.318  0.00  0.00    +0.000 N 
ATOM     24  H   UNL     1       2.782   4.545  17.387  0.00  0.00    +0.000 HD
BRANCH  23  25
ATOM     25  S   UNL     1       4.610   4.379  18.752  0.00  0.00    +0.000 S 
ATOM     26  O   UNL     1       4.563   2.977  19.118  0.00  0.00    +0.000 OA
ATOM     27  O   UNL     1       5.108   5.363  19.681  0.00  0.00    +0.000 OA
BRANCH  25  32
ATOM     28  C   UNL     1       5.687   4.330  14.847  0.00  0.00    +0.000 A 
ATOM     29  C   UNL     1       7.032   4.685  14.878  0.00  0.00    +0.000 A 
ATOM     30  C   UNL     1       7.661   4.945  16.101  0.00  0.00    +0.000 A 
ATOM     31  C   UNL     1       6.952   4.857  17.314  0.00  0.00    +0.000 A 
ATOM     32  C   UNL     1       5.589   4.536  17.278  0.00  0.00    +0.000 A 
ATOM     33  C   UNL     1       4.971   4.261  16.045  0.00  0.00    +0.000 A 
BRANCH  28  35
ATOM     34  C   UNL     1       5.696   3.466  12.636  0.00  0.00    +0.000 C 
ATOM     35  O   UNL     1       4.969   4.024  13.726  0.00  0.00    +0.000 OA
ENDBRANCH  28  35
BRANCH  31  36
ATOM     36  C   UNL     1       7.666   5.115  18.528  0.00  0.00    +0.000 C 
ATOM     37  N   UNL     1       8.208   5.277  19.540  0.00  0.00    +0.000 NA
ENDBRANCH  31  36
ENDBRANCH  25  32
ENDBRANCH  23  25
ENDBRANCH   1  23
TORSDOF 7
ENDMDL
