MODEL 1
REMARK VINA RESULT:      -7.4      0.000      0.000
REMARK  Name = 
REMARK  4 active torsions:
REMARK  status: ('A' for Active; 'I' for Inactive)
REMARK    1  A    between atoms: C_8  and  C_9
REMARK    2  A    between atoms: C_10  and  C_11
REMARK    3  A    between atoms: C_12  and  C_13
REMARK    4  A    between atoms: C_13  and  C_14
REMARK                            x       y       z     vdW  Elec       q    Type
REMARK                         _______ _______ _______ _____ _____    ______ ____
ROOT
ATOM      1  C   UNL     1       1.171   1.596  19.593  0.00  0.00    +0.000 C 
ATOM      2  C   UNL     1       1.424   2.880  19.892  0.00  0.00    +0.000 C 
ATOM      3  C   UNL     1       1.684   3.270  21.298  0.00  0.00    +0.000 C 
ATOM      4  O   UNL     1       1.560   2.566  22.283  0.00  0.00    +0.000 OA
ATOM      5  O   UNL     1       2.089   4.566  21.300  0.00  0.00    +0.000 OA
ATOM      6  C   UNL     1       1.709   5.196  20.072  0.00  0.00    +0.000 C 
ATOM      7  C   UNL     1       2.605   6.412  19.809  0.00  0.00    +0.000 C 
ATOM      8  C   UNL     1       2.436   6.877  18.362  0.00  0.00    +0.000 C 
ATOM      9  C   UNL     1       2.372   8.359  17.965  0.00  0.00    +0.000 C 
ATOM     10  C   UNL     1       3.539   6.174  17.634  0.00  0.00    +0.000 C 
ATOM     11  C   UNL     1       3.229   5.004  17.049  0.00  0.00    +0.000 C 
ATOM     12  C   UNL     1       2.419   3.899  17.752  0.00  0.00    +0.000 C 
ATOM     13  C   UNL     1       1.513   4.096  19.008  0.00  0.00    +0.000 C 
ENDROOT
BRANCH  10  14
ATOM     14  C   UNL     1       4.901   6.726  17.641  0.00  0.00    +0.000 C 
ATOM     15  C   UNL     1       6.044   6.011  17.486  0.00  0.00    +0.000 C 
BRANCH  15  16
ATOM     16  C   UNL     1       7.397   6.635  17.577  0.00  0.00    +0.000 C 
ATOM     17  C   UNL     1       8.149   6.535  18.880  0.00  0.00    +0.000 C 
ATOM     18  O   UNL     1       7.864   7.263  16.635  0.00  0.00    +0.000 OA
ENDBRANCH  15  16
ENDBRANCH  10  14
TORSDOF 2
ENDMDL
MODEL 2
REMARK VINA RESULT:      -7.3      2.480      3.570
REMARK  Name = 
REMARK  4 active torsions:
REMARK  status: ('A' for Active; 'I' for Inactive)
REMARK    1  A    between atoms: C_8  and  C_9
REMARK    2  A    between atoms: C_10  and  C_11
REMARK    3  A    between atoms: C_12  and  C_13
REMARK    4  A    between atoms: C_13  and  C_14
REMARK                            x       y       z     vdW  Elec       q    Type
REMARK                         _______ _______ _______ _____ _____    ______ ____
ROOT
ATOM      1  C   UNL     1       1.635   4.499  20.382  0.00  0.00    +0.000 C 
ATOM      2  C   UNL     1       2.930   4.458  20.032  0.00  0.00    +0.000 C 
ATOM      3  C   UNL     1       3.698   3.202  20.199  0.00  0.00    +0.000 C 
ATOM      4  O   UNL     1       3.324   2.191  20.764  0.00  0.00    +0.000 OA
ATOM      5  O   UNL     1       4.907   3.373  19.606  0.00  0.00    +0.000 OA
ATOM      6  C   UNL     1       5.172   4.770  19.439  0.00  0.00    +0.000 C 
ATOM      7  C   UNL     1       6.195   4.977  18.315  0.00  0.00    +0.000 C 
ATOM      8  C   UNL     1       6.224   6.450  17.906  0.00  0.00    +0.000 C 
ATOM      9  C   UNL     1       7.524   7.199  17.582  0.00  0.00    +0.000 C 
ATOM     10  C   UNL     1       5.267   6.518  16.758  0.00  0.00    +0.000 C 
ATOM     11  C   UNL     1       3.999   6.863  17.045  0.00  0.00    +0.000 C 
ATOM     12  C   UNL     1       3.207   6.258  18.218  0.00  0.00    +0.000 C 
ATOM     13  C   UNL     1       3.823   5.520  19.448  0.00  0.00    +0.000 C 
ENDROOT
BRANCH  10  14
ATOM     14  C   UNL     1       5.704   6.144  15.405  0.00  0.00    +0.000 C 
ATOM     15  C   UNL     1       6.222   4.943  15.046  0.00  0.00    +0.000 C 
BRANCH  15  16
ATOM     16  C   UNL     1       6.712   4.663  13.664  0.00  0.00    +0.000 C 
ATOM     17  C   UNL     1       6.057   3.556  12.879  0.00  0.00    +0.000 C 
ATOM     18  O   UNL     1       7.663   5.279  13.198  0.00  0.00    +0.000 OA
ENDBRANCH  15  16
ENDBRANCH  10  14
TORSDOF 2
ENDMDL
MODEL 3
REMARK VINA RESULT:      -7.0      2.909      6.534
REMARK  Name = 
REMARK  4 active torsions:
REMARK  status: ('A' for Active; 'I' for Inactive)
REMARK    1  A    between atoms: C_8  and  C_9
REMARK    2  A    between atoms: C_10  and  C_11
REMARK    3  A    between atoms: C_12  and  C_13
REMARK    4  A    between atoms: C_13  and  C_14
REMARK                            x       y       z     vdW  Elec       q    Type
REMARK                         _______ _______ _______ _____ _____    ______ ____
ROOT
ATOM      1  C   UNL     1       6.016   3.282  12.649  0.00  0.00    +0.000 C 
ATOM      2  C   UNL     1       6.476   3.992  13.691  0.00  0.00    +0.000 C 
ATOM      3  C   UNL     1       7.490   5.049  13.472  0.00  0.00    +0.000 C 
ATOM      4  O   UNL     1       8.088   5.279  12.437  0.00  0.00    +0.000 OA
ATOM      5  O   UNL     1       7.641   5.728  14.638  0.00  0.00    +0.000 OA
ATOM      6  C   UNL     1       7.137   4.943  15.725  0.00  0.00    +0.000 C 
ATOM      7  C   UNL     1       6.775   5.855  16.903  0.00  0.00    +0.000 C 
ATOM      8  C   UNL     1       5.933   5.080  17.917  0.00  0.00    +0.000 C 
ATOM      9  C   UNL     1       6.118   5.220  19.435  0.00  0.00    +0.000 C 
ATOM     10  C   UNL     1       4.524   5.392  17.519  0.00  0.00    +0.000 C 
ATOM     11  C   UNL     1       3.918   4.517  16.697  0.00  0.00    +0.000 C 
ATOM     12  C   UNL     1       4.592   3.938  15.440  0.00  0.00    +0.000 C 
ATOM     13  C   UNL     1       6.127   3.925  15.155  0.00  0.00    +0.000 C 
ENDROOT
BRANCH  10  14
ATOM     14  C   UNL     1       3.888   6.641  17.962  0.00  0.00    +0.000 C 
ATOM     15  C   UNL     1       2.718   6.734  18.643  0.00  0.00    +0.000 C 
BRANCH  15  16
ATOM     16  C   UNL     1       2.099   8.046  18.994  0.00  0.00    +0.000 C 
ATOM     17  C   UNL     1       2.052   9.125  17.944  0.00  0.00    +0.000 C 
ATOM     18  O   UNL     1       1.688   8.263  20.129  0.00  0.00    +0.000 OA
ENDBRANCH  15  16
ENDBRANCH  10  14
TORSDOF 2
ENDMDL
MODEL 4
REMARK VINA RESULT:      -6.8      2.454      5.436
REMARK  Name = 
REMARK  4 active torsions:
REMARK  status: ('A' for Active; 'I' for Inactive)
REMARK    1  A    between atoms: C_8  and  C_9
REMARK    2  A    between atoms: C_10  and  C_11
REMARK    3  A    between atoms: C_12  and  C_13
REMARK    4  A    between atoms: C_13  and  C_14
REMARK                            x       y       z     vdW  Elec       q    Type
REMARK                         _______ _______ _______ _____ _____    ______ ____
ROOT
ATOM      1  C   UNL     1       5.716   4.220  15.522  0.00  0.00    +0.000 C 
ATOM      2  C   UNL     1       5.555   4.170  16.854  0.00  0.00    +0.000 C 
ATOM      3  C   UNL     1       6.673   4.561  17.745  0.00  0.00    +0.000 C 
ATOM      4  O   UNL     1       7.817   4.807  17.411  0.00  0.00    +0.000 OA
ATOM      5  O   UNL     1       6.196   4.600  19.015  0.00  0.00    +0.000 OA
ATOM      6  C   UNL     1       4.977   3.853  19.100  0.00  0.00    +0.000 C 
ATOM      7  C   UNL     1       4.154   4.331  20.302  0.00  0.00    +0.000 C 
ATOM      8  C   UNL     1       2.728   3.790  20.200  0.00  0.00    +0.000 C 
ATOM      9  C   UNL     1       1.948   3.263  21.414  0.00  0.00    +0.000 C 
ATOM     10  C   UNL     1       1.978   4.893  19.520  0.00  0.00    +0.000 C 
ATOM     11  C   UNL     1       1.857   4.808  18.183  0.00  0.00    +0.000 C 
ATOM     12  C   UNL     1       3.032   4.461  17.252  0.00  0.00    +0.000 C 
ATOM     13  C   UNL     1       4.364   3.772  17.685  0.00  0.00    +0.000 C 
ENDROOT
BRANCH  10  14
ATOM     14  C   UNL     1       1.478   6.037  20.295  0.00  0.00    +0.000 C 
ATOM     15  C   UNL     1       1.846   7.331  20.120  0.00  0.00    +0.000 C 
BRANCH  15  16
ATOM     16  C   UNL     1       1.348   8.431  20.997  0.00  0.00    +0.000 C 
ATOM     17  C   UNL     1       0.383   9.433  20.417  0.00  0.00    +0.000 C 
ATOM     18  O   UNL     1       1.756   8.552  22.146  0.00  0.00    +0.000 OA
ENDBRANCH  15  16
ENDBRANCH  10  14
TORSDOF 2
ENDMDL
MODEL 5
REMARK VINA RESULT:      -6.8      2.587      5.827
REMARK  Name = 
REMARK  4 active torsions:
REMARK  status: ('A' for Active; 'I' for Inactive)
REMARK    1  A    between atoms: C_8  and  C_9
REMARK    2  A    between atoms: C_10  and  C_11
REMARK    3  A    between atoms: C_12  and  C_13
REMARK    4  A    between atoms: C_13  and  C_14
REMARK                            x       y       z     vdW  Elec       q    Type
REMARK                         _______ _______ _______ _____ _____    ______ ____
ROOT
ATOM      1  C   UNL     1       7.209   6.543  16.779  0.00  0.00    +0.000 C 
ATOM      2  C   UNL     1       6.472   5.922  17.712  0.00  0.00    +0.000 C 
ATOM      3  C   UNL     1       7.136   5.300  18.881  0.00  0.00    +0.000 C 
ATOM      4  O   UNL     1       8.333   5.156  19.045  0.00  0.00    +0.000 OA
ATOM      5  O   UNL     1       6.168   4.911  19.750  0.00  0.00    +0.000 OA
ATOM      6  C   UNL     1       4.910   4.830  19.071  0.00  0.00    +0.000 C 
ATOM      7  C   UNL     1       3.763   4.957  20.080  0.00  0.00    +0.000 C 
ATOM      8  C   UNL     1       2.449   5.212  19.341  0.00  0.00    +0.000 C 
ATOM      9  C   UNL     1       1.123   4.555  19.748  0.00  0.00    +0.000 C 
ATOM     10  C   UNL     1       2.328   6.704  19.339  0.00  0.00    +0.000 C 
ATOM     11  C   UNL     1       2.794   7.348  18.254  0.00  0.00    +0.000 C 
ATOM     12  C   UNL     1       4.156   7.035  17.609  0.00  0.00    +0.000 C 
ATOM     13  C   UNL     1       4.982   5.726  17.817  0.00  0.00    +0.000 C 
ENDROOT
BRANCH  10  14
ATOM     14  C   UNL     1       1.792   7.407  20.513  0.00  0.00    +0.000 C 
ATOM     15  C   UNL     1       1.307   8.674  20.523  0.00  0.00    +0.000 C 
BRANCH  15  16
ATOM     16  C   UNL     1       0.845   9.345  21.773  0.00  0.00    +0.000 C 
ATOM     17  C   UNL     1      -0.438  10.135  21.735  0.00  0.00    +0.000 C 
ATOM     18  O   UNL     1       1.521   9.304  22.795  0.00  0.00    +0.000 OA
ENDBRANCH  15  16
ENDBRANCH  10  14
TORSDOF 2
ENDMDL
MODEL 6
REMARK VINA RESULT:      -6.7      2.879      4.428
REMARK  Name = 
REMARK  4 active torsions:
REMARK  status: ('A' for Active; 'I' for Inactive)
REMARK    1  A    between atoms: C_8  and  C_9
REMARK    2  A    between atoms: C_10  and  C_11
REMARK    3  A    between atoms: C_12  and  C_13
REMARK    4  A    between atoms: C_13  and  C_14
REMARK                            x       y       z     vdW  Elec       q    Type
REMARK                         _______ _______ _______ _____ _____    ______ ____
ROOT
ATOM      1  C   UNL     1       1.924   7.347  19.830  0.00  0.00    +0.000 C 
ATOM      2  C   UNL     1       2.725   6.310  19.538  0.00  0.00    +0.000 C 
ATOM      3  C   UNL     1       2.325   4.938  19.931  0.00  0.00    +0.000 C 
ATOM      4  O   UNL     1       1.383   4.629  20.636  0.00  0.00    +0.000 OA
ATOM      5  O   UNL     1       3.203   4.072  19.362  0.00  0.00    +0.000 OA
ATOM      6  C   UNL     1       4.396   4.767  18.985  0.00  0.00    +0.000 C 
ATOM      7  C   UNL     1       5.125   3.992  17.880  0.00  0.00    +0.000 C 
ATOM      8  C   UNL     1       6.194   4.881  17.243  0.00  0.00    +0.000 C 
ATOM      9  C   UNL     1       7.584   4.361  16.852  0.00  0.00    +0.000 C 
ATOM     10  C   UNL     1       5.496   5.485  16.065  0.00  0.00    +0.000 C 
ATOM     11  C   UNL     1       4.932   6.692  16.247  0.00  0.00    +0.000 C 
ATOM     12  C   UNL     1       4.068   7.041  17.472  0.00  0.00    +0.000 C 
ATOM     13  C   UNL     1       4.050   6.263  18.825  0.00  0.00    +0.000 C 
ENDROOT
BRANCH  10  14
ATOM     14  C   UNL     1       5.384   4.734  14.805  0.00  0.00    +0.000 C 
ATOM     15  C   UNL     1       6.411   4.437  13.970  0.00  0.00    +0.000 C 
BRANCH  15  16
ATOM     16  C   UNL     1       6.206   3.732  12.670  0.00  0.00    +0.000 C 
ATOM     17  C   UNL     1       4.810   3.307  12.293  0.00  0.00    +0.000 C 
ATOM     18  O   UNL     1       7.158   3.454  11.950  0.00  0.00    +0.000 OA
ENDBRANCH  15  16
ENDBRANCH  10  14
TORSDOF 2
ENDMDL
MODEL 7
REMARK VINA RESULT:      -6.7      2.747      3.851
REMARK  Name = 
REMARK  4 active torsions:
REMARK  status: ('A' for Active; 'I' for Inactive)
REMARK    1  A    between atoms: C_8  and  C_9
REMARK    2  A    between atoms: C_10  and  C_11
REMARK    3  A    between atoms: C_12  and  C_13
REMARK    4  A    between atoms: C_13  and  C_14
REMARK                            x       y       z     vdW  Elec       q    Type
REMARK                         _______ _______ _______ _____ _____    ______ ____
ROOT
ATOM      1  C   UNL     1       1.268   6.098  20.484  0.00  0.00    +0.000 C 
ATOM      2  C   UNL     1       2.292   5.285  20.177  0.00  0.00    +0.000 C 
ATOM      3  C   UNL     1       2.192   3.835  20.463  0.00  0.00    +0.000 C 
ATOM      4  O   UNL     1       1.313   3.277  21.093  0.00  0.00    +0.000 OA
ATOM      5  O   UNL     1       3.264   3.225  19.896  0.00  0.00    +0.000 OA
ATOM      6  C   UNL     1       4.288   4.191  19.629  0.00  0.00    +0.000 C 
ATOM      7  C   UNL     1       5.218   3.676  18.525  0.00  0.00    +0.000 C 
ATOM      8  C   UNL     1       6.088   4.820  18.004  0.00  0.00    +0.000 C 
ATOM      9  C   UNL     1       7.574   4.648  17.663  0.00  0.00    +0.000 C 
ATOM     10  C   UNL     1       5.324   5.338  16.825  0.00  0.00    +0.000 C 
ATOM     11  C   UNL     1       4.498   6.376  17.047  0.00  0.00    +0.000 C 
ATOM     12  C   UNL     1       3.526   6.439  18.238  0.00  0.00    +0.000 C 
ATOM     13  C   UNL     1       3.624   5.582  19.540  0.00  0.00    +0.000 C 
ENDROOT
BRANCH  10  14
ATOM     14  C   UNL     1       5.436   4.673  15.520  0.00  0.00    +0.000 C 
ATOM     15  C   UNL     1       6.437   4.859  14.622  0.00  0.00    +0.000 C 
BRANCH  15  16
ATOM     16  C   UNL     1       6.443   4.200  13.283  0.00  0.00    +0.000 C 
ATOM     17  C   UNL     1       7.419   4.691  12.244  0.00  0.00    +0.000 C 
ATOM     18  O   UNL     1       5.637   3.318  13.013  0.00  0.00    +0.000 OA
ENDBRANCH  15  16
ENDBRANCH  10  14
TORSDOF 2
ENDMDL
MODEL 8
REMARK VINA RESULT:      -6.4      3.839      6.460
REMARK  Name = 
REMARK  4 active torsions:
REMARK  status: ('A' for Active; 'I' for Inactive)
REMARK    1  A    between atoms: C_8  and  C_9
REMARK    2  A    between atoms: C_10  and  C_11
REMARK    3  A    between atoms: C_12  and  C_13
REMARK    4  A    between atoms: C_13  and  C_14
REMARK                            x       y       z     vdW  Elec       q    Type
REMARK                         _______ _______ _______ _____ _____    ______ ____
ROOT
ATOM      1  C   UNL     1       2.177   5.012  20.918  0.00  0.00    +0.000 C 
ATOM      2  C   UNL     1       2.239   5.922  19.934  0.00  0.00    +0.000 C 
ATOM      3  C   UNL     1       2.376   5.478  18.527  0.00  0.00    +0.000 C 
ATOM      4  O   UNL     1       2.583   4.343  18.141  0.00  0.00    +0.000 OA
ATOM      5  O   UNL     1       2.229   6.568  17.732  0.00  0.00    +0.000 OA
ATOM      6  C   UNL     1       2.436   7.760  18.497  0.00  0.00    +0.000 C 
ATOM      7  C   UNL     1       1.745   8.947  17.815  0.00  0.00    +0.000 C 
ATOM      8  C   UNL     1       1.671  10.129  18.782  0.00  0.00    +0.000 C 
ATOM      9  C   UNL     1       1.919  11.579  18.345  0.00  0.00    +0.000 C 
ATOM     10  C   UNL     1       0.323   9.983  19.416  0.00  0.00    +0.000 C 
ATOM     11  C   UNL     1       0.272   9.322  20.587  0.00  0.00    +0.000 C 
ATOM     12  C   UNL     1       0.999   7.988  20.832  0.00  0.00    +0.000 C 
ATOM     13  C   UNL     1       2.183   7.427  19.983  0.00  0.00    +0.000 C 
ENDROOT
BRANCH  10  14
ATOM     14  C   UNL     1      -0.877  10.483  18.730  0.00  0.00    +0.000 C 
ATOM     15  C   UNL     1      -1.405   9.971  17.590  0.00  0.00    +0.000 C 
BRANCH  15  16
ATOM     16  C   UNL     1      -2.587  10.580  16.911  0.00  0.00    +0.000 C 
ATOM     17  C   UNL     1      -2.818  10.273  15.454  0.00  0.00    +0.000 C 
ATOM     18  O   UNL     1      -3.322  11.358  17.508  0.00  0.00    +0.000 OA
ENDBRANCH  15  16
ENDBRANCH  10  14
TORSDOF 2
ENDMDL
MODEL 9
REMARK VINA RESULT:      -6.4      2.799      4.781
REMARK  Name = 
REMARK  4 active torsions:
REMARK  status: ('A' for Active; 'I' for Inactive)
REMARK    1  A    between atoms: C_8  and  C_9
REMARK    2  A    between atoms: C_10  and  C_11
REMARK    3  A    between atoms: C_12  and  C_13
REMARK    4  A    between atoms: C_13  and  C_14
REMARK                            x       y       z     vdW  Elec       q    Type
REMARK                         _______ _______ _______ _____ _____    ______ ____
ROOT
ATOM      1  C   UNL     1       1.218   2.705  21.345  0.00  0.00    +0.000 C 
ATOM      2  C   UNL     1       1.496   3.299  20.175  0.00  0.00    +0.000 C 
ATOM      3  C   UNL     1       0.930   2.753  18.919  0.00  0.00    +0.000 C 
ATOM      4  O   UNL     1       0.323   1.705  18.791  0.00  0.00    +0.000 OA
ATOM      5  O   UNL     1       1.206   3.632  17.922  0.00  0.00    +0.000 OA
ATOM      6  C   UNL     1       2.274   4.498  18.321  0.00  0.00    +0.000 C 
ATOM      7  C   UNL     1       2.224   5.797  17.508  0.00  0.00    +0.000 C 
ATOM      8  C   UNL     1       3.131   6.846  18.153  0.00  0.00    +0.000 C 
ATOM      9  C   UNL     1       4.022   7.792  17.336  0.00  0.00    +0.000 C 
ATOM     10  C   UNL     1       2.205   7.617  19.042  0.00  0.00    +0.000 C 
ATOM     11  C   UNL     1       2.134   7.226  20.327  0.00  0.00    +0.000 C 
ATOM     12  C   UNL     1       1.998   5.753  20.753  0.00  0.00    +0.000 C 
ATOM     13  C   UNL     1       2.330   4.514  19.863  0.00  0.00    +0.000 C 
ENDROOT
BRANCH  10  14
ATOM     14  C   UNL     1       1.371   8.693  18.488  0.00  0.00    +0.000 C 
ATOM     15  C   UNL     1       0.844   9.726  19.193  0.00  0.00    +0.000 C 
BRANCH  15  16
ATOM     16  C   UNL     1      -0.055  10.742  18.572  0.00  0.00    +0.000 C 
ATOM     17  C   UNL     1      -1.267  10.265  17.815  0.00  0.00    +0.000 C 
ATOM     18  O   UNL     1       0.215  11.937  18.626  0.00  0.00    +0.000 OA
ENDBRANCH  15  16
ENDBRANCH  10  14
TORSDOF 2
ENDMDL
