MODEL 1
REMARK VINA RESULT:      -6.7      0.000      0.000
REMARK  Name = 
REMARK  7 active torsions:
REMARK  status: ('A' for Active; 'I' for Inactive)
REMARK    1  A    between atoms: C_1  and  O_2
REMARK    2  A    between atoms: O_2  and  C_3
REMARK    3  A    between atoms: C_6  and  O_7
REMARK    4  A    between atoms: O_7  and  C_8
REMARK    5  A    between atoms: C_11  and  O_12
REMARK    6  A    between atoms: O_12  and  C_13
REMARK    7  A    between atoms: C_19  and  C_20
REMARK                            x       y       z     vdW  Elec       q    Type
REMARK                         _______ _______ _______ _____ _____    ______ ____
ROOT
ATOM      1  C   UNL     1      -5.341  12.659  18.605  0.00  0.00    +0.000 A 
ATOM      2  C   UNL     1      -5.470  12.043  17.359  0.00  0.00    +0.000 A 
ATOM      3  C   UNL     1      -4.474  11.200  16.891  0.00  0.00    +0.000 A 
ATOM      4  C   UNL     1      -3.326  10.977  17.656  0.00  0.00    +0.000 A 
ATOM      5  C   UNL     1      -3.138  11.580  18.937  0.00  0.00    +0.000 A 
ATOM      6  C   UNL     1      -4.187  12.424  19.439  0.00  0.00    +0.000 A 
ATOM      7  C   UNL     1      -4.024  13.013  20.738  0.00  0.00    +0.000 A 
ATOM      8  C   UNL     1      -2.882  12.784  21.505  0.00  0.00    +0.000 A 
ATOM      9  C   UNL     1      -1.857  11.999  21.004  0.00  0.00    +0.000 A 
ATOM     10  C   UNL     1      -0.656  11.780  21.824  0.00  0.00    +0.000 A 
ATOM     11  O   UNL     1      -0.502  12.316  22.915  0.00  0.00    +0.000 OA
ATOM     12  C   UNL     1       0.350  10.861  21.292  0.00  0.00    +0.000 A 
ATOM     13  C   UNL     1       0.165  10.330  20.078  0.00  0.00    +0.000 A 
ATOM     14  O   UNL     1      -0.923  10.637  19.258  0.00  0.00    +0.000 OA
ATOM     15  C   UNL     1      -1.963  11.408  19.748  0.00  0.00    +0.000 A 
ENDROOT
BRANCH  13  16
ATOM     16  C   UNL     1       1.113   9.349  19.501  0.00  0.00    +0.000 A 
ATOM     17  C   UNL     1       1.536   8.226  20.223  0.00  0.00    +0.000 A 
ATOM     18  C   UNL     1       2.366   7.301  19.606  0.00  0.00    +0.000 A 
ATOM     19  N   UNL     1       2.785   7.405  18.329  0.00  0.00    +0.000 NA
ATOM     20  C   UNL     1       2.372   8.492  17.647  0.00  0.00    +0.000 A 
ATOM     21  C   UNL     1       1.565   9.482  18.186  0.00  0.00    +0.000 A 
ENDBRANCH  13  16
BRANCH   1  23
ATOM     22  C   UNL     1      -7.622  13.453  18.596  0.00  0.00    +0.000 C 
ATOM     23  O   UNL     1      -6.285  13.546  19.070  0.00  0.00    +0.000 OA
ENDBRANCH   1  23
BRANCH   4  24
ATOM     24  O   UNL     1      -2.338  10.279  16.996  0.00  0.00    +0.000 OA
ATOM     25  C   UNL     1      -2.688   9.908  15.664  0.00  0.00    +0.000 C 
ENDBRANCH   4  24
BRANCH   7  26
ATOM     26  O   UNL     1      -5.060  13.761  21.247  0.00  0.00    +0.000 OA
ATOM     27  C   UNL     1      -5.423  13.551  22.609  0.00  0.00    +0.000 C 
ENDBRANCH   7  26
TORSDOF 4
ENDMDL
MODEL 2
REMARK VINA RESULT:      -6.2      3.085      6.492
REMARK  Name = 
REMARK  7 active torsions:
REMARK  status: ('A' for Active; 'I' for Inactive)
REMARK    1  A    between atoms: C_1  and  O_2
REMARK    2  A    between atoms: O_2  and  C_3
REMARK    3  A    between atoms: C_6  and  O_7
REMARK    4  A    between atoms: O_7  and  C_8
REMARK    5  A    between atoms: C_11  and  O_12
REMARK    6  A    between atoms: O_12  and  C_13
REMARK    7  A    between atoms: C_19  and  C_20
REMARK                            x       y       z     vdW  Elec       q    Type
REMARK                         _______ _______ _______ _____ _____    ______ ____
ROOT
ATOM      1  C   UNL     1      -3.545  10.878  17.116  0.00  0.00    +0.000 A 
ATOM      2  C   UNL     1      -4.830  11.323  16.800  0.00  0.00    +0.000 A 
ATOM      3  C   UNL     1      -5.508  12.165  17.667  0.00  0.00    +0.000 A 
ATOM      4  C   UNL     1      -4.917  12.558  18.871  0.00  0.00    +0.000 A 
ATOM      5  C   UNL     1      -3.607  12.134  19.248  0.00  0.00    +0.000 A 
ATOM      6  C   UNL     1      -2.887  11.292  18.332  0.00  0.00    +0.000 A 
ATOM      7  C   UNL     1      -1.558  10.882  18.685  0.00  0.00    +0.000 A 
ATOM      8  C   UNL     1      -0.965  11.281  19.882  0.00  0.00    +0.000 A 
ATOM      9  C   UNL     1      -1.673  12.064  20.779  0.00  0.00    +0.000 A 
ATOM     10  C   UNL     1      -1.034  12.463  22.042  0.00  0.00    +0.000 A 
ATOM     11  O   UNL     1       0.086  12.080  22.358  0.00  0.00    +0.000 OA
ATOM     12  C   UNL     1      -1.786  13.374  22.906  0.00  0.00    +0.000 A 
ATOM     13  C   UNL     1      -3.023  13.734  22.545  0.00  0.00    +0.000 A 
ATOM     14  O   UNL     1      -3.665  13.256  21.401  0.00  0.00    +0.000 OA
ATOM     15  C   UNL     1      -2.967  12.484  20.488  0.00  0.00    +0.000 A 
ENDROOT
BRANCH  13  16
ATOM     16  C   UNL     1      -3.820  14.697  23.341  0.00  0.00    +0.000 A 
ATOM     17  C   UNL     1      -3.222  15.537  24.288  0.00  0.00    +0.000 A 
ATOM     18  C   UNL     1      -4.006  16.470  24.951  0.00  0.00    +0.000 A 
ATOM     19  N   UNL     1      -5.325  16.636  24.726  0.00  0.00    +0.000 NA
ATOM     20  C   UNL     1      -5.888  15.819  23.814  0.00  0.00    +0.000 A 
ATOM     21  C   UNL     1      -5.192  14.840  23.121  0.00  0.00    +0.000 A 
ENDBRANCH  13  16
BRANCH   1  23
ATOM     22  C   UNL     1      -3.054  10.062  14.896  0.00  0.00    +0.000 C 
ATOM     23  O   UNL     1      -2.869   9.995  16.304  0.00  0.00    +0.000 OA
ENDBRANCH   1  23
BRANCH   4  24
ATOM     24  O   UNL     1      -5.768  13.232  19.720  0.00  0.00    +0.000 OA
ATOM     25  C   UNL     1      -6.950  12.503  20.045  0.00  0.00    +0.000 C 
ENDBRANCH   4  24
BRANCH   7  26
ATOM     26  O   UNL     1      -0.845  10.136  17.775  0.00  0.00    +0.000 OA
ATOM     27  C   UNL     1       0.488   9.768  18.120  0.00  0.00    +0.000 C 
ENDBRANCH   7  26
TORSDOF 4
ENDMDL
MODEL 3
REMARK VINA RESULT:      -6.1      0.960      1.040
REMARK  Name = 
REMARK  7 active torsions:
REMARK  status: ('A' for Active; 'I' for Inactive)
REMARK    1  A    between atoms: C_1  and  O_2
REMARK    2  A    between atoms: O_2  and  C_3
REMARK    3  A    between atoms: C_6  and  O_7
REMARK    4  A    between atoms: O_7  and  C_8
REMARK    5  A    between atoms: C_11  and  O_12
REMARK    6  A    between atoms: O_12  and  C_13
REMARK    7  A    between atoms: C_19  and  C_20
REMARK                            x       y       z     vdW  Elec       q    Type
REMARK                         _______ _______ _______ _____ _____    ______ ____
ROOT
ATOM      1  C   UNL     1      -5.692  13.328  19.513  0.00  0.00    +0.000 A 
ATOM      2  C   UNL     1      -5.971  12.651  18.325  0.00  0.00    +0.000 A 
ATOM      3  C   UNL     1      -5.046  11.765  17.794  0.00  0.00    +0.000 A 
ATOM      4  C   UNL     1      -3.822  11.560  18.435  0.00  0.00    +0.000 A 
ATOM      5  C   UNL     1      -3.480  12.226  19.651  0.00  0.00    +0.000 A 
ATOM      6  C   UNL     1      -4.454  13.114  20.223  0.00  0.00    +0.000 A 
ATOM      7  C   UNL     1      -4.136  13.767  21.461  0.00  0.00    +0.000 A 
ATOM      8  C   UNL     1      -2.918  13.556  22.106  0.00  0.00    +0.000 A 
ATOM      9  C   UNL     1      -1.967  12.726  21.535  0.00  0.00    +0.000 A 
ATOM     10  C   UNL     1      -0.684  12.528  22.225  0.00  0.00    +0.000 A 
ATOM     11  O   UNL     1      -0.399  13.116  23.261  0.00  0.00    +0.000 OA
ATOM     12  C   UNL     1       0.243  11.562  21.633  0.00  0.00    +0.000 A 
ATOM     13  C   UNL     1      -0.086  10.973  20.478  0.00  0.00    +0.000 A 
ATOM     14  O   UNL     1      -1.256  11.257  19.771  0.00  0.00    +0.000 OA
ATOM     15  C   UNL     1      -2.223  12.073  20.333  0.00  0.00    +0.000 A 
ENDROOT
BRANCH  13  16
ATOM     16  C   UNL     1       0.777   9.944  19.851  0.00  0.00    +0.000 A 
ATOM     17  C   UNL     1       1.151   8.784  20.538  0.00  0.00    +0.000 A 
ATOM     18  C   UNL     1       1.899   7.820  19.876  0.00  0.00    +0.000 A 
ATOM     19  N   UNL     1       2.280   7.922  18.587  0.00  0.00    +0.000 NA
ATOM     20  C   UNL     1       1.915   9.046  17.938  0.00  0.00    +0.000 A 
ATOM     21  C   UNL     1       1.191  10.075  18.523  0.00  0.00    +0.000 A 
ENDBRANCH  13  16
BRANCH   1  23
ATOM     22  C   UNL     1      -7.907  13.874  20.306  0.00  0.00    +0.000 C 
ATOM     23  O   UNL     1      -6.565  14.256  20.034  0.00  0.00    +0.000 OA
ENDBRANCH   1  23
BRANCH   4  24
ATOM     24  O   UNL     1      -2.924  10.810  17.706  0.00  0.00    +0.000 OA
ATOM     25  C   UNL     1      -2.749  11.267  16.366  0.00  0.00    +0.000 C 
ENDBRANCH   4  24
BRANCH   7  26
ATOM     26  O   UNL     1      -5.098  14.561  22.043  0.00  0.00    +0.000 OA
ATOM     27  C   UNL     1      -5.424  14.314  23.408  0.00  0.00    +0.000 C 
ENDBRANCH   7  26
TORSDOF 4
ENDMDL
MODEL 4
REMARK VINA RESULT:      -6.0      1.611      2.351
REMARK  Name = 
REMARK  7 active torsions:
REMARK  status: ('A' for Active; 'I' for Inactive)
REMARK    1  A    between atoms: C_1  and  O_2
REMARK    2  A    between atoms: O_2  and  C_3
REMARK    3  A    between atoms: C_6  and  O_7
REMARK    4  A    between atoms: O_7  and  C_8
REMARK    5  A    between atoms: C_11  and  O_12
REMARK    6  A    between atoms: O_12  and  C_13
REMARK    7  A    between atoms: C_19  and  C_20
REMARK                            x       y       z     vdW  Elec       q    Type
REMARK                         _______ _______ _______ _____ _____    ______ ____
ROOT
ATOM      1  C   UNL     1      -3.339  12.758  20.290  0.00  0.00    +0.000 A 
ATOM      2  C   UNL     1      -3.546  12.660  18.913  0.00  0.00    +0.000 A 
ATOM      3  C   UNL     1      -2.791  11.777  18.156  0.00  0.00    +0.000 A 
ATOM      4  C   UNL     1      -1.806  10.995  18.764  0.00  0.00    +0.000 A 
ATOM      5  C   UNL     1      -1.548  11.054  20.168  0.00  0.00    +0.000 A 
ATOM      6  C   UNL     1      -2.356  11.940  20.959  0.00  0.00    +0.000 A 
ATOM      7  C   UNL     1      -2.128  11.987  22.375  0.00  0.00    +0.000 A 
ATOM      8  C   UNL     1      -1.150  11.201  22.984  0.00  0.00    +0.000 A 
ATOM      9  C   UNL     1      -0.349  10.373  22.214  0.00  0.00    +0.000 A 
ATOM     10  C   UNL     1       0.684   9.562  22.874  0.00  0.00    +0.000 A 
ATOM     11  O   UNL     1       0.903   9.633  24.077  0.00  0.00    +0.000 OA
ATOM     12  C   UNL     1       1.432   8.629  22.030  0.00  0.00    +0.000 A 
ATOM     13  C   UNL     1       1.193   8.612  20.714  0.00  0.00    +0.000 A 
ATOM     14  O   UNL     1       0.292   9.471  20.081  0.00  0.00    +0.000 OA
ATOM     15  C   UNL     1      -0.526  10.294  20.836  0.00  0.00    +0.000 A 
ENDROOT
BRANCH  13  16
ATOM     16  C   UNL     1       1.871   7.656  19.808  0.00  0.00    +0.000 A 
ATOM     17  C   UNL     1       2.032   6.308  20.153  0.00  0.00    +0.000 A 
ATOM     18  C   UNL     1       2.608   5.442  19.235  0.00  0.00    +0.000 A 
ATOM     19  N   UNL     1       3.013   5.816  18.005  0.00  0.00    +0.000 NA
ATOM     20  C   UNL     1       2.855   7.116  17.687  0.00  0.00    +0.000 A 
ATOM     21  C   UNL     1       2.315   8.061  18.547  0.00  0.00    +0.000 A 
ENDBRANCH  13  16
BRANCH   1  23
ATOM     22  C   UNL     1      -5.417  13.871  20.816  0.00  0.00    +0.000 C 
ATOM     23  O   UNL     1      -4.031  13.666  21.059  0.00  0.00    +0.000 OA
ENDBRANCH   1  23
BRANCH   4  24
ATOM     24  O   UNL     1      -1.005  10.310  17.877  0.00  0.00    +0.000 OA
ATOM     25  C   UNL     1      -1.716   9.754  16.772  0.00  0.00    +0.000 C 
ENDBRANCH   4  24
BRANCH   7  26
ATOM     26  O   UNL     1      -2.950  12.782  23.140  0.00  0.00    +0.000 OA
ATOM     27  C   UNL     1      -3.753  12.146  24.131  0.00  0.00    +0.000 C 
ENDBRANCH   7  26
TORSDOF 4
ENDMDL
MODEL 5
REMARK VINA RESULT:      -5.9      3.539      3.888
REMARK  Name = 
REMARK  7 active torsions:
REMARK  status: ('A' for Active; 'I' for Inactive)
REMARK    1  A    between atoms: C_1  and  O_2
REMARK    2  A    between atoms: O_2  and  C_3
REMARK    3  A    between atoms: C_6  and  O_7
REMARK    4  A    between atoms: O_7  and  C_8
REMARK    5  A    between atoms: C_11  and  O_12
REMARK    6  A    between atoms: O_12  and  C_13
REMARK    7  A    between atoms: C_19  and  C_20
REMARK                            x       y       z     vdW  Elec       q    Type
REMARK                         _______ _______ _______ _____ _____    ______ ____
ROOT
ATOM      1  C   UNL     1      -0.962  14.951  20.489  0.00  0.00    +0.000 A 
ATOM      2  C   UNL     1      -0.463  15.302  19.234  0.00  0.00    +0.000 A 
ATOM      3  C   UNL     1       0.239  14.377  18.479  0.00  0.00    +0.000 A 
ATOM      4  C   UNL     1       0.469  13.092  18.978  0.00  0.00    +0.000 A 
ATOM      5  C   UNL     1      -0.016  12.675  20.255  0.00  0.00    +0.000 A 
ATOM      6  C   UNL     1      -0.778  13.622  21.022  0.00  0.00    +0.000 A 
ATOM      7  C   UNL     1      -1.296  13.208  22.294  0.00  0.00    +0.000 A 
ATOM      8  C   UNL     1      -1.074  11.923  22.790  0.00  0.00    +0.000 A 
ATOM      9  C   UNL     1      -0.310  11.023  22.064  0.00  0.00    +0.000 A 
ATOM     10  C   UNL     1      -0.078   9.678  22.610  0.00  0.00    +0.000 A 
ATOM     11  O   UNL     1      -0.488   9.340  23.713  0.00  0.00    +0.000 OA
ATOM     12  C   UNL     1       0.648   8.734  21.759  0.00  0.00    +0.000 A 
ATOM     13  C   UNL     1       1.117   9.156  20.579  0.00  0.00    +0.000 A 
ATOM     14  O   UNL     1       0.992  10.470  20.122  0.00  0.00    +0.000 OA
ATOM     15  C   UNL     1       0.220  11.377  20.827  0.00  0.00    +0.000 A 
ENDROOT
BRANCH  13  16
ATOM     16  C   UNL     1       1.810   8.241  19.641  0.00  0.00    +0.000 A 
ATOM     17  C   UNL     1       2.159   8.646  18.347  0.00  0.00    +0.000 A 
ATOM     18  C   UNL     1       2.873   7.773  17.538  0.00  0.00    +0.000 A 
ATOM     19  N   UNL     1       3.275   6.548  17.930  0.00  0.00    +0.000 NA
ATOM     20  C   UNL     1       2.930   6.171  19.177  0.00  0.00    +0.000 A 
ATOM     21  C   UNL     1       2.196   6.962  20.048  0.00  0.00    +0.000 A 
ENDBRANCH  13  16
BRANCH   1  23
ATOM     22  C   UNL     1      -1.350  17.251  21.115  0.00  0.00    +0.000 C 
ATOM     23  O   UNL     1      -1.613  15.864  21.287  0.00  0.00    +0.000 OA
ENDBRANCH   1  23
BRANCH   4  24
ATOM     24  O   UNL     1       1.339  12.340  18.218  0.00  0.00    +0.000 OA
ATOM     25  C   UNL     1       2.664  12.865  18.175  0.00  0.00    +0.000 C 
ENDBRANCH   4  24
BRANCH   7  26
ATOM     26  O   UNL     1      -2.085  14.091  22.994  0.00  0.00    +0.000 OA
ATOM     27  C   UNL     1      -3.024  13.551  23.921  0.00  0.00    +0.000 C 
ENDBRANCH   7  26
TORSDOF 4
ENDMDL
MODEL 6
REMARK VINA RESULT:      -5.9      2.979      7.596
REMARK  Name = 
REMARK  7 active torsions:
REMARK  status: ('A' for Active; 'I' for Inactive)
REMARK    1  A    between atoms: C_1  and  O_2
REMARK    2  A    between atoms: O_2  and  C_3
REMARK    3  A    between atoms: C_6  and  O_7
REMARK    4  A    between atoms: O_7  and  C_8
REMARK    5  A    between atoms: C_11  and  O_12
REMARK    6  A    between atoms: O_12  and  C_13
REMARK    7  A    between atoms: C_19  and  C_20
REMARK                            x       y       z     vdW  Elec       q    Type
REMARK                         _______ _______ _______ _____ _____    ______ ____
ROOT
ATOM      1  C   UNL     1      -0.193  10.530  18.816  0.00  0.00    +0.000 A 
ATOM      2  C   UNL     1       0.656  10.918  19.854  0.00  0.00    +0.000 A 
ATOM      3  C   UNL     1       0.193  11.758  20.855  0.00  0.00    +0.000 A 
ATOM      4  C   UNL     1      -1.120  12.236  20.820  0.00  0.00    +0.000 A 
ATOM      5  C   UNL     1      -2.032  11.875  19.782  0.00  0.00    +0.000 A 
ATOM      6  C   UNL     1      -1.565  10.973  18.766  0.00  0.00    +0.000 A 
ATOM      7  C   UNL     1      -2.481  10.578  17.734  0.00  0.00    +0.000 A 
ATOM      8  C   UNL     1      -3.793  11.048  17.703  0.00  0.00    +0.000 A 
ATOM      9  C   UNL     1      -4.231  11.944  18.664  0.00  0.00    +0.000 A 
ATOM     10  C   UNL     1      -5.614  12.438  18.606  0.00  0.00    +0.000 A 
ATOM     11  O   UNL     1      -6.382  12.130  17.703  0.00  0.00    +0.000 OA
ATOM     12  C   UNL     1      -6.056  13.300  19.702  0.00  0.00    +0.000 A 
ATOM     13  C   UNL     1      -5.175  13.649  20.647  0.00  0.00    +0.000 A 
ATOM     14  O   UNL     1      -3.831  13.269  20.629  0.00  0.00    +0.000 OA
ATOM     15  C   UNL     1      -3.381  12.363  19.684  0.00  0.00    +0.000 A 
ENDROOT
BRANCH  13  16
ATOM     16  C   UNL     1      -5.566  14.472  21.815  0.00  0.00    +0.000 A 
ATOM     17  C   UNL     1      -6.910  14.679  22.149  0.00  0.00    +0.000 A 
ATOM     18  C   UNL     1      -7.216  15.396  23.297  0.00  0.00    +0.000 A 
ATOM     19  N   UNL     1      -6.289  15.901  24.135  0.00  0.00    +0.000 NA
ATOM     20  C   UNL     1      -4.999  15.697  23.799  0.00  0.00    +0.000 A 
ATOM     21  C   UNL     1      -4.596  15.016  22.660  0.00  0.00    +0.000 A 
ENDBRANCH  13  16
BRANCH   1  23
ATOM     22  C   UNL     1       1.536   9.135  17.866  0.00  0.00    +0.000 C 
ATOM     23  O   UNL     1       0.254   9.744  17.778  0.00  0.00    +0.000 OA
ENDBRANCH   1  23
BRANCH   4  24
ATOM     24  O   UNL     1      -1.389  13.208  21.759  0.00  0.00    +0.000 OA
ATOM     25  C   UNL     1      -1.333  12.737  23.104  0.00  0.00    +0.000 C 
ENDBRANCH   4  24
BRANCH   7  26
ATOM     26  O   UNL     1      -2.053   9.659  16.803  0.00  0.00    +0.000 OA
ATOM     27  C   UNL     1      -2.660   9.690  15.514  0.00  0.00    +0.000 C 
ENDBRANCH   7  26
TORSDOF 4
ENDMDL
MODEL 7
REMARK VINA RESULT:      -5.9      2.594      5.584
REMARK  Name = 
REMARK  7 active torsions:
REMARK  status: ('A' for Active; 'I' for Inactive)
REMARK    1  A    between atoms: C_1  and  O_2
REMARK    2  A    between atoms: O_2  and  C_3
REMARK    3  A    between atoms: C_6  and  O_7
REMARK    4  A    between atoms: O_7  and  C_8
REMARK    5  A    between atoms: C_11  and  O_12
REMARK    6  A    between atoms: O_12  and  C_13
REMARK    7  A    between atoms: C_19  and  C_20
REMARK                            x       y       z     vdW  Elec       q    Type
REMARK                         _______ _______ _______ _____ _____    ______ ____
ROOT
ATOM      1  C   UNL     1      -2.525  14.320  23.726  0.00  0.00    +0.000 A 
ATOM      2  C   UNL     1      -1.160  14.077  23.561  0.00  0.00    +0.000 A 
ATOM      3  C   UNL     1      -0.700  13.422  22.430  0.00  0.00    +0.000 A 
ATOM      4  C   UNL     1      -1.602  12.984  21.457  0.00  0.00    +0.000 A 
ATOM      5  C   UNL     1      -3.008  13.202  21.571  0.00  0.00    +0.000 A 
ATOM      6  C   UNL     1      -3.483  13.916  22.724  0.00  0.00    +0.000 A 
ATOM      7  C   UNL     1      -4.891  14.168  22.837  0.00  0.00    +0.000 A 
ATOM      8  C   UNL     1      -5.790  13.739  21.862  0.00  0.00    +0.000 A 
ATOM      9  C   UNL     1      -5.335  13.021  20.768  0.00  0.00    +0.000 A 
ATOM     10  C   UNL     1      -6.301  12.566  19.758  0.00  0.00    +0.000 A 
ATOM     11  O   UNL     1      -7.506  12.748  19.876  0.00  0.00    +0.000 OA
ATOM     12  C   UNL     1      -5.757  11.903  18.572  0.00  0.00    +0.000 A 
ATOM     13  C   UNL     1      -4.439  11.684  18.501  0.00  0.00    +0.000 A 
ATOM     14  O   UNL     1      -3.544  12.015  19.521  0.00  0.00    +0.000 OA
ATOM     15  C   UNL     1      -3.979  12.745  20.614  0.00  0.00    +0.000 A 
ENDROOT
BRANCH  13  16
ATOM     16  C   UNL     1      -3.811  11.069  17.307  0.00  0.00    +0.000 A 
ATOM     17  C   UNL     1      -2.699  10.226  17.416  0.00  0.00    +0.000 A 
ATOM     18  C   UNL     1      -2.199   9.620  16.273  0.00  0.00    +0.000 A 
ATOM     19  N   UNL     1      -2.734   9.778  15.046  0.00  0.00    +0.000 NA
ATOM     20  C   UNL     1      -3.803  10.594  14.956  0.00  0.00    +0.000 A 
ATOM     21  C   UNL     1      -4.357  11.264  16.036  0.00  0.00    +0.000 A 
ENDBRANCH  13  16
BRANCH   1  23
ATOM     22  C   UNL     1      -2.114  15.515  25.784  0.00  0.00    +0.000 C 
ATOM     23  O   UNL     1      -3.018  14.916  24.864  0.00  0.00    +0.000 OA
ENDBRANCH   1  23
BRANCH   4  24
ATOM     24  O   UNL     1      -1.037  12.183  20.487  0.00  0.00    +0.000 OA
ATOM     25  C   UNL     1      -0.471  10.977  20.997  0.00  0.00    +0.000 C 
ENDBRANCH   4  24
BRANCH   7  26
ATOM     26  O   UNL     1      -5.334  14.914  23.906  0.00  0.00    +0.000 OA
ATOM     27  C   UNL     1      -6.612  15.535  23.796  0.00  0.00    +0.000 C 
ENDBRANCH   7  26
TORSDOF 4
ENDMDL
MODEL 8
REMARK VINA RESULT:      -5.9      3.044      7.712
REMARK  Name = 
REMARK  7 active torsions:
REMARK  status: ('A' for Active; 'I' for Inactive)
REMARK    1  A    between atoms: C_1  and  O_2
REMARK    2  A    between atoms: O_2  and  C_3
REMARK    3  A    between atoms: C_6  and  O_7
REMARK    4  A    between atoms: O_7  and  C_8
REMARK    5  A    between atoms: C_11  and  O_12
REMARK    6  A    between atoms: O_12  and  C_13
REMARK    7  A    between atoms: C_19  and  C_20
REMARK                            x       y       z     vdW  Elec       q    Type
REMARK                         _______ _______ _______ _____ _____    ______ ____
ROOT
ATOM      1  C   UNL     1      -0.408  10.734  18.926  0.00  0.00    +0.000 A 
ATOM      2  C   UNL     1       0.289  10.975  20.112  0.00  0.00    +0.000 A 
ATOM      3  C   UNL     1      -0.348  11.578  21.185  0.00  0.00    +0.000 A 
ATOM      4  C   UNL     1      -1.687  11.966  21.079  0.00  0.00    +0.000 A 
ATOM      5  C   UNL     1      -2.450  11.747  19.892  0.00  0.00    +0.000 A 
ATOM      6  C   UNL     1      -1.802  11.087  18.793  0.00  0.00    +0.000 A 
ATOM      7  C   UNL     1      -2.565  10.834  17.605  0.00  0.00    +0.000 A 
ATOM      8  C   UNL     1      -3.903  11.213  17.502  0.00  0.00    +0.000 A 
ATOM      9  C   UNL     1      -4.516  11.880  18.550  0.00  0.00    +0.000 A 
ATOM     10  C   UNL     1      -5.924  12.283  18.417  0.00  0.00    +0.000 A 
ATOM     11  O   UNL     1      -6.562  12.101  17.387  0.00  0.00    +0.000 OA
ATOM     12  C   UNL     1      -6.553  12.892  19.590  0.00  0.00    +0.000 A 
ATOM     13  C   UNL     1      -5.810  13.113  20.680  0.00  0.00    +0.000 A 
ATOM     14  O   UNL     1      -4.443  12.834  20.755  0.00  0.00    +0.000 OA
ATOM     15  C   UNL     1      -3.819  12.155  19.723  0.00  0.00    +0.000 A 
ENDROOT
BRANCH  13  16
ATOM     16  C   UNL     1      -6.392  13.673  21.922  0.00  0.00    +0.000 A 
ATOM     17  C   UNL     1      -6.198  15.012  22.284  0.00  0.00    +0.000 A 
ATOM     18  C   UNL     1      -6.829  15.501  23.419  0.00  0.00    +0.000 A 
ATOM     19  N   UNL     1      -7.644  14.764  24.200  0.00  0.00    +0.000 NA
ATOM     20  C   UNL     1      -7.819  13.477  23.842  0.00  0.00    +0.000 A 
ATOM     21  C   UNL     1      -7.211  12.892  22.741  0.00  0.00    +0.000 A 
ENDBRANCH  13  16
BRANCH   1  23
ATOM     22  C   UNL     1       1.451   9.513  17.987  0.00  0.00    +0.000 C 
ATOM     23  O   UNL     1       0.212  10.190  17.825  0.00  0.00    +0.000 OA
ENDBRANCH   1  23
BRANCH   4  24
ATOM     24  O   UNL     1      -2.138  12.723  22.139  0.00  0.00    +0.000 OA
ATOM     25  C   UNL     1      -2.354  11.970  23.331  0.00  0.00    +0.000 C 
ENDBRANCH   4  24
BRANCH   7  26
ATOM     26  O   UNL     1      -1.964  10.137  16.582  0.00  0.00    +0.000 OA
ATOM     27  C   UNL     1      -2.667  10.036  15.346  0.00  0.00    +0.000 C 
ENDBRANCH   7  26
TORSDOF 4
ENDMDL
MODEL 9
REMARK VINA RESULT:      -5.8      2.684      5.733
REMARK  Name = 
REMARK  7 active torsions:
REMARK  status: ('A' for Active; 'I' for Inactive)
REMARK    1  A    between atoms: C_1  and  O_2
REMARK    2  A    between atoms: O_2  and  C_3
REMARK    3  A    between atoms: C_6  and  O_7
REMARK    4  A    between atoms: O_7  and  C_8
REMARK    5  A    between atoms: C_11  and  O_12
REMARK    6  A    between atoms: O_12  and  C_13
REMARK    7  A    between atoms: C_19  and  C_20
REMARK                            x       y       z     vdW  Elec       q    Type
REMARK                         _______ _______ _______ _____ _____    ______ ____
ROOT
ATOM      1  C   UNL     1      -2.198  14.827  23.803  0.00  0.00    +0.000 A 
ATOM      2  C   UNL     1      -0.840  14.654  23.529  0.00  0.00    +0.000 A 
ATOM      3  C   UNL     1      -0.439  13.960  22.398  0.00  0.00    +0.000 A 
ATOM      4  C   UNL     1      -1.392  13.414  21.535  0.00  0.00    +0.000 A 
ATOM      5  C   UNL     1      -2.795  13.556  21.764  0.00  0.00    +0.000 A 
ATOM      6  C   UNL     1      -3.212  14.308  22.915  0.00  0.00    +0.000 A 
ATOM      7  C   UNL     1      -4.618  14.485  23.141  0.00  0.00    +0.000 A 
ATOM      8  C   UNL     1      -5.569  13.946  22.275  0.00  0.00    +0.000 A 
ATOM      9  C   UNL     1      -5.166  13.192  21.185  0.00  0.00    +0.000 A 
ATOM     10  C   UNL     1      -6.186  12.623  20.292  0.00  0.00    +0.000 A 
ATOM     11  O   UNL     1      -7.385  12.742  20.508  0.00  0.00    +0.000 OA
ATOM     12  C   UNL     1      -5.705  11.923  19.100  0.00  0.00    +0.000 A 
ATOM     13  C   UNL     1      -4.387  11.777  18.922  0.00  0.00    +0.000 A 
ATOM     14  O   UNL     1      -3.430  12.220  19.838  0.00  0.00    +0.000 OA
ATOM     15  C   UNL     1      -3.814  12.987  20.924  0.00  0.00    +0.000 A 
ENDROOT
BRANCH  13  16
ATOM     16  C   UNL     1      -3.828  11.131  17.712  0.00  0.00    +0.000 A 
ATOM     17  C   UNL     1      -4.395  11.329  16.447  0.00  0.00    +0.000 A 
ATOM     18  C   UNL     1      -3.785  10.759  15.339  0.00  0.00    +0.000 A 
ATOM     19  N   UNL     1      -2.654  10.029  15.399  0.00  0.00    +0.000 NA
ATOM     20  C   UNL     1      -2.121   9.843  16.623  0.00  0.00    +0.000 A 
ATOM     21  C   UNL     1      -2.672  10.351  17.790  0.00  0.00    +0.000 A 
ENDBRANCH  13  16
BRANCH   1  23
ATOM     22  C   UNL     1      -1.704  15.690  26.004  0.00  0.00    +0.000 C 
ATOM     23  O   UNL     1      -2.627  15.460  24.947  0.00  0.00    +0.000 OA
ENDBRANCH   1  23
BRANCH   4  24
ATOM     24  O   UNL     1      -0.864  12.591  20.564  0.00  0.00    +0.000 OA
ATOM     25  C   UNL     1       0.056  11.625  21.068  0.00  0.00    +0.000 C 
ENDBRANCH   4  24
BRANCH   7  26
ATOM     26  O   UNL     1      -5.013  15.265  24.203  0.00  0.00    +0.000 OA
ATOM     27  C   UNL     1      -5.926  16.327  23.941  0.00  0.00    +0.000 C 
ENDBRANCH   7  26
TORSDOF 4
ENDMDL
