MODEL 1
REMARK VINA RESULT:      -7.9      0.000      0.000
REMARK  Name = 
REMARK  4 active torsions:
REMARK  status: ('A' for Active; 'I' for Inactive)
REMARK    1  A    between atoms: C_1  and  C_2
REMARK    2  A    between atoms: N_9  and  C_10
REMARK    3  A    between atoms: C_10  and  C_11
REMARK    4  A    between atoms: C_10  and  C_14
REMARK                            x       y       z     vdW  Elec       q    Type
REMARK                         _______ _______ _______ _____ _____    ______ ____
ROOT
ATOM      1  C   UNL     1       4.529   4.721  18.277  0.00  0.00    +0.000 C 
ENDROOT
BRANCH   1  10
ATOM      2  C   UNL     1      -0.049   8.879  22.313  0.00  0.00    +0.000 C 
ATOM      3  C   UNL     1       0.702   8.659  21.038  0.00  0.00    +0.000 A 
ATOM      4  N   UNL     1       0.582   9.593  20.077  0.00  0.00    +0.000 NA
ATOM      5  C   UNL     1       1.269   9.371  18.943  0.00  0.00    +0.000 A 
ATOM      6  C   UNL     1       2.074   8.271  18.736  0.00  0.00    +0.000 A 
ATOM      7  C   UNL     1       2.128   7.363  19.780  0.00  0.00    +0.000 A 
ATOM      8  N   UNL     1       1.460   7.548  20.940  0.00  0.00    +0.000 NA
ATOM      9  C   UNL     1       3.057   6.161  19.697  0.00  0.00    +0.000 C 
ATOM     10  N   UNL     1       3.473   5.789  18.326  0.00  0.00    +0.000 NA
ATOM     11  C   UNL     1       3.926   7.002  17.606  0.00  0.00    +0.000 C 
ATOM     12  C   UNL     1       2.801   8.038  17.454  0.00  0.00    +0.000 C 
ENDBRANCH   1  10
BRANCH   1  13
ATOM     13  C   UNL     1       5.349   4.609  16.976  0.00  0.00    +0.000 A 
ATOM     14  C   UNL     1       4.784   4.244  15.740  0.00  0.00    +0.000 A 
ATOM     15  C   UNL     1       5.525   4.308  14.553  0.00  0.00    +0.000 A 
ATOM     16  C   UNL     1       6.832   4.771  14.576  0.00  0.00    +0.000 A 
ATOM     17  F   UNL     1       7.519   4.885  13.434  0.00  0.00    +0.000 F 
ATOM     18  C   UNL     1       7.424   5.142  15.775  0.00  0.00    +0.000 A 
ATOM     19  C   UNL     1       6.693   5.056  16.964  0.00  0.00    +0.000 A 
ENDBRANCH   1  13
BRANCH   1  20
ATOM     20  C   UNL     1       4.022   3.370  18.860  0.00  0.00    +0.000 C 
ATOM     21  N   UNL     1       4.872   2.621  19.624  0.00  0.00    +0.000 N 
ATOM     22  O   UNL     1       2.911   2.910  18.592  0.00  0.00    +0.000 OA
ATOM     23  H   UNL     1       5.830   2.875  19.802  0.00  0.00    +0.000 HD
ATOM     24  H   UNL     1       4.546   1.702  19.901  0.00  0.00    +0.000 HD
ENDBRANCH   1  20
TORSDOF 3
ENDMDL
MODEL 2
REMARK VINA RESULT:      -7.9      3.149      6.807
REMARK  Name = 
REMARK  4 active torsions:
REMARK  status: ('A' for Active; 'I' for Inactive)
REMARK    1  A    between atoms: C_1  and  C_2
REMARK    2  A    between atoms: N_9  and  C_10
REMARK    3  A    between atoms: C_10  and  C_11
REMARK    4  A    between atoms: C_10  and  C_14
REMARK                            x       y       z     vdW  Elec       q    Type
REMARK                         _______ _______ _______ _____ _____    ______ ____
ROOT
ATOM      1  C   UNL     1       2.218   5.136  19.369  0.00  0.00    +0.000 C 
ENDROOT
BRANCH   1  10
ATOM      2  C   UNL     1       6.601   4.015  13.532  0.00  0.00    +0.000 C 
ATOM      3  C   UNL     1       6.453   4.286  14.996  0.00  0.00    +0.000 A 
ATOM      4  N   UNL     1       7.579   4.417  15.721  0.00  0.00    +0.000 NA
ATOM      5  C   UNL     1       7.416   4.662  17.033  0.00  0.00    +0.000 A 
ATOM      6  C   UNL     1       6.186   4.792  17.642  0.00  0.00    +0.000 A 
ATOM      7  C   UNL     1       5.087   4.634  16.815  0.00  0.00    +0.000 A 
ATOM      8  N   UNL     1       5.203   4.394  15.489  0.00  0.00    +0.000 NA
ATOM      9  C   UNL     1       3.684   4.850  17.362  0.00  0.00    +0.000 C 
ATOM     10  N   UNL     1       3.566   4.741  18.834  0.00  0.00    +0.000 NA
ATOM     11  C   UNL     1       4.634   5.546  19.470  0.00  0.00    +0.000 C 
ATOM     12  C   UNL     1       6.037   5.034  19.107  0.00  0.00    +0.000 C 
ENDBRANCH   1  10
BRANCH   1  13
ATOM     13  C   UNL     1       1.971   6.640  19.599  0.00  0.00    +0.000 A 
ATOM     14  C   UNL     1       2.055   7.599  18.572  0.00  0.00    +0.000 A 
ATOM     15  C   UNL     1       1.669   8.929  18.783  0.00  0.00    +0.000 A 
ATOM     16  C   UNL     1       1.158   9.315  20.013  0.00  0.00    +0.000 A 
ATOM     17  F   UNL     1       0.737  10.571  20.195  0.00  0.00    +0.000 F 
ATOM     18  C   UNL     1       1.058   8.398  21.050  0.00  0.00    +0.000 A 
ATOM     19  C   UNL     1       1.465   7.076  20.847  0.00  0.00    +0.000 A 
ENDBRANCH   1  13
BRANCH   1  20
ATOM     20  C   UNL     1       1.752   4.203  20.524  0.00  0.00    +0.000 C 
ATOM     21  N   UNL     1       0.559   3.547  20.401  0.00  0.00    +0.000 N 
ATOM     22  O   UNL     1       2.376   4.096  21.579  0.00  0.00    +0.000 OA
ATOM     23  H   UNL     1      -0.062   3.663  19.616  0.00  0.00    +0.000 HD
ATOM     24  H   UNL     1       0.237   3.031  21.212  0.00  0.00    +0.000 HD
ENDBRANCH   1  20
TORSDOF 3
ENDMDL
MODEL 3
REMARK VINA RESULT:      -7.8      2.466      3.666
REMARK  Name = 
REMARK  4 active torsions:
REMARK  status: ('A' for Active; 'I' for Inactive)
REMARK    1  A    between atoms: C_1  and  C_2
REMARK    2  A    between atoms: N_9  and  C_10
REMARK    3  A    between atoms: C_10  and  C_11
REMARK    4  A    between atoms: C_10  and  C_14
REMARK                            x       y       z     vdW  Elec       q    Type
REMARK                         _______ _______ _______ _____ _____    ______ ____
ROOT
ATOM      1  C   UNL     1       6.212   5.751  16.393  0.00  0.00    +0.000 C 
ENDROOT
BRANCH   1  10
ATOM      2  C   UNL     1       2.118   2.617  21.680  0.00  0.00    +0.000 C 
ATOM      3  C   UNL     1       2.344   3.751  20.731  0.00  0.00    +0.000 A 
ATOM      4  N   UNL     1       1.451   4.759  20.741  0.00  0.00    +0.000 NA
ATOM      5  C   UNL     1       1.680   5.765  19.880  0.00  0.00    +0.000 A 
ATOM      6  C   UNL     1       2.760   5.813  19.025  0.00  0.00    +0.000 A 
ATOM      7  C   UNL     1       3.620   4.727  19.083  0.00  0.00    +0.000 A 
ATOM      8  N   UNL     1       3.432   3.696  19.937  0.00  0.00    +0.000 NA
ATOM      9  C   UNL     1       4.893   4.718  18.251  0.00  0.00    +0.000 C 
ATOM     10  N   UNL     1       4.886   5.638  17.091  0.00  0.00    +0.000 NA
ATOM     11  C   UNL     1       4.413   6.972  17.528  0.00  0.00    +0.000 C 
ATOM     12  C   UNL     1       2.972   6.929  18.059  0.00  0.00    +0.000 C 
ENDBRANCH   1  10
BRANCH   1  13
ATOM     13  C   UNL     1       6.310   5.150  14.977  0.00  0.00    +0.000 A 
ATOM     14  C   UNL     1       7.408   5.367  14.124  0.00  0.00    +0.000 A 
ATOM     15  C   UNL     1       7.536   4.678  12.911  0.00  0.00    +0.000 A 
ATOM     16  C   UNL     1       6.586   3.735  12.547  0.00  0.00    +0.000 A 
ATOM     17  F   UNL     1       6.739   3.037  11.416  0.00  0.00    +0.000 F 
ATOM     18  C   UNL     1       5.490   3.492  13.362  0.00  0.00    +0.000 A 
ATOM     19  C   UNL     1       5.350   4.196  14.562  0.00  0.00    +0.000 A 
ENDBRANCH   1  13
BRANCH   1  20
ATOM     20  C   UNL     1       7.402   5.415  17.340  0.00  0.00    +0.000 C 
ATOM     21  N   UNL     1       7.817   6.358  18.238  0.00  0.00    +0.000 N 
ATOM     22  O   UNL     1       8.035   4.363  17.256  0.00  0.00    +0.000 OA
ATOM     23  H   UNL     1       7.420   7.282  18.297  0.00  0.00    +0.000 HD
ATOM     24  H   UNL     1       8.656   6.146  18.765  0.00  0.00    +0.000 HD
ENDBRANCH   1  20
TORSDOF 3
ENDMDL
MODEL 4
REMARK VINA RESULT:      -7.7      2.458      3.495
REMARK  Name = 
REMARK  4 active torsions:
REMARK  status: ('A' for Active; 'I' for Inactive)
REMARK    1  A    between atoms: C_1  and  C_2
REMARK    2  A    between atoms: N_9  and  C_10
REMARK    3  A    between atoms: C_10  and  C_11
REMARK    4  A    between atoms: C_10  and  C_14
REMARK                            x       y       z     vdW  Elec       q    Type
REMARK                         _______ _______ _______ _____ _____    ______ ____
ROOT
ATOM      1  C   UNL     1       6.270   5.661  16.710  0.00  0.00    +0.000 C 
ENDROOT
BRANCH   1  10
ATOM      2  C   UNL     1       1.889   2.513  21.753  0.00  0.00    +0.000 C 
ATOM      3  C   UNL     1       2.156   3.639  20.805  0.00  0.00    +0.000 A 
ATOM      4  N   UNL     1       1.245   4.627  20.740  0.00  0.00    +0.000 NA
ATOM      5  C   UNL     1       1.512   5.626  19.881  0.00  0.00    +0.000 A 
ATOM      6  C   UNL     1       2.647   5.685  19.100  0.00  0.00    +0.000 A 
ATOM      7  C   UNL     1       3.522   4.619  19.232  0.00  0.00    +0.000 A 
ATOM      8  N   UNL     1       3.298   3.596  20.088  0.00  0.00    +0.000 NA
ATOM      9  C   UNL     1       4.849   4.626  18.489  0.00  0.00    +0.000 C 
ATOM     10  N   UNL     1       4.902   5.530  17.318  0.00  0.00    +0.000 NA
ATOM     11  C   UNL     1       4.373   6.859  17.701  0.00  0.00    +0.000 C 
ATOM     12  C   UNL     1       2.900   6.793  18.134  0.00  0.00    +0.000 C 
ENDBRANCH   1  10
BRANCH   1  13
ATOM     13  C   UNL     1       6.492   4.994  15.338  0.00  0.00    +0.000 A 
ATOM     14  C   UNL     1       5.570   4.103  14.759  0.00  0.00    +0.000 A 
ATOM     15  C   UNL     1       5.728   3.641  13.446  0.00  0.00    +0.000 A 
ATOM     16  C   UNL     1       6.792   4.091  12.677  0.00  0.00    +0.000 A 
ATOM     17  F   UNL     1       6.910   3.694  11.406  0.00  0.00    +0.000 F 
ATOM     18  C   UNL     1       7.721   4.971  13.212  0.00  0.00    +0.000 A 
ATOM     19  C   UNL     1       7.577   5.414  14.531  0.00  0.00    +0.000 A 
ENDBRANCH   1  13
BRANCH   1  20
ATOM     20  C   UNL     1       7.400   5.423  17.754  0.00  0.00    +0.000 C 
ATOM     21  N   UNL     1       7.842   6.480  18.499  0.00  0.00    +0.000 N 
ATOM     22  O   UNL     1       7.966   4.337  17.878  0.00  0.00    +0.000 OA
ATOM     23  H   UNL     1       7.505   7.421  18.385  0.00  0.00    +0.000 HD
ATOM     24  H   UNL     1       8.646   6.313  19.094  0.00  0.00    +0.000 HD
ENDBRANCH   1  20
TORSDOF 3
ENDMDL
MODEL 5
REMARK VINA RESULT:      -7.7      1.288      2.118
REMARK  Name = 
REMARK  4 active torsions:
REMARK  status: ('A' for Active; 'I' for Inactive)
REMARK    1  A    between atoms: C_1  and  C_2
REMARK    2  A    between atoms: N_9  and  C_10
REMARK    3  A    between atoms: C_10  and  C_11
REMARK    4  A    between atoms: C_10  and  C_14
REMARK                            x       y       z     vdW  Elec       q    Type
REMARK                         _______ _______ _______ _____ _____    ______ ____
ROOT
ATOM      1  C   UNL     1       4.228   3.625  18.159  0.00  0.00    +0.000 C 
ENDROOT
BRANCH   1  10
ATOM      2  C   UNL     1       1.385  10.440  18.229  0.00  0.00    +0.000 C 
ATOM      3  C   UNL     1       1.619   9.137  18.926  0.00  0.00    +0.000 A 
ATOM      4  N   UNL     1       1.123   8.998  20.169  0.00  0.00    +0.000 NA
ATOM      5  C   UNL     1       1.346   7.816  20.770  0.00  0.00    +0.000 A 
ATOM      6  C   UNL     1       2.028   6.773  20.182  0.00  0.00    +0.000 A 
ATOM      7  C   UNL     1       2.506   7.013  18.904  0.00  0.00    +0.000 A 
ATOM      8  N   UNL     1       2.300   8.183  18.259  0.00  0.00    +0.000 NA
ATOM      9  C   UNL     1       3.191   5.900  18.125  0.00  0.00    +0.000 C 
ATOM     10  N   UNL     1       3.722   4.795  18.954  0.00  0.00    +0.000 NA
ATOM     11  C   UNL     1       2.681   4.360  19.914  0.00  0.00    +0.000 C 
ATOM     12  C   UNL     1       2.286   5.483  20.886  0.00  0.00    +0.000 C 
ENDBRANCH   1  10
BRANCH   1  13
ATOM     13  C   UNL     1       5.213   3.932  17.013  0.00  0.00    +0.000 A 
ATOM     14  C   UNL     1       4.852   3.877  15.654  0.00  0.00    +0.000 A 
ATOM     15  C   UNL     1       5.724   4.316  14.650  0.00  0.00    +0.000 A 
ATOM     16  C   UNL     1       6.959   4.851  14.990  0.00  0.00    +0.000 A 
ATOM     17  F   UNL     1       7.766   5.322  14.034  0.00  0.00    +0.000 F 
ATOM     18  C   UNL     1       7.350   4.924  16.319  0.00  0.00    +0.000 A 
ATOM     19  C   UNL     1       6.489   4.464  17.321  0.00  0.00    +0.000 A 
ENDBRANCH   1  13
BRANCH   1  20
ATOM     20  C   UNL     1       3.092   2.622  17.805  0.00  0.00    +0.000 C 
ATOM     21  N   UNL     1       3.190   1.332  18.246  0.00  0.00    +0.000 N 
ATOM     22  O   UNL     1       2.148   2.924  17.076  0.00  0.00    +0.000 OA
ATOM     23  H   UNL     1       3.981   0.978  18.758  0.00  0.00    +0.000 HD
ATOM     24  H   UNL     1       2.487   0.682  17.913  0.00  0.00    +0.000 HD
ENDBRANCH   1  20
TORSDOF 3
ENDMDL
MODEL 6
REMARK VINA RESULT:      -7.6      1.230      2.271
REMARK  Name = 
REMARK  4 active torsions:
REMARK  status: ('A' for Active; 'I' for Inactive)
REMARK    1  A    between atoms: C_1  and  C_2
REMARK    2  A    between atoms: N_9  and  C_10
REMARK    3  A    between atoms: C_10  and  C_11
REMARK    4  A    between atoms: C_10  and  C_14
REMARK                            x       y       z     vdW  Elec       q    Type
REMARK                         _______ _______ _______ _____ _____    ______ ____
ROOT
ATOM      1  C   UNL     1       4.367   3.807  18.091  0.00  0.00    +0.000 C 
ENDROOT
BRANCH   1  10
ATOM      2  C   UNL     1       1.200  10.451  18.697  0.00  0.00    +0.000 C 
ATOM      3  C   UNL     1       1.471   9.098  19.275  0.00  0.00    +0.000 A 
ATOM      4  N   UNL     1       0.938   8.817  20.478  0.00  0.00    +0.000 NA
ATOM      5  C   UNL     1       1.196   7.593  20.972  0.00  0.00    +0.000 A 
ATOM      6  C   UNL     1       1.947   6.643  20.315  0.00  0.00    +0.000 A 
ATOM      7  C   UNL     1       2.459   7.028  19.086  0.00  0.00    +0.000 A 
ATOM      8  N   UNL     1       2.220   8.244  18.547  0.00  0.00    +0.000 NA
ATOM      9  C   UNL     1       3.224   6.027  18.233  0.00  0.00    +0.000 C 
ATOM     10  N   UNL     1       3.776   4.871  18.973  0.00  0.00    +0.000 NA
ATOM     11  C   UNL     1       2.724   4.299  19.845  0.00  0.00    +0.000 C 
ATOM     12  C   UNL     1       2.241   5.304  20.903  0.00  0.00    +0.000 C 
ENDBRANCH   1  10
BRANCH   1  13
ATOM     13  C   UNL     1       5.248   4.280  16.919  0.00  0.00    +0.000 A 
ATOM     14  C   UNL     1       6.567   4.741  17.086  0.00  0.00    +0.000 A 
ATOM     15  C   UNL     1       7.390   5.011  15.986  0.00  0.00    +0.000 A 
ATOM     16  C   UNL     1       6.920   4.792  14.699  0.00  0.00    +0.000 A 
ATOM     17  F   UNL     1       7.726   4.996  13.652  0.00  0.00    +0.000 F 
ATOM     18  C   UNL     1       5.626   4.336  14.493  0.00  0.00    +0.000 A 
ATOM     19  C   UNL     1       4.796   4.089  15.591  0.00  0.00    +0.000 A 
ENDBRANCH   1  13
BRANCH   1  20
ATOM     20  C   UNL     1       3.331   2.700  17.737  0.00  0.00    +0.000 C 
ATOM     21  N   UNL     1       3.618   1.402  18.056  0.00  0.00    +0.000 N 
ATOM     22  O   UNL     1       2.300   2.937  17.108  0.00  0.00    +0.000 OA
ATOM     23  H   UNL     1       4.486   1.111  18.475  0.00  0.00    +0.000 HD
ATOM     24  H   UNL     1       2.972   0.697  17.720  0.00  0.00    +0.000 HD
ENDBRANCH   1  20
TORSDOF 3
ENDMDL
MODEL 7
REMARK VINA RESULT:      -7.6      1.094      1.515
REMARK  Name = 
REMARK  4 active torsions:
REMARK  status: ('A' for Active; 'I' for Inactive)
REMARK    1  A    between atoms: C_1  and  C_2
REMARK    2  A    between atoms: N_9  and  C_10
REMARK    3  A    between atoms: C_10  and  C_11
REMARK    4  A    between atoms: C_10  and  C_14
REMARK                            x       y       z     vdW  Elec       q    Type
REMARK                         _______ _______ _______ _____ _____    ______ ____
ROOT
ATOM      1  C   UNL     1       3.387   5.001  18.331  0.00  0.00    +0.000 C 
ENDROOT
BRANCH   1  10
ATOM      2  C   UNL     1      -0.027   9.632  22.960  0.00  0.00    +0.000 C 
ATOM      3  C   UNL     1       0.542   9.356  21.605  0.00  0.00    +0.000 A 
ATOM      4  N   UNL     1       0.472  10.339  20.688  0.00  0.00    +0.000 NA
ATOM      5  C   UNL     1       0.993  10.065  19.480  0.00  0.00    +0.000 A 
ATOM      6  C   UNL     1       1.587   8.864  19.155  0.00  0.00    +0.000 A 
ATOM      7  C   UNL     1       1.605   7.912  20.162  0.00  0.00    +0.000 A 
ATOM      8  N   UNL     1       1.100   8.147  21.394  0.00  0.00    +0.000 NA
ATOM      9  C   UNL     1       2.318   6.586  19.944  0.00  0.00    +0.000 C 
ATOM     10  N   UNL     1       2.524   6.216  18.525  0.00  0.00    +0.000 NA
ATOM     11  C   UNL     1       3.086   7.375  17.794  0.00  0.00    +0.000 C 
ATOM     12  C   UNL     1       2.129   8.578  17.795  0.00  0.00    +0.000 C 
ENDBRANCH   1  10
BRANCH   1  13
ATOM     13  C   UNL     1       4.538   5.117  17.312  0.00  0.00    +0.000 A 
ATOM     14  C   UNL     1       5.786   5.688  17.624  0.00  0.00    +0.000 A 
ATOM     15  C   UNL     1       6.859   5.633  16.725  0.00  0.00    +0.000 A 
ATOM     16  C   UNL     1       6.713   4.974  15.513  0.00  0.00    +0.000 A 
ATOM     17  F   UNL     1       7.754   4.873  14.680  0.00  0.00    +0.000 F 
ATOM     18  C   UNL     1       5.499   4.396  15.170  0.00  0.00    +0.000 A 
ATOM     19  C   UNL     1       4.420   4.472  16.057  0.00  0.00    +0.000 A 
ENDBRANCH   1  13
BRANCH   1  20
ATOM     20  C   UNL     1       2.545   3.695  18.234  0.00  0.00    +0.000 C 
ATOM     21  N   UNL     1       3.057   2.540  18.755  0.00  0.00    +0.000 N 
ATOM     22  O   UNL     1       1.472   3.645  17.633  0.00  0.00    +0.000 OA
ATOM     23  H   UNL     1       3.973   2.475  19.168  0.00  0.00    +0.000 HD
ATOM     24  H   UNL     1       2.531   1.691  18.585  0.00  0.00    +0.000 HD
ENDBRANCH   1  20
TORSDOF 3
ENDMDL
MODEL 8
REMARK VINA RESULT:      -7.5      3.107      6.724
REMARK  Name = 
REMARK  4 active torsions:
REMARK  status: ('A' for Active; 'I' for Inactive)
REMARK    1  A    between atoms: C_1  and  C_2
REMARK    2  A    between atoms: N_9  and  C_10
REMARK    3  A    between atoms: C_10  and  C_11
REMARK    4  A    between atoms: C_10  and  C_14
REMARK                            x       y       z     vdW  Elec       q    Type
REMARK                         _______ _______ _______ _____ _____    ______ ____
ROOT
ATOM      1  C   UNL     1       2.225   4.689  19.328  0.00  0.00    +0.000 C 
ENDROOT
BRANCH   1  10
ATOM      2  C   UNL     1       6.702   4.058  13.489  0.00  0.00    +0.000 C 
ATOM      3  C   UNL     1       6.526   4.304  14.954  0.00  0.00    +0.000 A 
ATOM      4  N   UNL     1       7.632   4.548  15.681  0.00  0.00    +0.000 NA
ATOM      5  C   UNL     1       7.444   4.768  16.994  0.00  0.00    +0.000 A 
ATOM      6  C   UNL     1       6.208   4.767  17.603  0.00  0.00    +0.000 A 
ATOM      7  C   UNL     1       5.130   4.500  16.773  0.00  0.00    +0.000 A 
ATOM      8  N   UNL     1       5.271   4.279  15.447  0.00  0.00    +0.000 NA
ATOM      9  C   UNL     1       3.713   4.566  17.321  0.00  0.00    +0.000 C 
ATOM     10  N   UNL     1       3.606   4.439  18.792  0.00  0.00    +0.000 NA
ATOM     11  C   UNL     1       4.585   5.347  19.433  0.00  0.00    +0.000 C 
ATOM     12  C   UNL     1       6.034   4.985  19.069  0.00  0.00    +0.000 C 
ENDBRANCH   1  10
BRANCH   1  13
ATOM     13  C   UNL     1       1.822   6.158  19.563  0.00  0.00    +0.000 A 
ATOM     14  C   UNL     1       1.441   6.659  20.821  0.00  0.00    +0.000 A 
ATOM     15  C   UNL     1       1.237   8.029  21.030  0.00  0.00    +0.000 A 
ATOM     16  C   UNL     1       1.445   8.926  19.992  0.00  0.00    +0.000 A 
ATOM     17  F   UNL     1       1.305  10.238  20.208  0.00  0.00    +0.000 F 
ATOM     18  C   UNL     1       1.822   8.471  18.737  0.00  0.00    +0.000 A 
ATOM     19  C   UNL     1       2.004   7.101  18.522  0.00  0.00    +0.000 A 
ENDBRANCH   1  13
BRANCH   1  20
ATOM     20  C   UNL     1       1.858   3.708  20.480  0.00  0.00    +0.000 C 
ATOM     21  N   UNL     1       0.599   3.179  20.519  0.00  0.00    +0.000 N 
ATOM     22  O   UNL     1       2.632   3.455  21.403  0.00  0.00    +0.000 OA
ATOM     23  H   UNL     1      -0.126   3.417  19.861  0.00  0.00    +0.000 HD
ATOM     24  H   UNL     1       0.362   2.627  21.335  0.00  0.00    +0.000 HD
ENDBRANCH   1  20
TORSDOF 3
ENDMDL
MODEL 9
REMARK VINA RESULT:      -7.4      1.998      2.509
REMARK  Name = 
REMARK  4 active torsions:
REMARK  status: ('A' for Active; 'I' for Inactive)
REMARK    1  A    between atoms: C_1  and  C_2
REMARK    2  A    between atoms: N_9  and  C_10
REMARK    3  A    between atoms: C_10  and  C_11
REMARK    4  A    between atoms: C_10  and  C_14
REMARK                            x       y       z     vdW  Elec       q    Type
REMARK                         _______ _______ _______ _____ _____    ______ ____
ROOT
ATOM      1  C   UNL     1       2.788   5.321  20.056  0.00  0.00    +0.000 C 
ENDROOT
BRANCH   1  10
ATOM      2  C   UNL     1      -0.697  11.429  22.311  0.00  0.00    +0.000 C 
ATOM      3  C   UNL     1      -0.015  10.667  21.219  0.00  0.00    +0.000 A 
ATOM      4  N   UNL     1       0.092  11.262  20.017  0.00  0.00    +0.000 NA
ATOM      5  C   UNL     1       0.712  10.554  19.056  0.00  0.00    +0.000 A 
ATOM      6  C   UNL     1       1.235   9.294  19.248  0.00  0.00    +0.000 A 
ATOM      7  C   UNL     1       1.070   8.762  20.517  0.00  0.00    +0.000 A 
ATOM      8  N   UNL     1       0.460   9.440  21.516  0.00  0.00    +0.000 NA
ATOM      9  C   UNL     1       1.691   7.418  20.867  0.00  0.00    +0.000 C 
ATOM     10  N   UNL     1       2.012   6.560  19.705  0.00  0.00    +0.000 NA
ATOM     11  C   UNL     1       2.740   7.359  18.692  0.00  0.00    +0.000 C 
ATOM     12  C   UNL     1       1.891   8.521  18.154  0.00  0.00    +0.000 C 
ENDBRANCH   1  10
BRANCH   1  13
ATOM     13  C   UNL     1       3.729   4.755  18.975  0.00  0.00    +0.000 A 
ATOM     14  C   UNL     1       3.267   4.213  17.761  0.00  0.00    +0.000 A 
ATOM     15  C   UNL     1       4.154   3.856  16.738  0.00  0.00    +0.000 A 
ATOM     16  C   UNL     1       5.516   4.068  16.896  0.00  0.00    +0.000 A 
ATOM     17  F   UNL     1       6.355   3.780  15.896  0.00  0.00    +0.000 F 
ATOM     18  C   UNL     1       6.010   4.603  18.077  0.00  0.00    +0.000 A 
ATOM     19  C   UNL     1       5.126   4.938  19.109  0.00  0.00    +0.000 A 
ENDBRANCH   1  13
BRANCH   1  20
ATOM     20  C   UNL     1       1.905   4.266  20.786  0.00  0.00    +0.000 C 
ATOM     21  N   UNL     1       0.675   3.966  20.271  0.00  0.00    +0.000 N 
ATOM     22  O   UNL     1       2.238   3.752  21.854  0.00  0.00    +0.000 OA
ATOM     23  H   UNL     1       0.286   4.419  19.460  0.00  0.00    +0.000 HD
ATOM     24  H   UNL     1       0.087   3.354  20.824  0.00  0.00    +0.000 HD
ENDBRANCH   1  20
TORSDOF 3
ENDMDL
