MODEL 1
REMARK VINA RESULT:      -8.8      0.000      0.000
REMARK  Name = 
REMARK  6 active torsions:
REMARK  status: ('A' for Active; 'I' for Inactive)
REMARK    1  A    between atoms: C_1  and  C_2
REMARK    2  A    between atoms: C_7  and  C_8
REMARK    3  A    between atoms: C_8  and  C_9
REMARK    4  A    between atoms: C_14  and  C_15
REMARK    5  A    between atoms: C_16  and  O_17
REMARK    6  A    between atoms: C_18  and  O_19
REMARK                            x       y       z     vdW  Elec       q    Type
REMARK                         _______ _______ _______ _____ _____    ______ ____
ROOT
ATOM      1  C   UNL     1       0.774   9.910  19.517  0.00  0.00    +0.000 A 
ATOM      2  C   UNL     1       0.432   9.678  20.864  0.00  0.00    +0.000 A 
ATOM      3  C   UNL     1       0.848   8.536  21.546  0.00  0.00    +0.000 A 
ATOM      4  C   UNL     1       1.626   7.570  20.908  0.00  0.00    +0.000 A 
ATOM      5  C   UNL     1       2.012   7.769  19.567  0.00  0.00    +0.000 A 
ATOM      6  C   UNL     1       2.757   7.001  18.627  0.00  0.00    +0.000 A 
ATOM      7  C   UNL     1       2.816   7.712  17.450  0.00  0.00    +0.000 A 
ATOM      8  N   UNL     1       2.128   8.880  17.639  0.00  0.00    +0.000 N 
ATOM      9  C   UNL     1       1.594   8.932  18.911  0.00  0.00    +0.000 A 
ATOM     10  H   UNL     1       2.025   9.609  16.945  0.00  0.00    +0.000 HD
ENDROOT
BRANCH   6  11
ATOM     11  C   UNL     1       3.300   5.689  18.796  0.00  0.00    +0.000 C 
ATOM     12  C   UNL     1       4.610   5.406  18.650  0.00  0.00    +0.000 C 
ATOM     13  C   UNL     1       5.168   4.093  18.875  0.00  0.00    +0.000 C 
ATOM     14  C   UNL     1       4.456   3.048  19.292  0.00  0.00    +0.000 C 
ATOM     15  C   UNL     1       3.011   3.219  19.520  0.00  0.00    +0.000 C 
ATOM     16  O   UNL     1       2.343   2.306  19.985  0.00  0.00    +0.000 OA
ATOM     17  C   UNL     1       2.381   4.563  19.160  0.00  0.00    +0.000 C 
ATOM     18  O   UNL     1       1.162   4.683  19.168  0.00  0.00    +0.000 OA
BRANCH  12  19
ATOM     19  O   UNL     1       5.571   6.336  18.284  0.00  0.00    +0.000 OA
ATOM     20  H   UNL     1       5.403   7.164  18.778  0.00  0.00    +0.000 HD
ENDBRANCH  12  19
BRANCH  13  21
ATOM     21  O   UNL     1       6.526   3.973  18.665  0.00  0.00    +0.000 OA
ATOM     22  H   UNL     1       6.624   3.397  17.878  0.00  0.00    +0.000 HD
ENDBRANCH  13  21
ENDBRANCH   6  11
BRANCH   1  23
ATOM     23  C   UNL     1       0.192  11.107  18.793  0.00  0.00    +0.000 C 
BRANCH  23  30
ATOM     24  C   UNL     1      -2.006  12.874  19.927  0.00  0.00    +0.000 C 
ATOM     25  C   UNL     1      -2.283  11.785  18.926  0.00  0.00    +0.000 A 
ATOM     26  C   UNL     1      -3.622  11.534  18.574  0.00  0.00    +0.000 A 
ATOM     27  C   UNL     1      -3.949  10.541  17.653  0.00  0.00    +0.000 A 
ATOM     28  C   UNL     1      -2.940   9.797  17.055  0.00  0.00    +0.000 A 
ATOM     29  C   UNL     1      -1.607  10.030  17.397  0.00  0.00    +0.000 A 
ATOM     30  C   UNL     1      -1.254  11.007  18.346  0.00  0.00    +0.000 A 
ENDBRANCH  23  30
ENDBRANCH   1  23
TORSDOF 5
ENDMDL
MODEL 2
REMARK VINA RESULT:      -8.6      3.531      8.074
REMARK  Name = 
REMARK  6 active torsions:
REMARK  status: ('A' for Active; 'I' for Inactive)
REMARK    1  A    between atoms: C_1  and  C_2
REMARK    2  A    between atoms: C_7  and  C_8
REMARK    3  A    between atoms: C_8  and  C_9
REMARK    4  A    between atoms: C_14  and  C_15
REMARK    5  A    between atoms: C_16  and  O_17
REMARK    6  A    between atoms: C_18  and  O_19
REMARK                            x       y       z     vdW  Elec       q    Type
REMARK                         _______ _______ _______ _____ _____    ______ ____
ROOT
ATOM      1  C   UNL     1       2.736   6.913  19.407  0.00  0.00    +0.000 A 
ATOM      2  C   UNL     1       3.035   7.170  18.053  0.00  0.00    +0.000 A 
ATOM      3  C   UNL     1       2.573   8.311  17.399  0.00  0.00    +0.000 A 
ATOM      4  C   UNL     1       1.788   9.249  18.071  0.00  0.00    +0.000 A 
ATOM      5  C   UNL     1       1.483   9.045  19.432  0.00  0.00    +0.000 A 
ATOM      6  C   UNL     1       0.708   9.760  20.390  0.00  0.00    +0.000 A 
ATOM      7  C   UNL     1       0.771   9.076  21.582  0.00  0.00    +0.000 A 
ATOM      8  N   UNL     1       1.549   7.967  21.381  0.00  0.00    +0.000 N 
ATOM      9  C   UNL     1       1.973   7.899  20.069  0.00  0.00    +0.000 A 
ATOM     10  H   UNL     1       1.787   7.290  22.094  0.00  0.00    +0.000 HD
ENDROOT
BRANCH   6  11
ATOM     11  C   UNL     1      -0.077  10.937  20.185  0.00  0.00    +0.000 C 
ATOM     12  C   UNL     1      -1.192  10.961  19.428  0.00  0.00    +0.000 C 
ATOM     13  C   UNL     1      -2.015  12.137  19.264  0.00  0.00    +0.000 C 
ATOM     14  C   UNL     1      -1.782  13.294  19.878  0.00  0.00    +0.000 C 
ATOM     15  C   UNL     1      -0.607  13.406  20.761  0.00  0.00    +0.000 C 
ATOM     16  O   UNL     1      -0.411  14.425  21.409  0.00  0.00    +0.000 OA
ATOM     17  C   UNL     1       0.347  12.216  20.841  0.00  0.00    +0.000 C 
ATOM     18  O   UNL     1       1.418  12.336  21.421  0.00  0.00    +0.000 OA
BRANCH  12  19
ATOM     19  O   UNL     1      -1.685   9.866  18.735  0.00  0.00    +0.000 OA
ATOM     20  H   UNL     1      -2.643   9.789  18.919  0.00  0.00    +0.000 HD
ENDBRANCH  12  19
BRANCH  13  21
ATOM     21  O   UNL     1      -3.113  11.992  18.442  0.00  0.00    +0.000 OA
ATOM     22  H   UNL     1      -2.948  11.180  17.917  0.00  0.00    +0.000 HD
ENDBRANCH  13  21
ENDBRANCH   6  11
BRANCH   1  23
ATOM     23  C   UNL     1       3.162   5.599  20.029  0.00  0.00    +0.000 C 
BRANCH  23  30
ATOM     24  C   UNL     1       4.212   3.750  17.857  0.00  0.00    +0.000 C 
ATOM     25  C   UNL     1       2.881   3.534  18.527  0.00  0.00    +0.000 A 
ATOM     26  C   UNL     1       2.069   2.482  18.063  0.00  0.00    +0.000 A 
ATOM     27  C   UNL     1       0.827   2.226  18.638  0.00  0.00    +0.000 A 
ATOM     28  C   UNL     1       0.386   3.005  19.700  0.00  0.00    +0.000 A 
ATOM     29  C   UNL     1       1.176   4.055  20.168  0.00  0.00    +0.000 A 
ATOM     30  C   UNL     1       2.421   4.352  19.584  0.00  0.00    +0.000 A 
ENDBRANCH  23  30
ENDBRANCH   1  23
TORSDOF 5
ENDMDL
MODEL 3
REMARK VINA RESULT:      -8.4      0.929      1.650
REMARK  Name = 
REMARK  6 active torsions:
REMARK  status: ('A' for Active; 'I' for Inactive)
REMARK    1  A    between atoms: C_1  and  C_2
REMARK    2  A    between atoms: C_7  and  C_8
REMARK    3  A    between atoms: C_8  and  C_9
REMARK    4  A    between atoms: C_14  and  C_15
REMARK    5  A    between atoms: C_16  and  O_17
REMARK    6  A    between atoms: C_18  and  O_19
REMARK                            x       y       z     vdW  Elec       q    Type
REMARK                         _______ _______ _______ _____ _____    ______ ____
ROOT
ATOM      1  C   UNL     1       0.883   9.812  19.730  0.00  0.00    +0.000 A 
ATOM      2  C   UNL     1       0.525   9.365  21.018  0.00  0.00    +0.000 A 
ATOM      3  C   UNL     1       0.854   8.091  21.476  0.00  0.00    +0.000 A 
ATOM      4  C   UNL     1       1.559   7.202  20.664  0.00  0.00    +0.000 A 
ATOM      5  C   UNL     1       1.960   7.613  19.376  0.00  0.00    +0.000 A 
ATOM      6  C   UNL     1       2.646   6.976  18.302  0.00  0.00    +0.000 A 
ATOM      7  C   UNL     1       2.758   7.882  17.273  0.00  0.00    +0.000 A 
ATOM      8  N   UNL     1       2.159   9.044  17.679  0.00  0.00    +0.000 N 
ATOM      9  C   UNL     1       1.629   8.904  18.947  0.00  0.00    +0.000 A 
ATOM     10  H   UNL     1       2.110   9.893  17.130  0.00  0.00    +0.000 HD
ENDROOT
BRANCH   6  11
ATOM     11  C   UNL     1       3.090   5.619  18.225  0.00  0.00    +0.000 C 
ATOM     12  C   UNL     1       4.350   5.236  18.510  0.00  0.00    +0.000 C 
ATOM     13  C   UNL     1       4.787   3.859  18.485  0.00  0.00    +0.000 C 
ATOM     14  C   UNL     1       3.980   2.833  18.225  0.00  0.00    +0.000 C 
ATOM     15  C   UNL     1       2.564   3.102  17.921  0.00  0.00    +0.000 C 
ATOM     16  O   UNL     1       1.776   2.179  17.764  0.00  0.00    +0.000 OA
ATOM     17  C   UNL     1       2.116   4.558  17.812  0.00  0.00    +0.000 C 
ATOM     18  O   UNL     1       0.997   4.818  17.390  0.00  0.00    +0.000 OA
BRANCH  12  19
ATOM     19  O   UNL     1       5.366   6.109  18.872  0.00  0.00    +0.000 OA
ATOM     20  H   UNL     1       6.094   6.021  18.224  0.00  0.00    +0.000 HD
ENDBRANCH  12  19
BRANCH  13  21
ATOM     21  O   UNL     1       6.115   3.644  18.787  0.00  0.00    +0.000 OA
ATOM     22  H   UNL     1       6.196   2.684  18.967  0.00  0.00    +0.000 HD
ENDBRANCH  13  21
ENDBRANCH   6  11
BRANCH   1  23
ATOM     23  C   UNL     1       0.392  11.160  19.242  0.00  0.00    +0.000 C 
BRANCH  23  30
ATOM     24  C   UNL     1      -1.567   9.976  17.243  0.00  0.00    +0.000 C 
ATOM     25  C   UNL     1      -1.999  10.916  18.335  0.00  0.00    +0.000 A 
ATOM     26  C   UNL     1      -3.348  11.318  18.368  0.00  0.00    +0.000 A 
ATOM     27  C   UNL     1      -3.815  12.186  19.352  0.00  0.00    +0.000 A 
ATOM     28  C   UNL     1      -2.945  12.650  20.330  0.00  0.00    +0.000 A 
ATOM     29  C   UNL     1      -1.604  12.267  20.308  0.00  0.00    +0.000 A 
ATOM     30  C   UNL     1      -1.102  11.415  19.308  0.00  0.00    +0.000 A 
ENDBRANCH  23  30
ENDBRANCH   1  23
TORSDOF 5
ENDMDL
MODEL 4
REMARK VINA RESULT:      -8.4      3.602      8.215
REMARK  Name = 
REMARK  6 active torsions:
REMARK  status: ('A' for Active; 'I' for Inactive)
REMARK    1  A    between atoms: C_1  and  C_2
REMARK    2  A    between atoms: C_7  and  C_8
REMARK    3  A    between atoms: C_8  and  C_9
REMARK    4  A    between atoms: C_14  and  C_15
REMARK    5  A    between atoms: C_16  and  O_17
REMARK    6  A    between atoms: C_18  and  O_19
REMARK                            x       y       z     vdW  Elec       q    Type
REMARK                         _______ _______ _______ _____ _____    ______ ____
ROOT
ATOM      1  C   UNL     1       2.551   6.939  19.475  0.00  0.00    +0.000 A 
ATOM      2  C   UNL     1       2.872   7.193  18.127  0.00  0.00    +0.000 A 
ATOM      3  C   UNL     1       2.468   8.359  17.478  0.00  0.00    +0.000 A 
ATOM      4  C   UNL     1       1.719   9.325  18.151  0.00  0.00    +0.000 A 
ATOM      5  C   UNL     1       1.393   9.125  19.508  0.00  0.00    +0.000 A 
ATOM      6  C   UNL     1       0.643   9.866  20.466  0.00  0.00    +0.000 A 
ATOM      7  C   UNL     1       0.665   9.170  21.653  0.00  0.00    +0.000 A 
ATOM      8  N   UNL     1       1.395   8.030  21.449  0.00  0.00    +0.000 N 
ATOM      9  C   UNL     1       1.826   7.953  20.140  0.00  0.00    +0.000 A 
ATOM     10  H   UNL     1       1.595   7.337  22.158  0.00  0.00    +0.000 HD
ENDROOT
BRANCH   6  11
ATOM     11  C   UNL     1      -0.086  11.079  20.264  0.00  0.00    +0.000 C 
ATOM     12  C   UNL     1      -1.215  11.151  19.532  0.00  0.00    +0.000 C 
ATOM     13  C   UNL     1      -1.983  12.364  19.371  0.00  0.00    +0.000 C 
ATOM     14  C   UNL     1      -1.678  13.515  19.967  0.00  0.00    +0.000 C 
ATOM     15  C   UNL     1      -0.480  13.577  20.823  0.00  0.00    +0.000 C 
ATOM     16  O   UNL     1      -0.219  14.592  21.453  0.00  0.00    +0.000 OA
ATOM     17  C   UNL     1       0.415  12.341  20.895  0.00  0.00    +0.000 C 
ATOM     18  O   UNL     1       1.504  12.414  21.451  0.00  0.00    +0.000 OA
BRANCH  12  19
ATOM     19  O   UNL     1      -1.778  10.074  18.862  0.00  0.00    +0.000 OA
ATOM     20  H   UNL     1      -2.057  10.374  17.974  0.00  0.00    +0.000 HD
ENDBRANCH  12  19
BRANCH  13  21
ATOM     21  O   UNL     1      -3.104  12.265  18.576  0.00  0.00    +0.000 OA
ATOM     22  H   UNL     1      -3.852  12.577  19.128  0.00  0.00    +0.000 HD
ENDBRANCH  13  21
ENDBRANCH   6  11
BRANCH   1  23
ATOM     23  C   UNL     1       2.912   5.602  20.090  0.00  0.00    +0.000 C 
BRANCH  23  30
ATOM     24  C   UNL     1       0.660   3.567  20.252  0.00  0.00    +0.000 C 
ATOM     25  C   UNL     1       1.827   3.407  19.314  0.00  0.00    +0.000 A 
ATOM     26  C   UNL     1       1.906   2.227  18.551  0.00  0.00    +0.000 A 
ATOM     27  C   UNL     1       2.958   2.015  17.662  0.00  0.00    +0.000 A 
ATOM     28  C   UNL     1       3.937   2.988  17.510  0.00  0.00    +0.000 A 
ATOM     29  C   UNL     1       3.876   4.161  18.263  0.00  0.00    +0.000 A 
ATOM     30  C   UNL     1       2.840   4.385  19.188  0.00  0.00    +0.000 A 
ENDBRANCH  23  30
ENDBRANCH   1  23
TORSDOF 5
ENDMDL
MODEL 5
REMARK VINA RESULT:      -8.4      0.828      2.050
REMARK  Name = 
REMARK  6 active torsions:
REMARK  status: ('A' for Active; 'I' for Inactive)
REMARK    1  A    between atoms: C_1  and  C_2
REMARK    2  A    between atoms: C_7  and  C_8
REMARK    3  A    between atoms: C_8  and  C_9
REMARK    4  A    between atoms: C_14  and  C_15
REMARK    5  A    between atoms: C_16  and  O_17
REMARK    6  A    between atoms: C_18  and  O_19
REMARK                            x       y       z     vdW  Elec       q    Type
REMARK                         _______ _______ _______ _____ _____    ______ ____
ROOT
ATOM      1  C   UNL     1       0.711   9.821  19.654  0.00  0.00    +0.000 A 
ATOM      2  C   UNL     1       0.389   9.408  20.962  0.00  0.00    +0.000 A 
ATOM      3  C   UNL     1       0.795   8.175  21.469  0.00  0.00    +0.000 A 
ATOM      4  C   UNL     1       1.545   7.296  20.687  0.00  0.00    +0.000 A 
ATOM      5  C   UNL     1       1.911   7.675  19.380  0.00  0.00    +0.000 A 
ATOM      6  C   UNL     1       2.625   7.035  18.326  0.00  0.00    +0.000 A 
ATOM      7  C   UNL     1       2.677   7.903  17.260  0.00  0.00    +0.000 A 
ATOM      8  N   UNL     1       2.014   9.044  17.624  0.00  0.00    +0.000 N 
ATOM      9  C   UNL     1       1.503   8.926  18.901  0.00  0.00    +0.000 A 
ATOM     10  H   UNL     1       1.912   9.865  17.041  0.00  0.00    +0.000 HD
ENDROOT
BRANCH   6  11
ATOM     11  C   UNL     1       3.147   5.704  18.300  0.00  0.00    +0.000 C 
ATOM     12  C   UNL     1       2.437   4.639  17.880  0.00  0.00    +0.000 C 
ATOM     13  C   UNL     1       2.980   3.302  17.801  0.00  0.00    +0.000 C 
ATOM     14  C   UNL     1       4.245   3.001  18.090  0.00  0.00    +0.000 C 
ATOM     15  C   UNL     1       5.147   4.076  18.538  0.00  0.00    +0.000 C 
ATOM     16  O   UNL     1       6.334   3.851  18.728  0.00  0.00    +0.000 OA
ATOM     17  C   UNL     1       4.554   5.467  18.755  0.00  0.00    +0.000 C 
ATOM     18  O   UNL     1       5.229   6.336  19.292  0.00  0.00    +0.000 OA
BRANCH  12  19
ATOM     19  O   UNL     1       1.115   4.700  17.463  0.00  0.00    +0.000 OA
ATOM     20  H   UNL     1       0.862   5.641  17.374  0.00  0.00    +0.000 HD
ENDBRANCH  12  19
BRANCH  13  21
ATOM     21  O   UNL     1       2.112   2.325  17.365  0.00  0.00    +0.000 OA
ATOM     22  H   UNL     1       2.176   2.328  16.387  0.00  0.00    +0.000 HD
ENDBRANCH  13  21
ENDBRANCH   6  11
BRANCH   1  23
ATOM     23  C   UNL     1       0.139  11.117  19.116  0.00  0.00    +0.000 C 
BRANCH  23  30
ATOM     24  C   UNL     1      -2.129  12.888  20.095  0.00  0.00    +0.000 C 
ATOM     25  C   UNL     1      -2.324  11.841  19.031  0.00  0.00    +0.000 A 
ATOM     26  C   UNL     1      -3.627  11.630  18.540  0.00  0.00    +0.000 A 
ATOM     27  C   UNL     1      -3.878  10.677  17.555  0.00  0.00    +0.000 A 
ATOM     28  C   UNL     1      -2.827   9.935  17.032  0.00  0.00    +0.000 A 
ATOM     29  C   UNL     1      -1.531  10.128  17.511  0.00  0.00    +0.000 A 
ATOM     30  C   UNL     1      -1.257  11.063  18.526  0.00  0.00    +0.000 A 
ENDBRANCH  23  30
ENDBRANCH   1  23
TORSDOF 5
ENDMDL
MODEL 6
REMARK VINA RESULT:      -8.3      3.405      7.866
REMARK  Name = 
REMARK  6 active torsions:
REMARK  status: ('A' for Active; 'I' for Inactive)
REMARK    1  A    between atoms: C_1  and  C_2
REMARK    2  A    between atoms: C_7  and  C_8
REMARK    3  A    between atoms: C_8  and  C_9
REMARK    4  A    between atoms: C_14  and  C_15
REMARK    5  A    between atoms: C_16  and  O_17
REMARK    6  A    between atoms: C_18  and  O_19
REMARK                            x       y       z     vdW  Elec       q    Type
REMARK                         _______ _______ _______ _____ _____    ______ ____
ROOT
ATOM      1  C   UNL     1       2.921   6.945  19.194  0.00  0.00    +0.000 A 
ATOM      2  C   UNL     1       3.277   7.356  17.894  0.00  0.00    +0.000 A 
ATOM      3  C   UNL     1       2.742   8.501  17.308  0.00  0.00    +0.000 A 
ATOM      4  C   UNL     1       1.821   9.290  17.999  0.00  0.00    +0.000 A 
ATOM      5  C   UNL     1       1.452   8.932  19.311  0.00  0.00    +0.000 A 
ATOM      6  C   UNL     1       0.546   9.474  20.268  0.00  0.00    +0.000 A 
ATOM      7  C   UNL     1       0.604   8.691  21.398  0.00  0.00    +0.000 A 
ATOM      8  N   UNL     1       1.505   7.689  21.160  0.00  0.00    +0.000 N 
ATOM      9  C   UNL     1       2.017   7.785  19.881  0.00  0.00    +0.000 A 
ATOM     10  H   UNL     1       1.766   6.974  21.827  0.00  0.00    +0.000 HD
ENDROOT
BRANCH   6  11
ATOM     11  C   UNL     1      -0.342  10.583  20.108  0.00  0.00    +0.000 C 
ATOM     12  C   UNL     1      -0.255  11.712  20.837  0.00  0.00    +0.000 C 
ATOM     13  C   UNL     1      -1.118  12.854  20.639  0.00  0.00    +0.000 C 
ATOM     14  C   UNL     1      -2.049  12.921  19.690  0.00  0.00    +0.000 C 
ATOM     15  C   UNL     1      -2.238  11.764  18.797  0.00  0.00    +0.000 C 
ATOM     16  O   UNL     1      -3.023  11.824  17.861  0.00  0.00    +0.000 OA
ATOM     17  C   UNL     1      -1.427  10.500  19.078  0.00  0.00    +0.000 C 
ATOM     18  O   UNL     1      -1.685   9.468  18.472  0.00  0.00    +0.000 OA
BRANCH  12  19
ATOM     19  O   UNL     1       0.674  11.917  21.846  0.00  0.00    +0.000 OA
ATOM     20  H   UNL     1       0.226  11.803  22.708  0.00  0.00    +0.000 HD
ENDBRANCH  12  19
BRANCH  13  21
ATOM     21  O   UNL     1      -0.903  13.923  21.483  0.00  0.00    +0.000 OA
ATOM     22  H   UNL     1      -1.758  14.082  21.936  0.00  0.00    +0.000 HD
ENDBRANCH  13  21
ENDBRANCH   6  11
BRANCH   1  23
ATOM     23  C   UNL     1       3.441   5.627  19.731  0.00  0.00    +0.000 C 
BRANCH  23  30
ATOM     24  C   UNL     1       4.012   3.786  17.380  0.00  0.00    +0.000 C 
ATOM     25  C   UNL     1       2.844   3.575  18.305  0.00  0.00    +0.000 A 
ATOM     26  C   UNL     1       1.946   2.532  18.011  0.00  0.00    +0.000 A 
ATOM     27  C   UNL     1       0.844   2.280  18.825  0.00  0.00    +0.000 A 
ATOM     28  C   UNL     1       0.634   3.055  19.958  0.00  0.00    +0.000 A 
ATOM     29  C   UNL     1       1.512   4.096  20.262  0.00  0.00    +0.000 A 
ATOM     30  C   UNL     1       2.615   4.389  19.439  0.00  0.00    +0.000 A 
ENDBRANCH  23  30
ENDBRANCH   1  23
TORSDOF 5
ENDMDL
MODEL 7
REMARK VINA RESULT:      -8.3      0.708      2.154
REMARK  Name = 
REMARK  6 active torsions:
REMARK  status: ('A' for Active; 'I' for Inactive)
REMARK    1  A    between atoms: C_1  and  C_2
REMARK    2  A    between atoms: C_7  and  C_8
REMARK    3  A    between atoms: C_8  and  C_9
REMARK    4  A    between atoms: C_14  and  C_15
REMARK    5  A    between atoms: C_16  and  O_17
REMARK    6  A    between atoms: C_18  and  O_19
REMARK                            x       y       z     vdW  Elec       q    Type
REMARK                         _______ _______ _______ _____ _____    ______ ____
ROOT
ATOM      1  C   UNL     1       0.738  10.138  19.674  0.00  0.00    +0.000 A 
ATOM      2  C   UNL     1       0.538  10.188  21.069  0.00  0.00    +0.000 A 
ATOM      3  C   UNL     1       0.935   9.151  21.910  0.00  0.00    +0.000 A 
ATOM      4  C   UNL     1       1.552   8.011  21.393  0.00  0.00    +0.000 A 
ATOM      5  C   UNL     1       1.793   7.925  20.007  0.00  0.00    +0.000 A 
ATOM      6  C   UNL     1       2.357   6.928  19.159  0.00  0.00    +0.000 A 
ATOM      7  C   UNL     1       2.336   7.407  17.869  0.00  0.00    +0.000 A 
ATOM      8  N   UNL     1       1.774   8.654  17.901  0.00  0.00    +0.000 N 
ATOM      9  C   UNL     1       1.399   8.989  19.186  0.00  0.00    +0.000 A 
ATOM     10  H   UNL     1       1.650   9.254  17.095  0.00  0.00    +0.000 HD
ENDROOT
BRANCH   6  11
ATOM     11  C   UNL     1       2.807   5.620  19.520  0.00  0.00    +0.000 C 
ATOM     12  C   UNL     1       2.013   4.698  20.099  0.00  0.00    +0.000 C 
ATOM     13  C   UNL     1       2.451   3.358  20.414  0.00  0.00    +0.000 C 
ATOM     14  C   UNL     1       3.662   2.888  20.122  0.00  0.00    +0.000 C 
ATOM     15  C   UNL     1       4.630   3.781  19.460  0.00  0.00    +0.000 C 
ATOM     16  O   UNL     1       5.719   3.358  19.099  0.00  0.00    +0.000 OA
ATOM     17  C   UNL     1       4.229   5.239  19.242  0.00  0.00    +0.000 C 
ATOM     18  O   UNL     1       5.066   6.046  18.859  0.00  0.00    +0.000 OA
BRANCH  12  19
ATOM     19  O   UNL     1       0.688   4.919  20.445  0.00  0.00    +0.000 OA
ATOM     20  H   UNL     1       0.121   4.371  19.866  0.00  0.00    +0.000 HD
ENDBRANCH  12  19
BRANCH  13  21
ATOM     21  O   UNL     1       1.515   2.546  21.019  0.00  0.00    +0.000 OA
ATOM     22  H   UNL     1       0.836   3.150  21.387  0.00  0.00    +0.000 HD
ENDBRANCH  13  21
ENDBRANCH   6  11
BRANCH   1  23
ATOM     23  C   UNL     1       0.175  11.239  18.799  0.00  0.00    +0.000 C 
BRANCH  23  30
ATOM     24  C   UNL     1      -2.070  12.904  19.991  0.00  0.00    +0.000 C 
ATOM     25  C   UNL     1      -2.319  11.831  18.966  0.00  0.00    +0.000 A 
ATOM     26  C   UNL     1      -3.652  11.543  18.619  0.00  0.00    +0.000 A 
ATOM     27  C   UNL     1      -3.954  10.563  17.676  0.00  0.00    +0.000 A 
ATOM     28  C   UNL     1      -2.925   9.867  17.053  0.00  0.00    +0.000 A 
ATOM     29  C   UNL     1      -1.598  10.137  17.390  0.00  0.00    +0.000 A 
ATOM     30  C   UNL     1      -1.270  11.101  18.360  0.00  0.00    +0.000 A 
ENDBRANCH  23  30
ENDBRANCH   1  23
TORSDOF 5
ENDMDL
MODEL 8
REMARK VINA RESULT:      -8.2      3.492      8.222
REMARK  Name = 
REMARK  6 active torsions:
REMARK  status: ('A' for Active; 'I' for Inactive)
REMARK    1  A    between atoms: C_1  and  C_2
REMARK    2  A    between atoms: C_7  and  C_8
REMARK    3  A    between atoms: C_8  and  C_9
REMARK    4  A    between atoms: C_14  and  C_15
REMARK    5  A    between atoms: C_16  and  O_17
REMARK    6  A    between atoms: C_18  and  O_19
REMARK                            x       y       z     vdW  Elec       q    Type
REMARK                         _______ _______ _______ _____ _____    ______ ____
ROOT
ATOM      1  C   UNL     1       2.451   6.412  19.732  0.00  0.00    +0.000 A 
ATOM      2  C   UNL     1       3.125   6.485  18.497  0.00  0.00    +0.000 A 
ATOM      3  C   UNL     1       3.083   7.627  17.699  0.00  0.00    +0.000 A 
ATOM      4  C   UNL     1       2.362   8.752  18.103  0.00  0.00    +0.000 A 
ATOM      5  C   UNL     1       1.690   8.733  19.341  0.00  0.00    +0.000 A 
ATOM      6  C   UNL     1       0.861   9.663  20.033  0.00  0.00    +0.000 A 
ATOM      7  C   UNL     1       0.484   9.090  21.226  0.00  0.00    +0.000 A 
ATOM      8  N   UNL     1       1.046   7.843  21.281  0.00  0.00    +0.000 N 
ATOM      9  C   UNL     1       1.762   7.579  20.130  0.00  0.00    +0.000 A 
ATOM     10  H   UNL     1       0.954   7.201  22.057  0.00  0.00    +0.000 HD
ENDROOT
BRANCH   6  11
ATOM     11  C   UNL     1       0.409  10.942  19.582  0.00  0.00    +0.000 C 
ATOM     12  C   UNL     1      -0.408  11.108  18.523  0.00  0.00    +0.000 C 
ATOM     13  C   UNL     1      -0.909  12.394  18.099  0.00  0.00    +0.000 C 
ATOM     14  C   UNL     1      -0.653  13.534  18.737  0.00  0.00    +0.000 C 
ATOM     15  C   UNL     1       0.208  13.501  19.933  0.00  0.00    +0.000 C 
ATOM     16  O   UNL     1       0.394  14.513  20.593  0.00  0.00    +0.000 OA
ATOM     17  C   UNL     1       0.854  12.170  20.316  0.00  0.00    +0.000 C 
ATOM     18  O   UNL     1       1.710  12.142  21.191  0.00  0.00    +0.000 OA
BRANCH  12  19
ATOM     19  O   UNL     1      -0.873  10.069  17.729  0.00  0.00    +0.000 OA
ATOM     20  H   UNL     1      -1.753  10.316  17.381  0.00  0.00    +0.000 HD
ENDBRANCH  12  19
BRANCH  13  21
ATOM     21  O   UNL     1      -1.722  12.386  16.986  0.00  0.00    +0.000 OA
ATOM     22  H   UNL     1      -2.242  13.216  17.028  0.00  0.00    +0.000 HD
ENDBRANCH  13  21
ENDBRANCH   6  11
BRANCH   1  23
ATOM     23  C   UNL     1       2.431   5.104  20.496  0.00  0.00    +0.000 C 
BRANCH  23  30
ATOM     24  C   UNL     1       0.394   3.243  19.219  0.00  0.00    +0.000 C 
ATOM     25  C   UNL     1       1.872   2.956  19.201  0.00  0.00    +0.000 A 
ATOM     26  C   UNL     1       2.304   1.739  18.642  0.00  0.00    +0.000 A 
ATOM     27  C   UNL     1       3.656   1.411  18.592  0.00  0.00    +0.000 A 
ATOM     28  C   UNL     1       4.600   2.304  19.083  0.00  0.00    +0.000 A 
ATOM     29  C   UNL     1       4.189   3.512  19.645  0.00  0.00    +0.000 A 
ATOM     30  C   UNL     1       2.827   3.853  19.734  0.00  0.00    +0.000 A 
ENDBRANCH  23  30
ENDBRANCH   1  23
TORSDOF 5
ENDMDL
MODEL 9
REMARK VINA RESULT:      -8.0      3.432      7.936
REMARK  Name = 
REMARK  6 active torsions:
REMARK  status: ('A' for Active; 'I' for Inactive)
REMARK    1  A    between atoms: C_1  and  C_2
REMARK    2  A    between atoms: C_7  and  C_8
REMARK    3  A    between atoms: C_8  and  C_9
REMARK    4  A    between atoms: C_14  and  C_15
REMARK    5  A    between atoms: C_16  and  O_17
REMARK    6  A    between atoms: C_18  and  O_19
REMARK                            x       y       z     vdW  Elec       q    Type
REMARK                         _______ _______ _______ _____ _____    ______ ____
ROOT
ATOM      1  C   UNL     1       2.838   6.853  19.328  0.00  0.00    +0.000 A 
ATOM      2  C   UNL     1       3.200   7.178  18.005  0.00  0.00    +0.000 A 
ATOM      3  C   UNL     1       2.723   8.322  17.368  0.00  0.00    +0.000 A 
ATOM      4  C   UNL     1       1.858   9.196  18.028  0.00  0.00    +0.000 A 
ATOM      5  C   UNL     1       1.486   8.924  19.360  0.00  0.00    +0.000 A 
ATOM      6  C   UNL     1       0.625   9.564  20.298  0.00  0.00    +0.000 A 
ATOM      7  C   UNL     1       0.654   8.836  21.465  0.00  0.00    +0.000 A 
ATOM      8  N   UNL     1       1.493   7.773  21.269  0.00  0.00    +0.000 N 
ATOM      9  C   UNL     1       1.992   7.777  19.982  0.00  0.00    +0.000 A 
ATOM     10  H   UNL     1       1.721   7.079  21.968  0.00  0.00    +0.000 HD
ENDROOT
BRANCH   6  11
ATOM     11  C   UNL     1      -0.201  10.713  20.092  0.00  0.00    +0.000 C 
ATOM     12  C   UNL     1       0.012  11.897  20.699  0.00  0.00    +0.000 C 
ATOM     13  C   UNL     1      -0.789  13.073  20.451  0.00  0.00    +0.000 C 
ATOM     14  C   UNL     1      -1.783  13.117  19.566  0.00  0.00    +0.000 C 
ATOM     15  C   UNL     1      -2.111  11.898  18.805  0.00  0.00    +0.000 C 
ATOM     16  O   UNL     1      -2.958  11.925  17.923  0.00  0.00    +0.000 OA
ATOM     17  C   UNL     1      -1.363  10.612  19.152  0.00  0.00    +0.000 C 
ATOM     18  O   UNL     1      -1.730   9.549  18.668  0.00  0.00    +0.000 OA
BRANCH  12  19
ATOM     19  O   UNL     1       1.025  12.129  21.618  0.00  0.00    +0.000 OA
ATOM     20  H   UNL     1       1.377  13.029  21.469  0.00  0.00    +0.000 HD
ENDBRANCH  12  19
BRANCH  13  21
ATOM     21  O   UNL     1      -0.445  14.198  21.170  0.00  0.00    +0.000 OA
ATOM     22  H   UNL     1      -1.222  14.793  21.122  0.00  0.00    +0.000 HD
ENDBRANCH  13  21
ENDBRANCH   6  11
BRANCH   1  23
ATOM     23  C   UNL     1       3.289   5.536  19.924  0.00  0.00    +0.000 C 
BRANCH  23  30
ATOM     24  C   UNL     1       0.730   3.955  20.359  0.00  0.00    +0.000 C 
ATOM     25  C   UNL     1       1.801   3.509  19.400  0.00  0.00    +0.000 A 
ATOM     26  C   UNL     1       1.634   2.271  18.750  0.00  0.00    +0.000 A 
ATOM     27  C   UNL     1       2.586   1.798  17.850  0.00  0.00    +0.000 A 
ATOM     28  C   UNL     1       3.710   2.565  17.571  0.00  0.00    +0.000 A 
ATOM     29  C   UNL     1       3.893   3.791  18.210  0.00  0.00    +0.000 A 
ATOM     30  C   UNL     1       2.961   4.276  19.145  0.00  0.00    +0.000 A 
ENDBRANCH  23  30
ENDBRANCH   1  23
TORSDOF 5
ENDMDL
