MODEL 1
REMARK VINA RESULT:      -7.9      0.000      0.000
REMARK  Name = 
REMARK  12 active torsions:
REMARK  status: ('A' for Active; 'I' for Inactive)
REMARK    1  A    between atoms: C_1  and  C_2
REMARK    2  A    between atoms: C_2  and  O_3
REMARK    3  A    between atoms: O_3  and  C_4
REMARK    4  A    between atoms: C_7  and  C_8
REMARK    5  A    between atoms: C_8  and  N_9
REMARK    6  A    between atoms: N_9  and  C_10
REMARK    7  A    between atoms: N_9  and  C_14
REMARK    8  A    between atoms: C_10  and  C_11
REMARK    9  A    between atoms: C_11  and  O_12
REMARK   10  A    between atoms: O_12  and  C_13
REMARK   11  A    between atoms: C_16  and  C_17
REMARK   12  A    between atoms: C_21  and  C_22
REMARK                            x       y       z     vdW  Elec       q    Type
REMARK                         _______ _______ _______ _____ _____    ______ ____
ROOT
ATOM      1  N   UNL     1       3.548   5.259  17.962  0.00  0.00    +0.000 N 
ENDROOT
BRANCH   1   2
ATOM      2  C   UNL     1       4.953   5.204  17.762  0.00  0.00    +0.000 A 
ATOM      3  N   UNL     1       5.813   5.450  18.799  0.00  0.00    +0.000 NA
ATOM      4  C   UNL     1       7.154   5.365  18.621  0.00  0.00    +0.000 A 
ATOM      5  C   UNL     1       8.024   5.645  19.808  0.00  0.00    +0.000 C 
ATOM      6  N   UNL     1       7.790   5.039  17.486  0.00  0.00    +0.000 NA
ATOM      7  C   UNL     1       6.925   4.784  16.501  0.00  0.00    +0.000 A 
ATOM      8  O   UNL     1       7.295   4.400  15.245  0.00  0.00    +0.000 OA
ATOM      9  C   UNL     1       6.110   4.224  14.586  0.00  0.00    +0.000 A 
ATOM     10  C   UNL     1       6.207   3.787  13.179  0.00  0.00    +0.000 C 
ATOM     11  N   UNL     1       5.030   4.454  15.307  0.00  0.00    +0.000 NA
ATOM     12  C   UNL     1       5.542   4.830  16.536  0.00  0.00    +0.000 A 
ENDBRANCH   1   2
BRANCH   1  13
ATOM     13  C   UNL     1       3.141   5.760  19.285  0.00  0.00    +0.000 C 
BRANCH  13  17
ATOM     14  C   UNL     1       1.123   9.580  18.832  0.00  0.00    +0.000 A 
ATOM     15  C   UNL     1       1.128   8.926  20.067  0.00  0.00    +0.000 A 
ATOM     16  C   UNL     1       1.813   7.715  20.233  0.00  0.00    +0.000 A 
ATOM     17  C   UNL     1       2.520   7.146  19.165  0.00  0.00    +0.000 A 
ATOM     18  C   UNL     1       2.566   7.847  17.954  0.00  0.00    +0.000 A 
ATOM     19  C   UNL     1       1.854   9.038  17.779  0.00  0.00    +0.000 A 
BRANCH  14  20
ATOM     20  O   UNL     1       0.372  10.724  18.778  0.00  0.00    +0.000 OA
BRANCH  20  22
ATOM     21  C   UNL     1      -1.659  10.160  17.656  0.00  0.00    +0.000 C 
ATOM     22  C   UNL     1      -1.034  10.579  18.974  0.00  0.00    +0.000 C 
ENDBRANCH  20  22
ENDBRANCH  14  20
ENDBRANCH  13  17
ENDBRANCH   1  13
BRANCH   1  23
ATOM     23  C   UNL     1       2.979   3.996  17.445  0.00  0.00    +0.000 C 
BRANCH  23  24
ATOM     24  C   UNL     1       1.853   3.347  18.266  0.00  0.00    +0.000 C 
BRANCH  24  25
ATOM     25  O   UNL     1       2.116   2.023  18.730  0.00  0.00    +0.000 OA
ATOM     26  C   UNL     1       3.447   1.591  18.476  0.00  0.00    +0.000 C 
ENDBRANCH  24  25
ENDBRANCH  23  24
ENDBRANCH   1  23
TORSDOF 8
ENDMDL
MODEL 2
REMARK VINA RESULT:      -7.8      1.689      2.368
REMARK  Name = 
REMARK  12 active torsions:
REMARK  status: ('A' for Active; 'I' for Inactive)
REMARK    1  A    between atoms: C_1  and  C_2
REMARK    2  A    between atoms: C_2  and  O_3
REMARK    3  A    between atoms: O_3  and  C_4
REMARK    4  A    between atoms: C_7  and  C_8
REMARK    5  A    between atoms: C_8  and  N_9
REMARK    6  A    between atoms: N_9  and  C_10
REMARK    7  A    between atoms: N_9  and  C_14
REMARK    8  A    between atoms: C_10  and  C_11
REMARK    9  A    between atoms: C_11  and  O_12
REMARK   10  A    between atoms: O_12  and  C_13
REMARK   11  A    between atoms: C_16  and  C_17
REMARK   12  A    between atoms: C_21  and  C_22
REMARK                            x       y       z     vdW  Elec       q    Type
REMARK                         _______ _______ _______ _____ _____    ______ ____
ROOT
ATOM      1  N   UNL     1       4.449   3.782  17.817  0.00  0.00    +0.000 N 
ENDROOT
BRANCH   1   2
ATOM      2  C   UNL     1       5.479   4.580  17.253  0.00  0.00    +0.000 A 
ATOM      3  N   UNL     1       6.188   5.454  18.033  0.00  0.00    +0.000 NA
ATOM      4  C   UNL     1       7.196   6.192  17.506  0.00  0.00    +0.000 A 
ATOM      5  C   UNL     1       7.923   7.122  18.429  0.00  0.00    +0.000 C 
ATOM      6  N   UNL     1       7.624   6.166  16.235  0.00  0.00    +0.000 NA
ATOM      7  C   UNL     1       6.929   5.290  15.507  0.00  0.00    +0.000 A 
ATOM      8  O   UNL     1       7.171   5.036  14.187  0.00  0.00    +0.000 OA
ATOM      9  C   UNL     1       6.261   4.071  13.860  0.00  0.00    +0.000 A 
ATOM     10  C   UNL     1       6.301   3.586  12.466  0.00  0.00    +0.000 C 
ATOM     11  N   UNL     1       5.474   3.686  14.845  0.00  0.00    +0.000 NA
ATOM     12  C   UNL     1       5.884   4.474  15.905  0.00  0.00    +0.000 A 
ENDBRANCH   1   2
BRANCH   1  13
ATOM     13  C   UNL     1       3.087   4.186  17.431  0.00  0.00    +0.000 C 
BRANCH  13  17
ATOM     14  C   UNL     1       1.910   7.359  20.155  0.00  0.00    +0.000 A 
ATOM     15  C   UNL     1       2.436   7.666  18.897  0.00  0.00    +0.000 A 
ATOM     16  C   UNL     1       2.778   6.650  17.996  0.00  0.00    +0.000 A 
ATOM     17  C   UNL     1       2.582   5.304  18.334  0.00  0.00    +0.000 A 
ATOM     18  C   UNL     1       1.987   5.012  19.568  0.00  0.00    +0.000 A 
ATOM     19  C   UNL     1       1.678   6.025  20.481  0.00  0.00    +0.000 A 
BRANCH  14  20
ATOM     20  O   UNL     1       1.669   8.433  20.968  0.00  0.00    +0.000 OA
BRANCH  20  22
ATOM     21  C   UNL     1      -0.243   9.785  20.496  0.00  0.00    +0.000 C 
ATOM     22  C   UNL     1       0.312   8.658  21.349  0.00  0.00    +0.000 C 
ENDBRANCH  20  22
ENDBRANCH  14  20
ENDBRANCH  13  17
ENDBRANCH   1  13
BRANCH   1  23
ATOM     23  C   UNL     1       4.780   3.576  19.244  0.00  0.00    +0.000 C 
BRANCH  23  24
ATOM     24  C   UNL     1       4.282   2.278  19.897  0.00  0.00    +0.000 C 
BRANCH  24  25
ATOM     25  O   UNL     1       3.962   2.373  21.286  0.00  0.00    +0.000 OA
ATOM     26  C   UNL     1       2.564   2.349  21.545  0.00  0.00    +0.000 C 
ENDBRANCH  24  25
ENDBRANCH  23  24
ENDBRANCH   1  23
TORSDOF 8
ENDMDL
MODEL 3
REMARK VINA RESULT:      -7.7      1.452      1.872
REMARK  Name = 
REMARK  12 active torsions:
REMARK  status: ('A' for Active; 'I' for Inactive)
REMARK    1  A    between atoms: C_1  and  C_2
REMARK    2  A    between atoms: C_2  and  O_3
REMARK    3  A    between atoms: O_3  and  C_4
REMARK    4  A    between atoms: C_7  and  C_8
REMARK    5  A    between atoms: C_8  and  N_9
REMARK    6  A    between atoms: N_9  and  C_10
REMARK    7  A    between atoms: N_9  and  C_14
REMARK    8  A    between atoms: C_10  and  C_11
REMARK    9  A    between atoms: C_11  and  O_12
REMARK   10  A    between atoms: O_12  and  C_13
REMARK   11  A    between atoms: C_16  and  C_17
REMARK   12  A    between atoms: C_21  and  C_22
REMARK                            x       y       z     vdW  Elec       q    Type
REMARK                         _______ _______ _______ _____ _____    ______ ____
ROOT
ATOM      1  N   UNL     1       4.276   4.004  17.939  0.00  0.00    +0.000 N 
ENDROOT
BRANCH   1   2
ATOM      2  C   UNL     1       5.346   4.724  17.344  0.00  0.00    +0.000 A 
ATOM      3  N   UNL     1       6.112   5.575  18.094  0.00  0.00    +0.000 NA
ATOM      4  C   UNL     1       7.157   6.238  17.538  0.00  0.00    +0.000 A 
ATOM      5  C   UNL     1       7.946   7.147  18.429  0.00  0.00    +0.000 C 
ATOM      6  N   UNL     1       7.571   6.153  16.265  0.00  0.00    +0.000 NA
ATOM      7  C   UNL     1       6.818   5.299  15.567  0.00  0.00    +0.000 A 
ATOM      8  O   UNL     1       7.032   4.996  14.253  0.00  0.00    +0.000 OA
ATOM      9  C   UNL     1       6.063   4.078  13.960  0.00  0.00    +0.000 A 
ATOM     10  C   UNL     1       6.061   3.553  12.580  0.00  0.00    +0.000 C 
ATOM     11  N   UNL     1       5.264   3.767  14.962  0.00  0.00    +0.000 NA
ATOM     12  C   UNL     1       5.730   4.558  15.997  0.00  0.00    +0.000 A 
ENDBRANCH   1   2
BRANCH   1  13
ATOM     13  C   UNL     1       2.938   4.530  17.620  0.00  0.00    +0.000 C 
BRANCH  13  17
ATOM     14  C   UNL     1       1.830   8.099  19.835  0.00  0.00    +0.000 A 
ATOM     15  C   UNL     1       1.810   6.847  20.457  0.00  0.00    +0.000 A 
ATOM     16  C   UNL     1       2.207   5.697  19.763  0.00  0.00    +0.000 A 
ATOM     17  C   UNL     1       2.648   5.784  18.435  0.00  0.00    +0.000 A 
ATOM     18  C   UNL     1       2.731   7.053  17.848  0.00  0.00    +0.000 A 
ATOM     19  C   UNL     1       2.302   8.196  18.529  0.00  0.00    +0.000 A 
BRANCH  14  20
ATOM     20  O   UNL     1       1.365   9.138  20.595  0.00  0.00    +0.000 OA
BRANCH  20  22
ATOM     21  C   UNL     1      -0.511  10.608  20.450  0.00  0.00    +0.000 C 
ATOM     22  C   UNL     1      -0.046   9.206  20.796  0.00  0.00    +0.000 C 
ENDBRANCH  20  22
ENDBRANCH  14  20
ENDBRANCH  13  17
ENDBRANCH   1  13
BRANCH   1  23
ATOM     23  C   UNL     1       4.649   3.739  19.345  0.00  0.00    +0.000 C 
BRANCH  23  24
ATOM     24  C   UNL     1       4.168   2.415  19.959  0.00  0.00    +0.000 C 
BRANCH  24  25
ATOM     25  O   UNL     1       2.770   2.340  20.240  0.00  0.00    +0.000 OA
ATOM     26  C   UNL     1       2.442   2.720  21.570  0.00  0.00    +0.000 C 
ENDBRANCH  24  25
ENDBRANCH  23  24
ENDBRANCH   1  23
TORSDOF 8
ENDMDL
MODEL 4
REMARK VINA RESULT:      -7.6      0.555      1.311
REMARK  Name = 
REMARK  12 active torsions:
REMARK  status: ('A' for Active; 'I' for Inactive)
REMARK    1  A    between atoms: C_1  and  C_2
REMARK    2  A    between atoms: C_2  and  O_3
REMARK    3  A    between atoms: O_3  and  C_4
REMARK    4  A    between atoms: C_7  and  C_8
REMARK    5  A    between atoms: C_8  and  N_9
REMARK    6  A    between atoms: N_9  and  C_10
REMARK    7  A    between atoms: N_9  and  C_14
REMARK    8  A    between atoms: C_10  and  C_11
REMARK    9  A    between atoms: C_11  and  O_12
REMARK   10  A    between atoms: O_12  and  C_13
REMARK   11  A    between atoms: C_16  and  C_17
REMARK   12  A    between atoms: C_21  and  C_22
REMARK                            x       y       z     vdW  Elec       q    Type
REMARK                         _______ _______ _______ _____ _____    ______ ____
ROOT
ATOM      1  N   UNL     1       3.573   5.166  18.179  0.00  0.00    +0.000 N 
ENDROOT
BRANCH   1   2
ATOM      2  C   UNL     1       4.965   5.138  17.898  0.00  0.00    +0.000 A 
ATOM      3  N   UNL     1       5.878   5.400  18.884  0.00  0.00    +0.000 NA
ATOM      4  C   UNL     1       7.208   5.339  18.629  0.00  0.00    +0.000 A 
ATOM      5  C   UNL     1       8.140   5.636  19.764  0.00  0.00    +0.000 C 
ATOM      6  N   UNL     1       7.784   5.024  17.459  0.00  0.00    +0.000 NA
ATOM      7  C   UNL     1       6.868   4.754  16.526  0.00  0.00    +0.000 A 
ATOM      8  O   UNL     1       7.172   4.375  15.250  0.00  0.00    +0.000 OA
ATOM      9  C   UNL     1       5.955   4.178  14.661  0.00  0.00    +0.000 A 
ATOM     10  C   UNL     1       5.979   3.742  13.250  0.00  0.00    +0.000 C 
ATOM     11  N   UNL     1       4.914   4.388  15.442  0.00  0.00    +0.000 NA
ATOM     12  C   UNL     1       5.489   4.774  16.640  0.00  0.00    +0.000 A 
ENDBRANCH   1   2
BRANCH   1  13
ATOM     13  C   UNL     1       3.225   5.778  19.472  0.00  0.00    +0.000 C 
BRANCH  13  17
ATOM     14  C   UNL     1       1.164   9.568  18.961  0.00  0.00    +0.000 A 
ATOM     15  C   UNL     1       1.753   8.930  17.865  0.00  0.00    +0.000 A 
ATOM     16  C   UNL     1       2.382   7.687  18.012  0.00  0.00    +0.000 A 
ATOM     17  C   UNL     1       2.418   7.053  19.262  0.00  0.00    +0.000 A 
ATOM     18  C   UNL     1       1.762   7.668  20.335  0.00  0.00    +0.000 A 
ATOM     19  C   UNL     1       1.164   8.924  20.195  0.00  0.00    +0.000 A 
BRANCH  14  20
ATOM     20  O   UNL     1       0.632  10.803  18.704  0.00  0.00    +0.000 OA
BRANCH  20  22
ATOM     21  C   UNL     1      -0.808  12.141  20.060  0.00  0.00    +0.000 C 
ATOM     22  C   UNL     1      -0.736  10.999  19.062  0.00  0.00    +0.000 C 
ENDBRANCH  20  22
ENDBRANCH  14  20
ENDBRANCH  13  17
ENDBRANCH   1  13
BRANCH   1  23
ATOM     23  C   UNL     1       3.022   3.842  17.818  0.00  0.00    +0.000 C 
BRANCH  23  24
ATOM     24  C   UNL     1       3.322   2.676  18.772  0.00  0.00    +0.000 C 
BRANCH  24  25
ATOM     25  O   UNL     1       2.194   1.887  19.151  0.00  0.00    +0.000 OA
ATOM     26  C   UNL     1       0.949   2.476  18.795  0.00  0.00    +0.000 C 
ENDBRANCH  24  25
ENDBRANCH  23  24
ENDBRANCH   1  23
TORSDOF 8
ENDMDL
MODEL 5
REMARK VINA RESULT:      -7.5      0.959      1.161
REMARK  Name = 
REMARK  12 active torsions:
REMARK  status: ('A' for Active; 'I' for Inactive)
REMARK    1  A    between atoms: C_1  and  C_2
REMARK    2  A    between atoms: C_2  and  O_3
REMARK    3  A    between atoms: O_3  and  C_4
REMARK    4  A    between atoms: C_7  and  C_8
REMARK    5  A    between atoms: C_8  and  N_9
REMARK    6  A    between atoms: N_9  and  C_10
REMARK    7  A    between atoms: N_9  and  C_14
REMARK    8  A    between atoms: C_10  and  C_11
REMARK    9  A    between atoms: C_11  and  O_12
REMARK   10  A    between atoms: O_12  and  C_13
REMARK   11  A    between atoms: C_16  and  C_17
REMARK   12  A    between atoms: C_21  and  C_22
REMARK                            x       y       z     vdW  Elec       q    Type
REMARK                         _______ _______ _______ _____ _____    ______ ____
ROOT
ATOM      1  N   UNL     1       3.473   5.223  17.983  0.00  0.00    +0.000 N 
ENDROOT
BRANCH   1   2
ATOM      2  C   UNL     1       4.875   5.175  17.756  0.00  0.00    +0.000 A 
ATOM      3  N   UNL     1       5.753   5.431  18.775  0.00  0.00    +0.000 NA
ATOM      4  C   UNL     1       7.091   5.351  18.571  0.00  0.00    +0.000 A 
ATOM      5  C   UNL     1       7.983   5.643  19.739  0.00  0.00    +0.000 C 
ATOM      6  N   UNL     1       7.706   5.020  17.426  0.00  0.00    +0.000 NA
ATOM      7  C   UNL     1       6.823   4.755  16.460  0.00  0.00    +0.000 A 
ATOM      8  O   UNL     1       7.171   4.364  15.199  0.00  0.00    +0.000 OA
ATOM      9  C   UNL     1       5.975   4.179  14.565  0.00  0.00    +0.000 A 
ATOM     10  C   UNL     1       6.046   3.732  13.160  0.00  0.00    +0.000 C 
ATOM     11  N   UNL     1       4.907   4.408  15.305  0.00  0.00    +0.000 NA
ATOM     12  C   UNL     1       5.441   4.795  16.521  0.00  0.00    +0.000 A 
ENDBRANCH   1   2
BRANCH   1  13
ATOM     13  C   UNL     1       3.090   5.721  19.315  0.00  0.00    +0.000 C 
BRANCH  13  17
ATOM     14  C   UNL     1       1.160   9.593  18.920  0.00  0.00    +0.000 A 
ATOM     15  C   UNL     1       1.172   8.932  20.151  0.00  0.00    +0.000 A 
ATOM     16  C   UNL     1       1.829   7.703  20.298  0.00  0.00    +0.000 A 
ATOM     17  C   UNL     1       2.501   7.123  19.214  0.00  0.00    +0.000 A 
ATOM     18  C   UNL     1       2.543   7.830  18.006  0.00  0.00    +0.000 A 
ATOM     19  C   UNL     1       1.858   9.039  17.850  0.00  0.00    +0.000 A 
BRANCH  14  20
ATOM     20  O   UNL     1       0.437  10.755  18.886  0.00  0.00    +0.000 OA
BRANCH  20  22
ATOM     21  C   UNL     1       1.225  12.598  20.184  0.00  0.00    +0.000 C 
ATOM     22  C   UNL     1       1.181  11.971  18.802  0.00  0.00    +0.000 C 
ENDBRANCH  20  22
ENDBRANCH  14  20
ENDBRANCH  13  17
ENDBRANCH   1  13
BRANCH   1  23
ATOM     23  C   UNL     1       2.899   3.959  17.475  0.00  0.00    +0.000 C 
BRANCH  23  24
ATOM     24  C   UNL     1       2.649   2.843  18.500  0.00  0.00    +0.000 C 
BRANCH  24  25
ATOM     25  O   UNL     1       3.759   1.983  18.755  0.00  0.00    +0.000 OA
ATOM     26  C   UNL     1       4.409   2.253  19.991  0.00  0.00    +0.000 C 
ENDBRANCH  24  25
ENDBRANCH  23  24
ENDBRANCH   1  23
TORSDOF 8
ENDMDL
MODEL 6
REMARK VINA RESULT:      -7.4      1.736      2.235
REMARK  Name = 
REMARK  12 active torsions:
REMARK  status: ('A' for Active; 'I' for Inactive)
REMARK    1  A    between atoms: C_1  and  C_2
REMARK    2  A    between atoms: C_2  and  O_3
REMARK    3  A    between atoms: O_3  and  C_4
REMARK    4  A    between atoms: C_7  and  C_8
REMARK    5  A    between atoms: C_8  and  N_9
REMARK    6  A    between atoms: N_9  and  C_10
REMARK    7  A    between atoms: N_9  and  C_14
REMARK    8  A    between atoms: C_10  and  C_11
REMARK    9  A    between atoms: C_11  and  O_12
REMARK   10  A    between atoms: O_12  and  C_13
REMARK   11  A    between atoms: C_16  and  C_17
REMARK   12  A    between atoms: C_21  and  C_22
REMARK                            x       y       z     vdW  Elec       q    Type
REMARK                         _______ _______ _______ _____ _____    ______ ____
ROOT
ATOM      1  N   UNL     1       4.228   3.308  18.538  0.00  0.00    +0.000 N 
ENDROOT
BRANCH   1   2
ATOM      2  C   UNL     1       5.386   4.025  18.136  0.00  0.00    +0.000 A 
ATOM      3  N   UNL     1       6.188   4.629  19.067  0.00  0.00    +0.000 NA
ATOM      4  C   UNL     1       7.314   5.284  18.690  0.00  0.00    +0.000 A 
ATOM      5  C   UNL     1       8.137   5.914  19.772  0.00  0.00    +0.000 C 
ATOM      6  N   UNL     1       7.780   5.417  17.440  0.00  0.00    +0.000 NA
ATOM      7  C   UNL     1       6.989   4.799  16.559  0.00  0.00    +0.000 A 
ATOM      8  O   UNL     1       7.239   4.748  15.218  0.00  0.00    +0.000 OA
ATOM      9  C   UNL     1       6.208   4.007  14.714  0.00  0.00    +0.000 A 
ATOM     10  C   UNL     1       6.226   3.774  13.256  0.00  0.00    +0.000 C 
ATOM     11  N   UNL     1       5.336   3.580  15.607  0.00  0.00    +0.000 NA
ATOM     12  C   UNL     1       5.820   4.097  16.795  0.00  0.00    +0.000 A 
ENDBRANCH   1   2
BRANCH   1  13
ATOM     13  C   UNL     1       2.961   3.875  18.048  0.00  0.00    +0.000 C 
BRANCH  13  17
ATOM     14  C   UNL     1       1.820   7.624  19.922  0.00  0.00    +0.000 A 
ATOM     15  C   UNL     1       1.690   6.419  20.617  0.00  0.00    +0.000 A 
ATOM     16  C   UNL     1       2.095   5.210  20.036  0.00  0.00    +0.000 A 
ATOM     17  C   UNL     1       2.655   5.191  18.752  0.00  0.00    +0.000 A 
ATOM     18  C   UNL     1       2.846   6.414  18.096  0.00  0.00    +0.000 A 
ATOM     19  C   UNL     1       2.410   7.615  18.661  0.00  0.00    +0.000 A 
BRANCH  14  20
ATOM     20  O   UNL     1       1.336   8.729  20.570  0.00  0.00    +0.000 OA
BRANCH  20  22
ATOM     21  C   UNL     1      -0.392  10.347  20.255  0.00  0.00    +0.000 C 
ATOM     22  C   UNL     1       0.944   9.832  19.752  0.00  0.00    +0.000 C 
ENDBRANCH  20  22
ENDBRANCH  14  20
ENDBRANCH  13  17
ENDBRANCH   1  13
BRANCH   1  23
ATOM     23  C   UNL     1       4.385   2.983  19.972  0.00  0.00    +0.000 C 
BRANCH  23  24
ATOM     24  C   UNL     1       4.853   1.562  20.321  0.00  0.00    +0.000 C 
BRANCH  24  25
ATOM     25  O   UNL     1       5.560   1.433  21.554  0.00  0.00    +0.000 OA
ATOM     26  C   UNL     1       5.947   0.095  21.844  0.00  0.00    +0.000 C 
ENDBRANCH  24  25
ENDBRANCH  23  24
ENDBRANCH   1  23
TORSDOF 8
ENDMDL
MODEL 7
REMARK VINA RESULT:      -7.4      1.252      1.732
REMARK  Name = 
REMARK  12 active torsions:
REMARK  status: ('A' for Active; 'I' for Inactive)
REMARK    1  A    between atoms: C_1  and  C_2
REMARK    2  A    between atoms: C_2  and  O_3
REMARK    3  A    between atoms: O_3  and  C_4
REMARK    4  A    between atoms: C_7  and  C_8
REMARK    5  A    between atoms: C_8  and  N_9
REMARK    6  A    between atoms: N_9  and  C_10
REMARK    7  A    between atoms: N_9  and  C_14
REMARK    8  A    between atoms: C_10  and  C_11
REMARK    9  A    between atoms: C_11  and  O_12
REMARK   10  A    between atoms: O_12  and  C_13
REMARK   11  A    between atoms: C_16  and  C_17
REMARK   12  A    between atoms: C_21  and  C_22
REMARK                            x       y       z     vdW  Elec       q    Type
REMARK                         _______ _______ _______ _____ _____    ______ ____
ROOT
ATOM      1  N   UNL     1       3.792   5.302  17.738  0.00  0.00    +0.000 N 
ENDROOT
BRANCH   1   2
ATOM      2  C   UNL     1       5.066   5.641  17.211  0.00  0.00    +0.000 A 
ATOM      3  N   UNL     1       5.937   6.409  17.936  0.00  0.00    +0.000 NA
ATOM      4  C   UNL     1       7.168   6.706  17.451  0.00  0.00    +0.000 A 
ATOM      5  C   UNL     1       8.060   7.548  18.310  0.00  0.00    +0.000 C 
ATOM      6  N   UNL     1       7.680   6.308  16.277  0.00  0.00    +0.000 NA
ATOM      7  C   UNL     1       6.816   5.544  15.604  0.00  0.00    +0.000 A 
ATOM      8  O   UNL     1       7.087   4.977  14.392  0.00  0.00    +0.000 OA
ATOM      9  C   UNL     1       5.956   4.272  14.094  0.00  0.00    +0.000 A 
ATOM     10  C   UNL     1       5.970   3.531  12.816  0.00  0.00    +0.000 C 
ATOM     11  N   UNL     1       5.002   4.332  15.002  0.00  0.00    +0.000 NA
ATOM     12  C   UNL     1       5.538   5.161  15.971  0.00  0.00    +0.000 A 
ENDBRANCH   1   2
BRANCH   1  13
ATOM     13  C   UNL     1       3.532   5.831  19.087  0.00  0.00    +0.000 C 
BRANCH  13  17
ATOM     14  C   UNL     1       1.129   9.449  18.980  0.00  0.00    +0.000 A 
ATOM     15  C   UNL     1       1.695   8.942  17.807  0.00  0.00    +0.000 A 
ATOM     16  C   UNL     1       2.436   7.752  17.825  0.00  0.00    +0.000 A 
ATOM     17  C   UNL     1       2.608   7.040  19.020  0.00  0.00    +0.000 A 
ATOM     18  C   UNL     1       1.975   7.521  20.174  0.00  0.00    +0.000 A 
ATOM     19  C   UNL     1       1.265   8.725  20.162  0.00  0.00    +0.000 A 
BRANCH  14  20
ATOM     20  O   UNL     1       0.479  10.646  18.847  0.00  0.00    +0.000 OA
BRANCH  20  22
ATOM     21  C   UNL     1       1.907  12.549  19.048  0.00  0.00    +0.000 C 
ATOM     22  C   UNL     1       0.865  11.689  19.741  0.00  0.00    +0.000 C 
ENDBRANCH  20  22
ENDBRANCH  14  20
ENDBRANCH  13  17
ENDBRANCH   1  13
BRANCH   1  23
ATOM     23  C   UNL     1       3.561   3.870  17.450  0.00  0.00    +0.000 C 
BRANCH  23  24
ATOM     24  C   UNL     1       2.121   3.352  17.588  0.00  0.00    +0.000 C 
BRANCH  24  25
ATOM     25  O   UNL     1       1.878   2.502  18.708  0.00  0.00    +0.000 OA
ATOM     26  C   UNL     1       1.003   3.075  19.672  0.00  0.00    +0.000 C 
ENDBRANCH  24  25
ENDBRANCH  23  24
ENDBRANCH   1  23
TORSDOF 8
ENDMDL
MODEL 8
REMARK VINA RESULT:      -7.2      2.476      7.178
REMARK  Name = 
REMARK  12 active torsions:
REMARK  status: ('A' for Active; 'I' for Inactive)
REMARK    1  A    between atoms: C_1  and  C_2
REMARK    2  A    between atoms: C_2  and  O_3
REMARK    3  A    between atoms: O_3  and  C_4
REMARK    4  A    between atoms: C_7  and  C_8
REMARK    5  A    between atoms: C_8  and  N_9
REMARK    6  A    between atoms: N_9  and  C_10
REMARK    7  A    between atoms: N_9  and  C_14
REMARK    8  A    between atoms: C_10  and  C_11
REMARK    9  A    between atoms: C_11  and  O_12
REMARK   10  A    between atoms: O_12  and  C_13
REMARK   11  A    between atoms: C_16  and  C_17
REMARK   12  A    between atoms: C_21  and  C_22
REMARK                            x       y       z     vdW  Elec       q    Type
REMARK                         _______ _______ _______ _____ _____    ______ ____
ROOT
ATOM      1  N   UNL     1       6.743   5.706  17.327  0.00  0.00    +0.000 N 
ENDROOT
BRANCH   1   2
ATOM      2  C   UNL     1       5.573   5.280  18.009  0.00  0.00    +0.000 A 
ATOM      3  N   UNL     1       5.561   4.096  18.697  0.00  0.00    +0.000 NA
ATOM      4  C   UNL     1       4.458   3.702  19.379  0.00  0.00    +0.000 A 
ATOM      5  C   UNL     1       4.530   2.396  20.108  0.00  0.00    +0.000 C 
ATOM      6  N   UNL     1       3.301   4.373  19.482  0.00  0.00    +0.000 NA
ATOM      7  C   UNL     1       3.351   5.531  18.819  0.00  0.00    +0.000 A 
ATOM      8  O   UNL     1       2.324   6.429  18.779  0.00  0.00    +0.000 OA
ATOM      9  C   UNL     1       2.811   7.461  18.027  0.00  0.00    +0.000 A 
ATOM     10  C   UNL     1       1.899   8.604  17.823  0.00  0.00    +0.000 C 
ATOM     11  N   UNL     1       4.048   7.305  17.596  0.00  0.00    +0.000 NA
ATOM     12  C   UNL     1       4.400   6.060  18.086  0.00  0.00    +0.000 A 
ENDBRANCH   1   2
BRANCH   1  13
ATOM     13  C   UNL     1       7.445   4.637  16.597  0.00  0.00    +0.000 C 
BRANCH  13  17
ATOM     14  C   UNL     1       5.944   3.908  12.586  0.00  0.00    +0.000 A 
ATOM     15  C   UNL     1       5.216   3.484  13.700  0.00  0.00    +0.000 A 
ATOM     16  C   UNL     1       5.671   3.753  14.998  0.00  0.00    +0.000 A 
ATOM     17  C   UNL     1       6.859   4.468  15.201  0.00  0.00    +0.000 A 
ATOM     18  C   UNL     1       7.541   4.949  14.076  0.00  0.00    +0.000 A 
ATOM     19  C   UNL     1       7.105   4.651  12.782  0.00  0.00    +0.000 A 
BRANCH  14  20
ATOM     20  O   UNL     1       5.429   3.537  11.373  0.00  0.00    +0.000 OA
BRANCH  20  22
ATOM     21  C   UNL     1       3.376   3.969  10.233  0.00  0.00    +0.000 C 
ATOM     22  C   UNL     1       4.046   3.183  11.344  0.00  0.00    +0.000 C 
ENDBRANCH  20  22
ENDBRANCH  14  20
ENDBRANCH  13  17
ENDBRANCH   1  13
BRANCH   1  23
ATOM     23  C   UNL     1       7.494   6.587  18.246  0.00  0.00    +0.000 C 
BRANCH  23  24
ATOM     24  C   UNL     1       7.844   7.994  17.737  0.00  0.00    +0.000 C 
BRANCH  24  25
ATOM     25  O   UNL     1       8.770   8.726  18.540  0.00  0.00    +0.000 OA
ATOM     26  C   UNL     1       8.645  10.136  18.401  0.00  0.00    +0.000 C 
ENDBRANCH  24  25
ENDBRANCH  23  24
ENDBRANCH   1  23
TORSDOF 8
ENDMDL
MODEL 9
REMARK VINA RESULT:      -7.2      1.540      3.032
REMARK  Name = 
REMARK  12 active torsions:
REMARK  status: ('A' for Active; 'I' for Inactive)
REMARK    1  A    between atoms: C_1  and  C_2
REMARK    2  A    between atoms: C_2  and  O_3
REMARK    3  A    between atoms: O_3  and  C_4
REMARK    4  A    between atoms: C_7  and  C_8
REMARK    5  A    between atoms: C_8  and  N_9
REMARK    6  A    between atoms: N_9  and  C_10
REMARK    7  A    between atoms: N_9  and  C_14
REMARK    8  A    between atoms: C_10  and  C_11
REMARK    9  A    between atoms: C_11  and  O_12
REMARK   10  A    between atoms: O_12  and  C_13
REMARK   11  A    between atoms: C_16  and  C_17
REMARK   12  A    between atoms: C_21  and  C_22
REMARK                            x       y       z     vdW  Elec       q    Type
REMARK                         _______ _______ _______ _____ _____    ______ ____
ROOT
ATOM      1  N   UNL     1       3.705   5.195  17.429  0.00  0.00    +0.000 N 
ENDROOT
BRANCH   1   2
ATOM      2  C   UNL     1       4.879   5.211  16.630  0.00  0.00    +0.000 A 
ATOM      3  N   UNL     1       4.970   4.424  15.514  0.00  0.00    +0.000 NA
ATOM      4  C   UNL     1       6.075   4.462  14.728  0.00  0.00    +0.000 A 
ATOM      5  C   UNL     1       6.093   3.573  13.523  0.00  0.00    +0.000 C 
ATOM      6  N   UNL     1       7.159   5.231  14.912  0.00  0.00    +0.000 NA
ATOM      7  C   UNL     1       7.030   6.000  15.995  0.00  0.00    +0.000 A 
ATOM      8  O   UNL     1       7.970   6.902  16.403  0.00  0.00    +0.000 OA
ATOM      9  C   UNL     1       7.422   7.476  17.515  0.00  0.00    +0.000 A 
ATOM     10  C   UNL     1       8.232   8.521  18.174  0.00  0.00    +0.000 C 
ATOM     11  N   UNL     1       6.225   7.030  17.844  0.00  0.00    +0.000 NA
ATOM     12  C   UNL     1       5.970   6.069  16.882  0.00  0.00    +0.000 A 
ENDBRANCH   1   2
BRANCH   1  13
ATOM     13  C   UNL     1       3.853   5.845  18.741  0.00  0.00    +0.000 C 
BRANCH  13  17
ATOM     14  C   UNL     1       1.199   9.238  19.305  0.00  0.00    +0.000 A 
ATOM     15  C   UNL     1       1.818   9.023  18.070  0.00  0.00    +0.000 A 
ATOM     16  C   UNL     1       2.641   7.908  17.867  0.00  0.00    +0.000 A 
ATOM     17  C   UNL     1       2.846   6.978  18.896  0.00  0.00    +0.000 A 
ATOM     18  C   UNL     1       2.162   7.167  20.104  0.00  0.00    +0.000 A 
ATOM     19  C   UNL     1       1.369   8.298  20.318  0.00  0.00    +0.000 A 
BRANCH  14  20
ATOM     20  O   UNL     1       0.466  10.391  19.400  0.00  0.00    +0.000 OA
BRANCH  20  22
ATOM     21  C   UNL     1       0.044  11.766  21.306  0.00  0.00    +0.000 C 
ATOM     22  C   UNL     1       1.022  11.441  20.192  0.00  0.00    +0.000 C 
ENDBRANCH  20  22
ENDBRANCH  14  20
ENDBRANCH  13  17
ENDBRANCH   1  13
BRANCH   1  23
ATOM     23  C   UNL     1       3.128   3.836  17.341  0.00  0.00    +0.000 C 
BRANCH  23  24
ATOM     24  C   UNL     1       1.656   3.673  17.749  0.00  0.00    +0.000 C 
BRANCH  24  25
ATOM     25  O   UNL     1       1.431   2.954  18.962  0.00  0.00    +0.000 OA
ATOM     26  C   UNL     1       2.616   2.389  19.510  0.00  0.00    +0.000 C 
ENDBRANCH  24  25
ENDBRANCH  23  24
ENDBRANCH   1  23
TORSDOF 8
ENDMDL
