MODEL 1
REMARK VINA RESULT:      -7.4      0.000      0.000
REMARK  Name = 
REMARK  5 active torsions:
REMARK  status: ('A' for Active; 'I' for Inactive)
REMARK    1  A    between atoms: C_2  and  C_3
REMARK    2  A    between atoms: C_6  and  N_7
REMARK    3  A    between atoms: N_7  and  C_8
REMARK    4  A    between atoms: C_8  and  C_9
REMARK    5  A    between atoms: C_14  and  O_15
REMARK                            x       y       z     vdW  Elec       q    Type
REMARK                         _______ _______ _______ _____ _____    ______ ____
ROOT
ATOM      1  C   UNL     1       2.943   4.985  18.932  0.00  0.00    +0.000 A 
ATOM      2  C   UNL     1       4.310   5.297  19.053  0.00  0.00    +0.000 A 
ATOM      3  C   UNL     1       5.234   4.899  18.086  0.00  0.00    +0.000 A 
ATOM      4  C   UNL     1       4.809   4.206  16.950  0.00  0.00    +0.000 A 
ATOM      5  C   UNL     1       3.456   3.866  16.829  0.00  0.00    +0.000 A 
ATOM      6  C   UNL     1       2.539   4.251  17.814  0.00  0.00    +0.000 A 
ATOM      7  C   UNL     1       5.789   3.803  15.883  0.00  0.00    +0.000 C 
ATOM      8  C   UNL     1       7.081   4.593  16.023  0.00  0.00    +0.000 C 
ATOM      9  C   UNL     1       7.495   4.587  17.485  0.00  0.00    +0.000 C 
ATOM     10  O   UNL     1       6.538   5.258  18.311  0.00  0.00    +0.000 OA
ENDROOT
BRANCH   6  11
ATOM     11  O   UNL     1       1.225   3.901  17.681  0.00  0.00    +0.000 OA
ATOM     12  H   UNL     1       0.685   4.710  17.681  0.00  0.00    +0.000 HD
ENDBRANCH   6  11
BRANCH   1  13
ATOM     13  C   UNL     1       1.991   5.401  20.034  0.00  0.00    +0.000 C 
BRANCH  13  14
ATOM     14  N   UNL     1       2.362   6.726  20.524  0.00  0.00    +0.000 N 
ATOM     15  H   UNL     1       3.362   6.824  20.677  0.00  0.00    +0.000 HD
BRANCH  14  19
ATOM     16  C   UNL     1       0.373  10.181  19.156  0.00  0.00    +0.000 A 
ATOM     17  C   UNL     1       0.226   9.730  20.469  0.00  0.00    +0.000 A 
ATOM     18  C   UNL     1       0.933   8.602  20.902  0.00  0.00    +0.000 A 
ATOM     19  C   UNL     1       1.769   7.884  20.037  0.00  0.00    +0.000 A 
ATOM     20  C   UNL     1       1.930   8.367  18.735  0.00  0.00    +0.000 A 
ATOM     21  C   UNL     1       1.240   9.506  18.295  0.00  0.00    +0.000 A 
BRANCH  16  23
ATOM     22  N   UNL     1      -0.959  12.249  18.329  0.00  0.00    +0.000 NA
ATOM     23  C   UNL     1      -0.366  11.325  18.698  0.00  0.00    +0.000 C 
ENDBRANCH  16  23
ENDBRANCH  14  19
ENDBRANCH  13  14
ENDBRANCH   1  13
TORSDOF 5
ENDMDL
MODEL 2
REMARK VINA RESULT:      -7.3      4.001      6.301
REMARK  Name = 
REMARK  5 active torsions:
REMARK  status: ('A' for Active; 'I' for Inactive)
REMARK    1  A    between atoms: C_2  and  C_3
REMARK    2  A    between atoms: C_6  and  N_7
REMARK    3  A    between atoms: N_7  and  C_8
REMARK    4  A    between atoms: C_8  and  C_9
REMARK    5  A    between atoms: C_14  and  O_15
REMARK                            x       y       z     vdW  Elec       q    Type
REMARK                         _______ _______ _______ _____ _____    ______ ____
ROOT
ATOM      1  C   UNL     1       4.403   4.217  17.483  0.00  0.00    +0.000 A 
ATOM      2  C   UNL     1       4.211   3.171  18.406  0.00  0.00    +0.000 A 
ATOM      3  C   UNL     1       3.302   3.291  19.458  0.00  0.00    +0.000 A 
ATOM      4  C   UNL     1       2.533   4.449  19.596  0.00  0.00    +0.000 A 
ATOM      5  C   UNL     1       2.733   5.508  18.700  0.00  0.00    +0.000 A 
ATOM      6  C   UNL     1       3.661   5.387  17.660  0.00  0.00    +0.000 A 
ATOM      7  C   UNL     1       1.525   4.576  20.705  0.00  0.00    +0.000 C 
ATOM      8  C   UNL     1       1.205   3.210  21.289  0.00  0.00    +0.000 C 
ATOM      9  C   UNL     1       2.509   2.465  21.522  0.00  0.00    +0.000 C 
ATOM     10  O   UNL     1       3.200   2.211  20.295  0.00  0.00    +0.000 OA
ENDROOT
BRANCH   6  11
ATOM     11  O   UNL     1       3.847   6.435  16.802  0.00  0.00    +0.000 OA
ATOM     12  H   UNL     1       3.696   6.125  15.893  0.00  0.00    +0.000 HD
ENDBRANCH   6  11
BRANCH   1  13
ATOM     13  C   UNL     1       5.435   4.053  16.387  0.00  0.00    +0.000 C 
BRANCH  13  14
ATOM     14  N   UNL     1       6.774   4.194  16.953  0.00  0.00    +0.000 N 
ATOM     15  H   UNL     1       7.485   3.708  16.412  0.00  0.00    +0.000 HD
BRANCH  14  19
ATOM     16  C   UNL     1       8.233   7.884  18.375  0.00  0.00    +0.000 A 
ATOM     17  C   UNL     1       7.659   7.769  17.108  0.00  0.00    +0.000 A 
ATOM     18  C   UNL     1       7.147   6.538  16.682  0.00  0.00    +0.000 A 
ATOM     19  C   UNL     1       7.225   5.394  17.489  0.00  0.00    +0.000 A 
ATOM     20  C   UNL     1       7.774   5.532  18.767  0.00  0.00    +0.000 A 
ATOM     21  C   UNL     1       8.274   6.765  19.210  0.00  0.00    +0.000 A 
BRANCH  16  23
ATOM     22  N   UNL     1       9.219  10.153  19.160  0.00  0.00    +0.000 NA
ATOM     23  C   UNL     1       8.780   9.139  18.811  0.00  0.00    +0.000 C 
ENDBRANCH  16  23
ENDBRANCH  14  19
ENDBRANCH  13  14
ENDBRANCH   1  13
TORSDOF 5
ENDMDL
MODEL 3
REMARK VINA RESULT:      -7.3      0.279      1.085
REMARK  Name = 
REMARK  5 active torsions:
REMARK  status: ('A' for Active; 'I' for Inactive)
REMARK    1  A    between atoms: C_2  and  C_3
REMARK    2  A    between atoms: C_6  and  N_7
REMARK    3  A    between atoms: N_7  and  C_8
REMARK    4  A    between atoms: C_8  and  C_9
REMARK    5  A    between atoms: C_14  and  O_15
REMARK                            x       y       z     vdW  Elec       q    Type
REMARK                         _______ _______ _______ _____ _____    ______ ____
ROOT
ATOM      1  C   UNL     1       2.886   4.892  18.991  0.00  0.00    +0.000 A 
ATOM      2  C   UNL     1       4.247   5.226  19.123  0.00  0.00    +0.000 A 
ATOM      3  C   UNL     1       5.180   4.863  18.151  0.00  0.00    +0.000 A 
ATOM      4  C   UNL     1       4.772   4.187  16.999  0.00  0.00    +0.000 A 
ATOM      5  C   UNL     1       3.424   3.826  16.866  0.00  0.00    +0.000 A 
ATOM      6  C   UNL     1       2.498   4.175  17.856  0.00  0.00    +0.000 A 
ATOM      7  C   UNL     1       5.762   3.823  15.928  0.00  0.00    +0.000 C 
ATOM      8  C   UNL     1       7.039   4.632  16.089  0.00  0.00    +0.000 C 
ATOM      9  C   UNL     1       7.449   4.602  17.552  0.00  0.00    +0.000 C 
ATOM     10  O   UNL     1       6.477   5.240  18.388  0.00  0.00    +0.000 OA
ENDROOT
BRANCH   6  11
ATOM     11  O   UNL     1       1.190   3.805  17.711  0.00  0.00    +0.000 OA
ATOM     12  H   UNL     1       0.685   4.569  17.382  0.00  0.00    +0.000 HD
ENDBRANCH   6  11
BRANCH   1  13
ATOM     13  C   UNL     1       1.923   5.269  20.097  0.00  0.00    +0.000 C 
BRANCH  13  14
ATOM     14  N   UNL     1       2.307   6.561  20.659  0.00  0.00    +0.000 N 
ATOM     15  H   UNL     1       3.312   6.651  20.790  0.00  0.00    +0.000 HD
BRANCH  14  19
ATOM     16  C   UNL     1       0.667  10.216  19.349  0.00  0.00    +0.000 A 
ATOM     17  C   UNL     1       1.468   9.438  18.513  0.00  0.00    +0.000 A 
ATOM     18  C   UNL     1       1.964   8.209  18.965  0.00  0.00    +0.000 A 
ATOM     19  C   UNL     1       1.702   7.747  20.262  0.00  0.00    +0.000 A 
ATOM     20  C   UNL     1       0.873   8.522  21.077  0.00  0.00    +0.000 A 
ATOM     21  C   UNL     1       0.356   9.746  20.628  0.00  0.00    +0.000 A 
BRANCH  16  23
ATOM     22  N   UNL     1      -0.225  12.513  18.535  0.00  0.00    +0.000 NA
ATOM     23  C   UNL     1       0.172  11.487  18.900  0.00  0.00    +0.000 C 
ENDBRANCH  16  23
ENDBRANCH  14  19
ENDBRANCH  13  14
ENDBRANCH   1  13
TORSDOF 5
ENDMDL
MODEL 4
REMARK VINA RESULT:      -7.2      3.949      6.269
REMARK  Name = 
REMARK  5 active torsions:
REMARK  status: ('A' for Active; 'I' for Inactive)
REMARK    1  A    between atoms: C_2  and  C_3
REMARK    2  A    between atoms: C_6  and  N_7
REMARK    3  A    between atoms: N_7  and  C_8
REMARK    4  A    between atoms: C_8  and  C_9
REMARK    5  A    between atoms: C_14  and  O_15
REMARK                            x       y       z     vdW  Elec       q    Type
REMARK                         _______ _______ _______ _____ _____    ______ ____
ROOT
ATOM      1  C   UNL     1       4.252   4.192  17.423  0.00  0.00    +0.000 A 
ATOM      2  C   UNL     1       3.999   3.133  18.315  0.00  0.00    +0.000 A 
ATOM      3  C   UNL     1       3.129   3.288  19.396  0.00  0.00    +0.000 A 
ATOM      4  C   UNL     1       2.460   4.498  19.594  0.00  0.00    +0.000 A 
ATOM      5  C   UNL     1       2.722   5.569  18.728  0.00  0.00    +0.000 A 
ATOM      6  C   UNL     1       3.611   5.411  17.659  0.00  0.00    +0.000 A 
ATOM      7  C   UNL     1       1.493   4.666  20.733  0.00  0.00    +0.000 C 
ATOM      8  C   UNL     1       1.078   3.310  21.280  0.00  0.00    +0.000 C 
ATOM      9  C   UNL     1       2.323   2.456  21.453  0.00  0.00    +0.000 C 
ATOM     10  O   UNL     1       2.961   2.190  20.199  0.00  0.00    +0.000 OA
ENDROOT
BRANCH   6  11
ATOM     11  O   UNL     1       3.860   6.470  16.832  0.00  0.00    +0.000 OA
ATOM     12  H   UNL     1       3.725   6.186  15.912  0.00  0.00    +0.000 HD
ENDBRANCH   6  11
BRANCH   1  13
ATOM     13  C   UNL     1       5.240   3.985  16.294  0.00  0.00    +0.000 C 
BRANCH  13  14
ATOM     14  N   UNL     1       6.602   4.087  16.813  0.00  0.00    +0.000 N 
ATOM     15  H   UNL     1       7.261   3.501  16.307  0.00  0.00    +0.000 HD
BRANCH  14  19
ATOM     16  C   UNL     1       8.168   7.730  18.241  0.00  0.00    +0.000 A 
ATOM     17  C   UNL     1       8.186   6.574  19.023  0.00  0.00    +0.000 A 
ATOM     18  C   UNL     1       7.695   5.371  18.504  0.00  0.00    +0.000 A 
ATOM     19  C   UNL     1       7.148   5.299  17.215  0.00  0.00    +0.000 A 
ATOM     20  C   UNL     1       7.165   6.457  16.433  0.00  0.00    +0.000 A 
ATOM     21  C   UNL     1       7.671   7.664  16.937  0.00  0.00    +0.000 A 
BRANCH  16  23
ATOM     22  N   UNL     1       9.041   9.976  19.203  0.00  0.00    +0.000 NA
ATOM     23  C   UNL     1       8.650   8.973  18.775  0.00  0.00    +0.000 C 
ENDBRANCH  16  23
ENDBRANCH  14  19
ENDBRANCH  13  14
ENDBRANCH   1  13
TORSDOF 5
ENDMDL
MODEL 5
REMARK VINA RESULT:      -7.0      2.847      4.013
REMARK  Name = 
REMARK  5 active torsions:
REMARK  status: ('A' for Active; 'I' for Inactive)
REMARK    1  A    between atoms: C_2  and  C_3
REMARK    2  A    between atoms: C_6  and  N_7
REMARK    3  A    between atoms: N_7  and  C_8
REMARK    4  A    between atoms: C_8  and  C_9
REMARK    5  A    between atoms: C_14  and  O_15
REMARK                            x       y       z     vdW  Elec       q    Type
REMARK                         _______ _______ _______ _____ _____    ______ ____
ROOT
ATOM      1  C   UNL     1       2.293   7.046  18.774  0.00  0.00    +0.000 A 
ATOM      2  C   UNL     1       2.302   5.958  17.881  0.00  0.00    +0.000 A 
ATOM      3  C   UNL     1       2.039   4.659  18.319  0.00  0.00    +0.000 A 
ATOM      4  C   UNL     1       1.724   4.416  19.658  0.00  0.00    +0.000 A 
ATOM      5  C   UNL     1       1.736   5.486  20.562  0.00  0.00    +0.000 A 
ATOM      6  C   UNL     1       2.021   6.783  20.119  0.00  0.00    +0.000 A 
ATOM      7  C   UNL     1       1.404   3.027  20.134  0.00  0.00    +0.000 C 
ATOM      8  C   UNL     1       1.071   2.126  18.955  0.00  0.00    +0.000 C 
ATOM      9  C   UNL     1       2.114   2.342  17.871  0.00  0.00    +0.000 C 
ATOM     10  O   UNL     1       2.079   3.679  17.361  0.00  0.00    +0.000 OA
ENDROOT
BRANCH   6  11
ATOM     11  O   UNL     1       2.036   7.811  21.020  0.00  0.00    +0.000 OA
ATOM     12  H   UNL     1       1.331   8.438  20.789  0.00  0.00    +0.000 HD
ENDBRANCH   6  11
BRANCH   1  13
ATOM     13  C   UNL     1       2.630   8.428  18.256  0.00  0.00    +0.000 C 
BRANCH  13  14
ATOM     14  N   UNL     1       1.459   9.001  17.598  0.00  0.00    +0.000 N 
ATOM     15  H   UNL     1       1.018   8.357  16.947  0.00  0.00    +0.000 HD
BRANCH  14  19
ATOM     16  C   UNL     1      -1.392  11.483  19.463  0.00  0.00    +0.000 A 
ATOM     17  C   UNL     1      -1.719  10.712  18.347  0.00  0.00    +0.000 A 
ATOM     18  C   UNL     1      -0.760   9.867  17.776  0.00  0.00    +0.000 A 
ATOM     19  C   UNL     1       0.546   9.797  18.279  0.00  0.00    +0.000 A 
ATOM     20  C   UNL     1       0.850  10.551  19.416  0.00  0.00    +0.000 A 
ATOM     21  C   UNL     1      -0.109  11.388  20.007  0.00  0.00    +0.000 A 
BRANCH  16  23
ATOM     22  N   UNL     1      -3.147  13.084  20.507  0.00  0.00    +0.000 NA
ATOM     23  C   UNL     1      -2.365  12.368  20.041  0.00  0.00    +0.000 C 
ENDBRANCH  16  23
ENDBRANCH  14  19
ENDBRANCH  13  14
ENDBRANCH   1  13
TORSDOF 5
ENDMDL
MODEL 6
REMARK VINA RESULT:      -6.9      2.861      3.973
REMARK  Name = 
REMARK  5 active torsions:
REMARK  status: ('A' for Active; 'I' for Inactive)
REMARK    1  A    between atoms: C_2  and  C_3
REMARK    2  A    between atoms: C_6  and  N_7
REMARK    3  A    between atoms: N_7  and  C_8
REMARK    4  A    between atoms: C_8  and  C_9
REMARK    5  A    between atoms: C_14  and  O_15
REMARK                            x       y       z     vdW  Elec       q    Type
REMARK                         _______ _______ _______ _____ _____    ______ ____
ROOT
ATOM      1  C   UNL     1       2.289   7.019  18.791  0.00  0.00    +0.000 A 
ATOM      2  C   UNL     1       2.302   5.926  17.903  0.00  0.00    +0.000 A 
ATOM      3  C   UNL     1       2.039   4.629  18.345  0.00  0.00    +0.000 A 
ATOM      4  C   UNL     1       1.720   4.392  19.684  0.00  0.00    +0.000 A 
ATOM      5  C   UNL     1       1.729   5.466  20.584  0.00  0.00    +0.000 A 
ATOM      6  C   UNL     1       2.014   6.761  20.136  0.00  0.00    +0.000 A 
ATOM      7  C   UNL     1       1.399   3.005  20.165  0.00  0.00    +0.000 C 
ATOM      8  C   UNL     1       1.071   2.098  18.990  0.00  0.00    +0.000 C 
ATOM      9  C   UNL     1       2.117   2.311  17.908  0.00  0.00    +0.000 C 
ATOM     10  O   UNL     1       2.082   3.645  17.392  0.00  0.00    +0.000 OA
ENDROOT
BRANCH   6  11
ATOM     11  O   UNL     1       2.025   7.793  21.032  0.00  0.00    +0.000 OA
ATOM     12  H   UNL     1       1.636   8.577  20.610  0.00  0.00    +0.000 HD
ENDBRANCH   6  11
BRANCH   1  13
ATOM     13  C   UNL     1       2.627   8.399  18.268  0.00  0.00    +0.000 C 
BRANCH  13  14
ATOM     14  N   UNL     1       1.476   8.944  17.552  0.00  0.00    +0.000 N 
ATOM     15  H   UNL     1       1.035   8.264  16.938  0.00  0.00    +0.000 HD
BRANCH  14  19
ATOM     16  C   UNL     1      -1.196  11.474  19.608  0.00  0.00    +0.000 A 
ATOM     17  C   UNL     1       0.152  11.400  19.961  0.00  0.00    +0.000 A 
ATOM     18  C   UNL     1       1.021  10.581  19.232  0.00  0.00    +0.000 A 
ATOM     19  C   UNL     1       0.565   9.796  18.163  0.00  0.00    +0.000 A 
ATOM     20  C   UNL     1      -0.781   9.905  17.801  0.00  0.00    +0.000 A 
ATOM     21  C   UNL     1      -1.657  10.736  18.514  0.00  0.00    +0.000 A 
BRANCH  16  23
ATOM     22  N   UNL     1      -2.829  12.958  20.974  0.00  0.00    +0.000 NA
ATOM     23  C   UNL     1      -2.099  12.296  20.364  0.00  0.00    +0.000 C 
ENDBRANCH  16  23
ENDBRANCH  14  19
ENDBRANCH  13  14
ENDBRANCH   1  13
TORSDOF 5
ENDMDL
MODEL 7
REMARK VINA RESULT:      -6.8      2.716      4.041
REMARK  Name = 
REMARK  5 active torsions:
REMARK  status: ('A' for Active; 'I' for Inactive)
REMARK    1  A    between atoms: C_2  and  C_3
REMARK    2  A    between atoms: C_6  and  N_7
REMARK    3  A    between atoms: N_7  and  C_8
REMARK    4  A    between atoms: C_8  and  C_9
REMARK    5  A    between atoms: C_14  and  O_15
REMARK                            x       y       z     vdW  Elec       q    Type
REMARK                         _______ _______ _______ _____ _____    ______ ____
ROOT
ATOM      1  C   UNL     1       1.982   6.751  20.015  0.00  0.00    +0.000 A 
ATOM      2  C   UNL     1       1.663   5.439  20.413  0.00  0.00    +0.000 A 
ATOM      3  C   UNL     1       1.840   4.356  19.550  0.00  0.00    +0.000 A 
ATOM      4  C   UNL     1       2.374   4.552  18.274  0.00  0.00    +0.000 A 
ATOM      5  C   UNL     1       2.671   5.855  17.855  0.00  0.00    +0.000 A 
ATOM      6  C   UNL     1       2.472   6.938  18.720  0.00  0.00    +0.000 A 
ATOM      7  C   UNL     1       2.602   3.389  17.349  0.00  0.00    +0.000 C 
ATOM      8  C   UNL     1       2.585   2.082  18.125  0.00  0.00    +0.000 C 
ATOM      9  C   UNL     1       1.388   2.091  19.062  0.00  0.00    +0.000 C 
ATOM     10  O   UNL     1       1.493   3.126  20.045  0.00  0.00    +0.000 OA
ENDROOT
BRANCH   6  11
ATOM     11  O   UNL     1       2.761   8.203  18.288  0.00  0.00    +0.000 OA
ATOM     12  H   UNL     1       2.152   8.431  17.565  0.00  0.00    +0.000 HD
ENDBRANCH   6  11
BRANCH   1  13
ATOM     13  C   UNL     1       1.728   7.895  20.974  0.00  0.00    +0.000 C 
BRANCH  13  14
ATOM     14  N   UNL     1       0.946   8.930  20.302  0.00  0.00    +0.000 N 
ATOM     15  H   UNL     1       0.504   8.598  19.448  0.00  0.00    +0.000 HD
BRANCH  14  19
ATOM     16  C   UNL     1      -1.540  11.492  22.542  0.00  0.00    +0.000 A 
ATOM     17  C   UNL     1      -0.947  10.369  23.119  0.00  0.00    +0.000 A 
ATOM     18  C   UNL     1      -0.094   9.561  22.358  0.00  0.00    +0.000 A 
ATOM     19  C   UNL     1       0.159   9.833  21.006  0.00  0.00    +0.000 A 
ATOM     20  C   UNL     1      -0.418  10.979  20.451  0.00  0.00    +0.000 A 
ATOM     21  C   UNL     1      -1.260  11.805  21.210  0.00  0.00    +0.000 A 
BRANCH  16  23
ATOM     22  N   UNL     1      -3.156  12.974  23.931  0.00  0.00    +0.000 NA
ATOM     23  C   UNL     1      -2.434  12.313  23.311  0.00  0.00    +0.000 C 
ENDBRANCH  16  23
ENDBRANCH  14  19
ENDBRANCH  13  14
ENDBRANCH   1  13
TORSDOF 5
ENDMDL
MODEL 8
REMARK VINA RESULT:      -6.8      2.717      4.111
REMARK  Name = 
REMARK  5 active torsions:
REMARK  status: ('A' for Active; 'I' for Inactive)
REMARK    1  A    between atoms: C_2  and  C_3
REMARK    2  A    between atoms: C_6  and  N_7
REMARK    3  A    between atoms: N_7  and  C_8
REMARK    4  A    between atoms: C_8  and  C_9
REMARK    5  A    between atoms: C_14  and  O_15
REMARK                            x       y       z     vdW  Elec       q    Type
REMARK                         _______ _______ _______ _____ _____    ______ ____
ROOT
ATOM      1  C   UNL     1       1.979   6.767  20.022  0.00  0.00    +0.000 A 
ATOM      2  C   UNL     1       1.683   5.447  20.410  0.00  0.00    +0.000 A 
ATOM      3  C   UNL     1       1.865   4.375  19.534  0.00  0.00    +0.000 A 
ATOM      4  C   UNL     1       2.383   4.591  18.255  0.00  0.00    +0.000 A 
ATOM      5  C   UNL     1       2.658   5.903  17.846  0.00  0.00    +0.000 A 
ATOM      6  C   UNL     1       2.454   6.974  18.724  0.00  0.00    +0.000 A 
ATOM      7  C   UNL     1       2.617   3.441  17.315  0.00  0.00    +0.000 C 
ATOM      8  C   UNL     1       2.626   2.126  18.079  0.00  0.00    +0.000 C 
ATOM      9  C   UNL     1       1.440   2.109  19.028  0.00  0.00    +0.000 C 
ATOM     10  O   UNL     1       1.541   3.135  20.021  0.00  0.00    +0.000 OA
ENDROOT
BRANCH   6  11
ATOM     11  O   UNL     1       2.720   8.247  18.302  0.00  0.00    +0.000 OA
ATOM     12  H   UNL     1       3.591   8.512  18.644  0.00  0.00    +0.000 HD
ENDBRANCH   6  11
BRANCH   1  13
ATOM     13  C   UNL     1       1.720   7.898  20.995  0.00  0.00    +0.000 C 
BRANCH  13  14
ATOM     14  N   UNL     1       0.863   8.898  20.363  0.00  0.00    +0.000 N 
ATOM     15  H   UNL     1       0.412   8.554  19.519  0.00  0.00    +0.000 HD
BRANCH  14  19
ATOM     16  C   UNL     1      -1.495  11.655  22.509  0.00  0.00    +0.000 A 
ATOM     17  C   UNL     1      -1.228  11.829  21.150  0.00  0.00    +0.000 A 
ATOM     18  C   UNL     1      -0.476  10.874  20.458  0.00  0.00    +0.000 A 
ATOM     19  C   UNL     1       0.053   9.748  21.105  0.00  0.00    +0.000 A 
ATOM     20  C   UNL     1      -0.249   9.572  22.458  0.00  0.00    +0.000 A 
ATOM     21  C   UNL     1      -1.017  10.514  23.158  0.00  0.00    +0.000 A 
BRANCH  16  23
ATOM     22  N   UNL     1      -2.854  13.441  23.812  0.00  0.00    +0.000 NA
ATOM     23  C   UNL     1      -2.248  12.642  23.231  0.00  0.00    +0.000 C 
ENDBRANCH  16  23
ENDBRANCH  14  19
ENDBRANCH  13  14
ENDBRANCH   1  13
TORSDOF 5
ENDMDL
MODEL 9
REMARK VINA RESULT:      -6.7      1.993      2.625
REMARK  Name = 
REMARK  5 active torsions:
REMARK  status: ('A' for Active; 'I' for Inactive)
REMARK    1  A    between atoms: C_2  and  C_3
REMARK    2  A    between atoms: C_6  and  N_7
REMARK    3  A    between atoms: N_7  and  C_8
REMARK    4  A    between atoms: C_8  and  C_9
REMARK    5  A    between atoms: C_14  and  O_15
REMARK                            x       y       z     vdW  Elec       q    Type
REMARK                         _______ _______ _______ _____ _____    ______ ____
ROOT
ATOM      1  C   UNL     1       2.959   6.888  18.087  0.00  0.00    +0.000 A 
ATOM      2  C   UNL     1       4.048   7.121  17.226  0.00  0.00    +0.000 A 
ATOM      3  C   UNL     1       4.819   6.068  16.731  0.00  0.00    +0.000 A 
ATOM      4  C   UNL     1       4.500   4.747  17.056  0.00  0.00    +0.000 A 
ATOM      5  C   UNL     1       3.435   4.502  17.932  0.00  0.00    +0.000 A 
ATOM      6  C   UNL     1       2.679   5.565  18.440  0.00  0.00    +0.000 A 
ATOM      7  C   UNL     1       5.301   3.603  16.501  0.00  0.00    +0.000 C 
ATOM      8  C   UNL     1       6.123   4.061  15.306  0.00  0.00    +0.000 C 
ATOM      9  C   UNL     1       6.805   5.371  15.662  0.00  0.00    +0.000 C 
ATOM     10  O   UNL     1       5.856   6.415  15.904  0.00  0.00    +0.000 OA
ENDROOT
BRANCH   6  11
ATOM     11  O   UNL     1       1.649   5.305  19.300  0.00  0.00    +0.000 OA
ATOM     12  H   UNL     1       2.020   5.067  20.167  0.00  0.00    +0.000 HD
ENDBRANCH   6  11
BRANCH   1  13
ATOM     13  C   UNL     1       2.184   8.069  18.632  0.00  0.00    +0.000 C 
BRANCH  13  14
ATOM     14  N   UNL     1       2.070   7.949  20.083  0.00  0.00    +0.000 N 
ATOM     15  H   UNL     1       2.969   7.824  20.540  0.00  0.00    +0.000 HD
BRANCH  14  19
ATOM     16  C   UNL     1      -0.551  10.498  22.182  0.00  0.00    +0.000 A 
ATOM     17  C   UNL     1      -0.467  10.528  20.789  0.00  0.00    +0.000 A 
ATOM     18  C   UNL     1       0.383   9.640  20.121  0.00  0.00    +0.000 A 
ATOM     19  C   UNL     1       1.189   8.731  20.820  0.00  0.00    +0.000 A 
ATOM     20  C   UNL     1       1.071   8.691  22.212  0.00  0.00    +0.000 A 
ATOM     21  C   UNL     1       0.209   9.564  22.891  0.00  0.00    +0.000 A 
BRANCH  16  23
ATOM     22  N   UNL     1      -2.097  12.163  23.436  0.00  0.00    +0.000 NA
ATOM     23  C   UNL     1      -1.405  11.420  22.876  0.00  0.00    +0.000 C 
ENDBRANCH  16  23
ENDBRANCH  14  19
ENDBRANCH  13  14
ENDBRANCH   1  13
TORSDOF 5
ENDMDL
