MODEL 1
REMARK VINA RESULT:      -8.2      0.000      0.000
REMARK  Name = 
REMARK  12 active torsions:
REMARK  status: ('A' for Active; 'I' for Inactive)
REMARK    1  A    between atoms: C_2  and  C_3
REMARK    2  A    between atoms: C_2  and  O_13
REMARK    3  A    between atoms: C_4  and  C_5
REMARK    4  A    between atoms: C_8  and  O_9
REMARK    5  A    between atoms: C_10  and  O_11
REMARK    6  A    between atoms: O_13  and  C_14
REMARK    7  A    between atoms: C_22  and  O_23
REMARK    8  A    between atoms: O_23  and  C_24
REMARK    9  A    between atoms: C_24  and  C_26
REMARK   10  A    between atoms: C_27  and  C_28
REMARK   11  A    between atoms: C_31  and  O_32
REMARK   12  A    between atoms: C_33  and  O_34
REMARK                            x       y       z     vdW  Elec       q    Type
REMARK                         _______ _______ _______ _____ _____    ______ ____
ROOT
ATOM      1  C   UNL     1      -0.272   9.958  18.454  0.00  0.00    +0.000 A 
ATOM      2  C   UNL     1      -1.152  10.270  17.407  0.00  0.00    +0.000 A 
ATOM      3  C   UNL     1      -2.124  11.242  17.576  0.00  0.00    +0.000 A 
ATOM      4  C   UNL     1      -2.240  11.884  18.800  0.00  0.00    +0.000 A 
ATOM      5  C   UNL     1      -1.431  11.531  19.887  0.00  0.00    +0.000 A 
ATOM      6  C   UNL     1      -1.643  12.207  21.100  0.00  0.00    +0.000 A 
ATOM      7  C   UNL     1      -0.891  11.917  22.229  0.00  0.00    +0.000 A 
ATOM      8  C   UNL     1       0.073  10.927  22.161  0.00  0.00    +0.000 A 
ATOM      9  C   UNL     1       0.270  10.203  20.969  0.00  0.00    +0.000 A 
ATOM     10  C   UNL     1      -0.435  10.522  19.764  0.00  0.00    +0.000 A 
ENDROOT
BRANCH   1  11
ATOM     11  O   UNL     1       0.797   9.053  18.209  0.00  0.00    +0.000 OA
BRANCH  11  13
ATOM     12  O   UNL     1       2.331  10.643  17.388  0.00  0.00    +0.000 OA
ATOM     13  C   UNL     1       2.045   9.538  17.837  0.00  0.00    +0.000 C 
BRANCH  13  14
ATOM     14  C   UNL     1       3.110   8.527  18.005  0.00  0.00    +0.000 C 
ATOM     15  C   UNL     1       3.421   7.614  17.075  0.00  0.00    +0.000 C 
BRANCH  15  16
ATOM     16  C   UNL     1       4.570   6.708  17.173  0.00  0.00    +0.000 A 
ATOM     17  C   UNL     1       5.053   5.987  16.065  0.00  0.00    +0.000 A 
ATOM     18  C   UNL     1       6.068   5.037  16.214  0.00  0.00    +0.000 A 
ATOM     19  C   UNL     1       6.602   4.813  17.475  0.00  0.00    +0.000 A 
ATOM     20  C   UNL     1       6.137   5.531  18.572  0.00  0.00    +0.000 A 
ATOM     21  C   UNL     1       5.123   6.467  18.434  0.00  0.00    +0.000 A 
BRANCH  19  22
ATOM     22  O   UNL     1       7.575   3.878  17.689  0.00  0.00    +0.000 OA
ATOM     23  H   UNL     1       8.246   4.271  18.274  0.00  0.00    +0.000 HD
ENDBRANCH  19  22
BRANCH  20  24
ATOM     24  O   UNL     1       6.662   5.306  19.812  0.00  0.00    +0.000 OA
ATOM     25  H   UNL     1       6.984   6.182  20.105  0.00  0.00    +0.000 HD
ENDBRANCH  20  24
ENDBRANCH  15  16
ENDBRANCH  13  14
ENDBRANCH  11  13
ENDBRANCH   1  11
BRANCH   9  26
ATOM     26  O   UNL     1       1.232   9.168  20.983  0.00  0.00    +0.000 OA
BRANCH  26  27
ATOM     27  C   UNL     1       0.727   7.878  21.152  0.00  0.00    +0.000 C 
ATOM     28  O   UNL     1      -0.199   7.535  21.867  0.00  0.00    +0.000 OA
BRANCH  27  29
ATOM     29  C   UNL     1       1.578   6.884  20.476  0.00  0.00    +0.000 C 
ATOM     30  C   UNL     1       1.509   5.563  20.695  0.00  0.00    +0.000 C 
BRANCH  30  31
ATOM     31  C   UNL     1       2.206   4.568  19.862  0.00  0.00    +0.000 A 
ATOM     32  C   UNL     1       1.902   4.482  18.496  0.00  0.00    +0.000 A 
ATOM     33  C   UNL     1       2.602   3.603  17.656  0.00  0.00    +0.000 A 
ATOM     34  C   UNL     1       3.626   2.832  18.192  0.00  0.00    +0.000 A 
ATOM     35  C   UNL     1       3.954   2.937  19.537  0.00  0.00    +0.000 A 
ATOM     36  C   UNL     1       3.258   3.801  20.374  0.00  0.00    +0.000 A 
BRANCH  34  37
ATOM     37  O   UNL     1       4.354   1.964  17.425  0.00  0.00    +0.000 OA
ATOM     38  H   UNL     1       4.029   1.064  17.600  0.00  0.00    +0.000 HD
ENDBRANCH  34  37
BRANCH  35  39
ATOM     39  O   UNL     1       4.983   2.200  20.051  0.00  0.00    +0.000 OA
ATOM     40  H   UNL     1       4.686   1.274  19.964  0.00  0.00    +0.000 HD
ENDBRANCH  35  39
ENDBRANCH  30  31
ENDBRANCH  27  29
ENDBRANCH  26  27
ENDBRANCH   9  26
TORSDOF 12
ENDMDL
MODEL 2
REMARK VINA RESULT:      -8.1      0.824      1.620
REMARK  Name = 
REMARK  12 active torsions:
REMARK  status: ('A' for Active; 'I' for Inactive)
REMARK    1  A    between atoms: C_2  and  C_3
REMARK    2  A    between atoms: C_2  and  O_13
REMARK    3  A    between atoms: C_4  and  C_5
REMARK    4  A    between atoms: C_8  and  O_9
REMARK    5  A    between atoms: C_10  and  O_11
REMARK    6  A    between atoms: O_13  and  C_14
REMARK    7  A    between atoms: C_22  and  O_23
REMARK    8  A    between atoms: O_23  and  C_24
REMARK    9  A    between atoms: C_24  and  C_26
REMARK   10  A    between atoms: C_27  and  C_28
REMARK   11  A    between atoms: C_31  and  O_32
REMARK   12  A    between atoms: C_33  and  O_34
REMARK                            x       y       z     vdW  Elec       q    Type
REMARK                         _______ _______ _______ _____ _____    ______ ____
ROOT
ATOM      1  C   UNL     1      -0.460   9.795  18.199  0.00  0.00    +0.000 A 
ATOM      2  C   UNL     1      -1.341   9.989  17.124  0.00  0.00    +0.000 A 
ATOM      3  C   UNL     1      -2.231  11.050  17.131  0.00  0.00    +0.000 A 
ATOM      4  C   UNL     1      -2.268  11.901  18.226  0.00  0.00    +0.000 A 
ATOM      5  C   UNL     1      -1.461  11.679  19.349  0.00  0.00    +0.000 A 
ATOM      6  C   UNL     1      -1.590  12.569  20.427  0.00  0.00    +0.000 A 
ATOM      7  C   UNL     1      -0.834  12.422  21.580  0.00  0.00    +0.000 A 
ATOM      8  C   UNL     1       0.050  11.361  21.675  0.00  0.00    +0.000 A 
ATOM      9  C   UNL     1       0.162  10.429  20.625  0.00  0.00    +0.000 A 
ATOM     10  C   UNL     1      -0.546  10.589  19.392  0.00  0.00    +0.000 A 
ENDROOT
BRANCH   1  11
ATOM     11  O   UNL     1       0.530   8.780  18.103  0.00  0.00    +0.000 OA
BRANCH  11  13
ATOM     12  O   UNL     1       2.281  10.195  17.404  0.00  0.00    +0.000 OA
ATOM     13  C   UNL     1       1.843   9.118  17.794  0.00  0.00    +0.000 C 
BRANCH  13  14
ATOM     14  C   UNL     1       2.766   7.974  17.950  0.00  0.00    +0.000 C 
ATOM     15  C   UNL     1       3.717   7.660  17.060  0.00  0.00    +0.000 C 
BRANCH  15  16
ATOM     16  C   UNL     1       4.729   6.622  17.280  0.00  0.00    +0.000 A 
ATOM     17  C   UNL     1       4.945   6.041  18.544  0.00  0.00    +0.000 A 
ATOM     18  C   UNL     1       6.000   5.147  18.752  0.00  0.00    +0.000 A 
ATOM     19  C   UNL     1       6.836   4.832  17.690  0.00  0.00    +0.000 A 
ATOM     20  C   UNL     1       6.620   5.394  16.435  0.00  0.00    +0.000 A 
ATOM     21  C   UNL     1       5.583   6.290  16.225  0.00  0.00    +0.000 A 
BRANCH  19  22
ATOM     22  O   UNL     1       7.900   3.987  17.837  0.00  0.00    +0.000 OA
ATOM     23  H   UNL     1       8.608   4.471  18.297  0.00  0.00    +0.000 HD
ENDBRANCH  19  22
BRANCH  20  24
ATOM     24  O   UNL     1       7.446   5.085  15.394  0.00  0.00    +0.000 OA
ATOM     25  H   UNL     1       7.270   5.777  14.727  0.00  0.00    +0.000 HD
ENDBRANCH  20  24
ENDBRANCH  15  16
ENDBRANCH  13  14
ENDBRANCH  11  13
ENDBRANCH   1  11
BRANCH   9  26
ATOM     26  O   UNL     1       1.043   9.339  20.809  0.00  0.00    +0.000 OA
BRANCH  26  27
ATOM     27  C   UNL     1       0.475   8.192  21.363  0.00  0.00    +0.000 C 
ATOM     28  O   UNL     1      -0.476   8.131  22.123  0.00  0.00    +0.000 OA
BRANCH  27  29
ATOM     29  C   UNL     1       1.287   7.001  21.060  0.00  0.00    +0.000 C 
ATOM     30  C   UNL     1       0.834   5.935  20.381  0.00  0.00    +0.000 C 
BRANCH  30  31
ATOM     31  C   UNL     1       1.710   4.854  19.898  0.00  0.00    +0.000 A 
ATOM     32  C   UNL     1       2.544   4.188  20.806  0.00  0.00    +0.000 A 
ATOM     33  C   UNL     1       3.332   3.101  20.397  0.00  0.00    +0.000 A 
ATOM     34  C   UNL     1       3.257   2.674  19.077  0.00  0.00    +0.000 A 
ATOM     35  C   UNL     1       2.408   3.310  18.181  0.00  0.00    +0.000 A 
ATOM     36  C   UNL     1       1.632   4.391  18.580  0.00  0.00    +0.000 A 
BRANCH  34  37
ATOM     37  O   UNL     1       3.990   1.614  18.619  0.00  0.00    +0.000 OA
ATOM     38  H   UNL     1       4.930   1.869  18.640  0.00  0.00    +0.000 HD
ENDBRANCH  34  37
BRANCH  35  39
ATOM     39  O   UNL     1       2.314   2.864  16.893  0.00  0.00    +0.000 OA
ATOM     40  H   UNL     1       1.847   3.581  16.421  0.00  0.00    +0.000 HD
ENDBRANCH  35  39
ENDBRANCH  30  31
ENDBRANCH  27  29
ENDBRANCH  26  27
ENDBRANCH   9  26
TORSDOF 12
ENDMDL
MODEL 3
REMARK VINA RESULT:      -8.0      0.611      1.159
REMARK  Name = 
REMARK  12 active torsions:
REMARK  status: ('A' for Active; 'I' for Inactive)
REMARK    1  A    between atoms: C_2  and  C_3
REMARK    2  A    between atoms: C_2  and  O_13
REMARK    3  A    between atoms: C_4  and  C_5
REMARK    4  A    between atoms: C_8  and  O_9
REMARK    5  A    between atoms: C_10  and  O_11
REMARK    6  A    between atoms: O_13  and  C_14
REMARK    7  A    between atoms: C_22  and  O_23
REMARK    8  A    between atoms: O_23  and  C_24
REMARK    9  A    between atoms: C_24  and  C_26
REMARK   10  A    between atoms: C_27  and  C_28
REMARK   11  A    between atoms: C_31  and  O_32
REMARK   12  A    between atoms: C_33  and  O_34
REMARK                            x       y       z     vdW  Elec       q    Type
REMARK                         _______ _______ _______ _____ _____    ______ ____
ROOT
ATOM      1  C   UNL     1      -0.162  10.028  18.548  0.00  0.00    +0.000 A 
ATOM      2  C   UNL     1      -1.000  10.473  17.514  0.00  0.00    +0.000 A 
ATOM      3  C   UNL     1      -1.908  11.493  17.740  0.00  0.00    +0.000 A 
ATOM      4  C   UNL     1      -2.006  12.051  19.006  0.00  0.00    +0.000 A 
ATOM      5  C   UNL     1      -1.244  11.566  20.077  0.00  0.00    +0.000 A 
ATOM      6  C   UNL     1      -1.434  12.164  21.332  0.00  0.00    +0.000 A 
ATOM      7  C   UNL     1      -0.725  11.743  22.448  0.00  0.00    +0.000 A 
ATOM      8  C   UNL     1       0.173  10.698  22.321  0.00  0.00    +0.000 A 
ATOM      9  C   UNL     1       0.345  10.052  21.081  0.00  0.00    +0.000 A 
ATOM     10  C   UNL     1      -0.313  10.505  19.894  0.00  0.00    +0.000 A 
ENDROOT
BRANCH   1  11
ATOM     11  O   UNL     1       0.850   9.074  18.252  0.00  0.00    +0.000 OA
BRANCH  11  13
ATOM     12  O   UNL     1       2.404  10.575  17.312  0.00  0.00    +0.000 OA
ATOM     13  C   UNL     1       2.099   9.500  17.817  0.00  0.00    +0.000 C 
BRANCH  13  14
ATOM     14  C   UNL     1       3.135   8.460  17.987  0.00  0.00    +0.000 C 
ATOM     15  C   UNL     1       3.390   7.509  17.080  0.00  0.00    +0.000 C 
BRANCH  15  16
ATOM     16  C   UNL     1       4.512   6.569  17.176  0.00  0.00    +0.000 A 
ATOM     17  C   UNL     1       4.876   5.957  18.390  0.00  0.00    +0.000 A 
ATOM     18  C   UNL     1       6.025   5.166  18.478  0.00  0.00    +0.000 A 
ATOM     19  C   UNL     1       6.808   4.985  17.347  0.00  0.00    +0.000 A 
ATOM     20  C   UNL     1       6.447   5.577  16.140  0.00  0.00    +0.000 A 
ATOM     21  C   UNL     1       5.315   6.373  16.048  0.00  0.00    +0.000 A 
BRANCH  19  22
ATOM     22  O   UNL     1       7.957   4.246  17.376  0.00  0.00    +0.000 OA
ATOM     23  H   UNL     1       7.719   3.312  17.242  0.00  0.00    +0.000 HD
ENDBRANCH  19  22
BRANCH  20  24
ATOM     24  O   UNL     1       7.221   5.400  15.030  0.00  0.00    +0.000 OA
ATOM     25  H   UNL     1       7.171   4.441  14.846  0.00  0.00    +0.000 HD
ENDBRANCH  20  24
ENDBRANCH  15  16
ENDBRANCH  13  14
ENDBRANCH  11  13
ENDBRANCH   1  11
BRANCH   9  26
ATOM     26  O   UNL     1       1.237   8.956  21.033  0.00  0.00    +0.000 OA
BRANCH  26  27
ATOM     27  C   UNL     1       0.649   7.696  21.141  0.00  0.00    +0.000 C 
ATOM     28  O   UNL     1      -0.328   7.390  21.802  0.00  0.00    +0.000 OA
BRANCH  27  29
ATOM     29  C   UNL     1       1.471   6.670  20.476  0.00  0.00    +0.000 C 
ATOM     30  C   UNL     1       1.492   5.377  20.832  0.00  0.00    +0.000 C 
BRANCH  30  31
ATOM     31  C   UNL     1       2.145   4.329  20.029  0.00  0.00    +0.000 A 
ATOM     32  C   UNL     1       1.808   4.191  18.676  0.00  0.00    +0.000 A 
ATOM     33  C   UNL     1       2.465   3.257  17.860  0.00  0.00    +0.000 A 
ATOM     34  C   UNL     1       3.481   2.483  18.408  0.00  0.00    +0.000 A 
ATOM     35  C   UNL     1       3.841   2.638  19.740  0.00  0.00    +0.000 A 
ATOM     36  C   UNL     1       3.187   3.556  20.552  0.00  0.00    +0.000 A 
BRANCH  34  37
ATOM     37  O   UNL     1       4.168   1.564  17.664  0.00  0.00    +0.000 OA
ATOM     38  H   UNL     1       4.037   0.690  18.073  0.00  0.00    +0.000 HD
ENDBRANCH  34  37
BRANCH  35  39
ATOM     39  O   UNL     1       4.862   1.897  20.263  0.00  0.00    +0.000 OA
ATOM     40  H   UNL     1       4.541   1.630  21.146  0.00  0.00    +0.000 HD
ENDBRANCH  35  39
ENDBRANCH  30  31
ENDBRANCH  27  29
ENDBRANCH  26  27
ENDBRANCH   9  26
TORSDOF 12
ENDMDL
MODEL 4
REMARK VINA RESULT:      -7.9      1.255      4.077
REMARK  Name = 
REMARK  12 active torsions:
REMARK  status: ('A' for Active; 'I' for Inactive)
REMARK    1  A    between atoms: C_2  and  C_3
REMARK    2  A    between atoms: C_2  and  O_13
REMARK    3  A    between atoms: C_4  and  C_5
REMARK    4  A    between atoms: C_8  and  O_9
REMARK    5  A    between atoms: C_10  and  O_11
REMARK    6  A    between atoms: O_13  and  C_14
REMARK    7  A    between atoms: C_22  and  O_23
REMARK    8  A    between atoms: O_23  and  C_24
REMARK    9  A    between atoms: C_24  and  C_26
REMARK   10  A    between atoms: C_27  and  C_28
REMARK   11  A    between atoms: C_31  and  O_32
REMARK   12  A    between atoms: C_33  and  O_34
REMARK                            x       y       z     vdW  Elec       q    Type
REMARK                         _______ _______ _______ _____ _____    ______ ____
ROOT
ATOM      1  C   UNL     1      -0.404   9.622  21.430  0.00  0.00    +0.000 A 
ATOM      2  C   UNL     1      -0.627   9.980  22.768  0.00  0.00    +0.000 A 
ATOM      3  C   UNL     1      -1.325  11.136  23.075  0.00  0.00    +0.000 A 
ATOM      4  C   UNL     1      -1.775  11.954  22.049  0.00  0.00    +0.000 A 
ATOM      5  C   UNL     1      -1.490  11.664  20.709  0.00  0.00    +0.000 A 
ATOM      6  C   UNL     1      -1.952  12.566  19.738  0.00  0.00    +0.000 A 
ATOM      7  C   UNL     1      -1.711  12.360  18.387  0.00  0.00    +0.000 A 
ATOM      8  C   UNL     1      -0.982  11.252  17.995  0.00  0.00    +0.000 A 
ATOM      9  C   UNL     1      -0.468  10.358  18.955  0.00  0.00    +0.000 A 
ATOM     10  C   UNL     1      -0.758  10.498  20.350  0.00  0.00    +0.000 A 
ENDROOT
BRANCH   1  11
ATOM     11  O   UNL     1       0.198   8.365  21.146  0.00  0.00    +0.000 OA
BRANCH  11  13
ATOM     12  O   UNL     1       2.275   8.846  22.152  0.00  0.00    +0.000 OA
ATOM     13  C   UNL     1       1.530   8.143  21.477  0.00  0.00    +0.000 C 
BRANCH  13  14
ATOM     14  C   UNL     1       2.055   6.899  20.877  0.00  0.00    +0.000 C 
ATOM     15  C   UNL     1       1.415   5.724  20.923  0.00  0.00    +0.000 C 
BRANCH  15  16
ATOM     16  C   UNL     1       1.857   4.524  20.204  0.00  0.00    +0.000 A 
ATOM     17  C   UNL     1       0.966   3.718  19.472  0.00  0.00    +0.000 A 
ATOM     18  C   UNL     1       1.390   2.514  18.902  0.00  0.00    +0.000 A 
ATOM     19  C   UNL     1       2.711   2.120  19.064  0.00  0.00    +0.000 A 
ATOM     20  C   UNL     1       3.600   2.919  19.777  0.00  0.00    +0.000 A 
ATOM     21  C   UNL     1       3.183   4.109  20.354  0.00  0.00    +0.000 A 
BRANCH  19  22
ATOM     22  O   UNL     1       3.178   0.941  18.555  0.00  0.00    +0.000 OA
ATOM     23  H   UNL     1       3.735   0.520  19.233  0.00  0.00    +0.000 HD
ENDBRANCH  19  22
BRANCH  20  24
ATOM     24  O   UNL     1       4.898   2.527  19.936  0.00  0.00    +0.000 OA
ATOM     25  H   UNL     1       5.194   2.286  19.037  0.00  0.00    +0.000 HD
ENDBRANCH  20  24
ENDBRANCH  15  16
ENDBRANCH  13  14
ENDBRANCH  11  13
ENDBRANCH   1  11
BRANCH   9  26
ATOM     26  O   UNL     1       0.315   9.277  18.490  0.00  0.00    +0.000 OA
BRANCH  26  27
ATOM     27  C   UNL     1       1.637   9.585  18.170  0.00  0.00    +0.000 C 
ATOM     28  O   UNL     1       2.170  10.681  18.199  0.00  0.00    +0.000 OA
BRANCH  27  29
ATOM     29  C   UNL     1       2.326   8.418  17.592  0.00  0.00    +0.000 C 
ATOM     30  C   UNL     1       3.648   8.205  17.683  0.00  0.00    +0.000 C 
BRANCH  30  31
ATOM     31  C   UNL     1       4.290   6.937  17.296  0.00  0.00    +0.000 A 
ATOM     32  C   UNL     1       3.534   5.757  17.294  0.00  0.00    +0.000 A 
ATOM     33  C   UNL     1       4.090   4.545  16.856  0.00  0.00    +0.000 A 
ATOM     34  C   UNL     1       5.400   4.534  16.395  0.00  0.00    +0.000 A 
ATOM     35  C   UNL     1       6.144   5.706  16.363  0.00  0.00    +0.000 A 
ATOM     36  C   UNL     1       5.599   6.906  16.804  0.00  0.00    +0.000 A 
BRANCH  34  37
ATOM     37  O   UNL     1       5.996   3.389  15.943  0.00  0.00    +0.000 OA
ATOM     38  H   UNL     1       6.035   2.759  16.685  0.00  0.00    +0.000 HD
ENDBRANCH  34  37
BRANCH  35  39
ATOM     39  O   UNL     1       7.421   5.694  15.878  0.00  0.00    +0.000 OA
ATOM     40  H   UNL     1       7.699   6.630  15.905  0.00  0.00    +0.000 HD
ENDBRANCH  35  39
ENDBRANCH  30  31
ENDBRANCH  27  29
ENDBRANCH  26  27
ENDBRANCH   9  26
TORSDOF 12
ENDMDL
MODEL 5
REMARK VINA RESULT:      -7.8      1.217      4.099
REMARK  Name = 
REMARK  12 active torsions:
REMARK  status: ('A' for Active; 'I' for Inactive)
REMARK    1  A    between atoms: C_2  and  C_3
REMARK    2  A    between atoms: C_2  and  O_13
REMARK    3  A    between atoms: C_4  and  C_5
REMARK    4  A    between atoms: C_8  and  O_9
REMARK    5  A    between atoms: C_10  and  O_11
REMARK    6  A    between atoms: O_13  and  C_14
REMARK    7  A    between atoms: C_22  and  O_23
REMARK    8  A    between atoms: O_23  and  C_24
REMARK    9  A    between atoms: C_24  and  C_26
REMARK   10  A    between atoms: C_27  and  C_28
REMARK   11  A    between atoms: C_31  and  O_32
REMARK   12  A    between atoms: C_33  and  O_34
REMARK                            x       y       z     vdW  Elec       q    Type
REMARK                         _______ _______ _______ _____ _____    ______ ____
ROOT
ATOM      1  C   UNL     1      -0.049  10.994  20.742  0.00  0.00    +0.000 A 
ATOM      2  C   UNL     1      -0.271  12.056  21.632  0.00  0.00    +0.000 A 
ATOM      3  C   UNL     1      -1.279  12.974  21.387  0.00  0.00    +0.000 A 
ATOM      4  C   UNL     1      -2.047  12.854  20.239  0.00  0.00    +0.000 A 
ATOM      5  C   UNL     1      -1.790  11.855  19.292  0.00  0.00    +0.000 A 
ATOM      6  C   UNL     1      -2.592  11.830  18.140  0.00  0.00    +0.000 A 
ATOM      7  C   UNL     1      -2.404  10.879  17.148  0.00  0.00    +0.000 A 
ATOM      8  C   UNL     1      -1.389   9.949  17.291  0.00  0.00    +0.000 A 
ATOM      9  C   UNL     1      -0.541   9.984  18.415  0.00  0.00    +0.000 A 
ATOM     10  C   UNL     1      -0.750  10.903  19.492  0.00  0.00    +0.000 A 
ENDROOT
BRANCH   1  11
ATOM     11  O   UNL     1       0.902   9.995  21.086  0.00  0.00    +0.000 OA
BRANCH  11  13
ATOM     12  O   UNL     1       0.188   9.006  23.103  0.00  0.00    +0.000 OA
ATOM     13  C   UNL     1       0.537   8.951  21.928  0.00  0.00    +0.000 C 
BRANCH  13  14
ATOM     14  C   UNL     1       0.637   7.635  21.263  0.00  0.00    +0.000 C 
ATOM     15  C   UNL     1       1.798   7.055  20.935  0.00  0.00    +0.000 C 
BRANCH  15  16
ATOM     16  C   UNL     1       1.909   5.688  20.413  0.00  0.00    +0.000 A 
ATOM     17  C   UNL     1       1.361   5.313  19.172  0.00  0.00    +0.000 A 
ATOM     18  C   UNL     1       1.371   3.978  18.757  0.00  0.00    +0.000 A 
ATOM     19  C   UNL     1       1.933   3.019  19.587  0.00  0.00    +0.000 A 
ATOM     20  C   UNL     1       2.487   3.385  20.810  0.00  0.00    +0.000 A 
ATOM     21  C   UNL     1       2.471   4.705  21.233  0.00  0.00    +0.000 A 
BRANCH  19  22
ATOM     22  O   UNL     1       1.948   1.694  19.250  0.00  0.00    +0.000 OA
ATOM     23  H   UNL     1       2.497   1.592  18.453  0.00  0.00    +0.000 HD
ENDBRANCH  19  22
BRANCH  20  24
ATOM     24  O   UNL     1       3.038   2.438  21.625  0.00  0.00    +0.000 OA
ATOM     25  H   UNL     1       2.750   1.586  21.241  0.00  0.00    +0.000 HD
ENDBRANCH  20  24
ENDBRANCH  15  16
ENDBRANCH  13  14
ENDBRANCH  11  13
ENDBRANCH   1  11
BRANCH   9  26
ATOM     26  O   UNL     1       0.510   9.041  18.472  0.00  0.00    +0.000 OA
BRANCH  26  27
ATOM     27  C   UNL     1       1.730   9.466  17.945  0.00  0.00    +0.000 C 
ATOM     28  O   UNL     1       2.120  10.614  17.816  0.00  0.00    +0.000 OA
BRANCH  27  29
ATOM     29  C   UNL     1       2.477   8.336  17.365  0.00  0.00    +0.000 C 
ATOM     30  C   UNL     1       3.696   7.952  17.776  0.00  0.00    +0.000 C 
BRANCH  30  31
ATOM     31  C   UNL     1       4.335   6.698  17.343  0.00  0.00    +0.000 A 
ATOM     32  C   UNL     1       4.785   6.576  16.021  0.00  0.00    +0.000 A 
ATOM     33  C   UNL     1       5.469   5.427  15.595  0.00  0.00    +0.000 A 
ATOM     34  C   UNL     1       5.720   4.415  16.513  0.00  0.00    +0.000 A 
ATOM     35  C   UNL     1       5.306   4.544  17.832  0.00  0.00    +0.000 A 
ATOM     36  C   UNL     1       4.622   5.676  18.255  0.00  0.00    +0.000 A 
BRANCH  34  37
ATOM     37  O   UNL     1       6.392   3.276  16.164  0.00  0.00    +0.000 OA
ATOM     38  H   UNL     1       6.161   2.583  16.808  0.00  0.00    +0.000 HD
ENDBRANCH  34  37
BRANCH  35  39
ATOM     39  O   UNL     1       5.585   3.559  18.736  0.00  0.00    +0.000 OA
ATOM     40  H   UNL     1       5.099   3.824  19.542  0.00  0.00    +0.000 HD
ENDBRANCH  35  39
ENDBRANCH  30  31
ENDBRANCH  27  29
ENDBRANCH  26  27
ENDBRANCH   9  26
TORSDOF 12
ENDMDL
MODEL 6
REMARK VINA RESULT:      -7.7      3.953      9.215
REMARK  Name = 
REMARK  12 active torsions:
REMARK  status: ('A' for Active; 'I' for Inactive)
REMARK    1  A    between atoms: C_2  and  C_3
REMARK    2  A    between atoms: C_2  and  O_13
REMARK    3  A    between atoms: C_4  and  C_5
REMARK    4  A    between atoms: C_8  and  O_9
REMARK    5  A    between atoms: C_10  and  O_11
REMARK    6  A    between atoms: O_13  and  C_14
REMARK    7  A    between atoms: C_22  and  O_23
REMARK    8  A    between atoms: O_23  and  C_24
REMARK    9  A    between atoms: C_24  and  C_26
REMARK   10  A    between atoms: C_27  and  C_28
REMARK   11  A    between atoms: C_31  and  O_32
REMARK   12  A    between atoms: C_33  and  O_34
REMARK                            x       y       z     vdW  Elec       q    Type
REMARK                         _______ _______ _______ _____ _____    ______ ____
ROOT
ATOM      1  C   UNL     1       3.300   5.948  17.951  0.00  0.00    +0.000 A 
ATOM      2  C   UNL     1       2.051   5.327  18.103  0.00  0.00    +0.000 A 
ATOM      3  C   UNL     1       1.864   4.020  17.685  0.00  0.00    +0.000 A 
ATOM      4  C   UNL     1       2.913   3.339  17.086  0.00  0.00    +0.000 A 
ATOM      5  C   UNL     1       4.144   3.964  16.844  0.00  0.00    +0.000 A 
ATOM      6  C   UNL     1       5.138   3.211  16.199  0.00  0.00    +0.000 A 
ATOM      7  C   UNL     1       6.383   3.752  15.916  0.00  0.00    +0.000 A 
ATOM      8  C   UNL     1       6.641   5.068  16.259  0.00  0.00    +0.000 A 
ATOM      9  C   UNL     1       5.643   5.856  16.864  0.00  0.00    +0.000 A 
ATOM     10  C   UNL     1       4.372   5.313  17.238  0.00  0.00    +0.000 A 
ENDROOT
BRANCH   1  11
ATOM     11  O   UNL     1       3.499   7.241  18.508  0.00  0.00    +0.000 OA
BRANCH  11  13
ATOM     12  O   UNL     1       2.553   8.840  17.056  0.00  0.00    +0.000 OA
ATOM     13  C   UNL     1       2.658   8.288  18.147  0.00  0.00    +0.000 C 
BRANCH  13  14
ATOM     14  C   UNL     1       1.841   8.765  19.282  0.00  0.00    +0.000 C 
ATOM     15  C   UNL     1       1.171   9.925  19.280  0.00  0.00    +0.000 C 
BRANCH  15  16
ATOM     16  C   UNL     1       0.241  10.332  20.339  0.00  0.00    +0.000 A 
ATOM     17  C   UNL     1      -0.727  11.334  20.142  0.00  0.00    +0.000 A 
ATOM     18  C   UNL     1      -1.514  11.790  21.203  0.00  0.00    +0.000 A 
ATOM     19  C   UNL     1      -1.332  11.238  22.463  0.00  0.00    +0.000 A 
ATOM     20  C   UNL     1      -0.384  10.238  22.662  0.00  0.00    +0.000 A 
ATOM     21  C   UNL     1       0.408   9.789  21.617  0.00  0.00    +0.000 A 
BRANCH  19  22
ATOM     22  O   UNL     1      -2.051  11.661  23.546  0.00  0.00    +0.000 OA
ATOM     23  H   UNL     1      -1.625  12.463  23.896  0.00  0.00    +0.000 HD
ENDBRANCH  19  22
BRANCH  20  24
ATOM     24  O   UNL     1      -0.206   9.699  23.904  0.00  0.00    +0.000 OA
ATOM     25  H   UNL     1       0.448  10.285  24.334  0.00  0.00    +0.000 HD
ENDBRANCH  20  24
ENDBRANCH  15  16
ENDBRANCH  13  14
ENDBRANCH  11  13
ENDBRANCH   1  11
BRANCH   9  26
ATOM     26  O   UNL     1       5.953   7.207  17.139  0.00  0.00    +0.000 OA
BRANCH  26  27
ATOM     27  C   UNL     1       7.210   7.434  17.700  0.00  0.00    +0.000 C 
ATOM     28  O   UNL     1       7.907   6.635  18.301  0.00  0.00    +0.000 OA
BRANCH  27  29
ATOM     29  C   UNL     1       7.563   8.863  17.645  0.00  0.00    +0.000 C 
ATOM     30  C   UNL     1       8.564   9.418  18.345  0.00  0.00    +0.000 C 
BRANCH  30  31
ATOM     31  C   UNL     1       9.044  10.792  18.118  0.00  0.00    +0.000 A 
ATOM     32  C   UNL     1      10.420  11.053  18.152  0.00  0.00    +0.000 A 
ATOM     33  C   UNL     1      10.918  12.333  17.862  0.00  0.00    +0.000 A 
ATOM     34  C   UNL     1      10.026  13.338  17.512  0.00  0.00    +0.000 A 
ATOM     35  C   UNL     1       8.664  13.077  17.445  0.00  0.00    +0.000 A 
ATOM     36  C   UNL     1       8.167  11.814  17.739  0.00  0.00    +0.000 A 
BRANCH  34  37
ATOM     37  O   UNL     1      10.449  14.603  17.207  0.00  0.00    +0.000 OA
ATOM     38  H   UNL     1      11.349  14.712  17.560  0.00  0.00    +0.000 HD
ENDBRANCH  34  37
BRANCH  35  39
ATOM     39  O   UNL     1       7.796  14.062  17.069  0.00  0.00    +0.000 OA
ATOM     40  H   UNL     1       7.308  14.281  17.886  0.00  0.00    +0.000 HD
ENDBRANCH  35  39
ENDBRANCH  30  31
ENDBRANCH  27  29
ENDBRANCH  26  27
ENDBRANCH   9  26
TORSDOF 12
ENDMDL
MODEL 7
REMARK VINA RESULT:      -7.6      1.140      3.927
REMARK  Name = 
REMARK  12 active torsions:
REMARK  status: ('A' for Active; 'I' for Inactive)
REMARK    1  A    between atoms: C_2  and  C_3
REMARK    2  A    between atoms: C_2  and  O_13
REMARK    3  A    between atoms: C_4  and  C_5
REMARK    4  A    between atoms: C_8  and  O_9
REMARK    5  A    between atoms: C_10  and  O_11
REMARK    6  A    between atoms: O_13  and  C_14
REMARK    7  A    between atoms: C_22  and  O_23
REMARK    8  A    between atoms: O_23  and  C_24
REMARK    9  A    between atoms: C_24  and  C_26
REMARK   10  A    between atoms: C_27  and  C_28
REMARK   11  A    between atoms: C_31  and  O_32
REMARK   12  A    between atoms: C_33  and  O_34
REMARK                            x       y       z     vdW  Elec       q    Type
REMARK                         _______ _______ _______ _____ _____    ______ ____
ROOT
ATOM      1  C   UNL     1       0.413  10.272  21.552  0.00  0.00    +0.000 A 
ATOM      2  C   UNL     1      -0.254  10.475  22.770  0.00  0.00    +0.000 A 
ATOM      3  C   UNL     1      -1.099  11.560  22.932  0.00  0.00    +0.000 A 
ATOM      4  C   UNL     1      -1.256  12.464  21.891  0.00  0.00    +0.000 A 
ATOM      5  C   UNL     1      -0.535  12.332  20.697  0.00  0.00    +0.000 A 
ATOM      6  C   UNL     1      -0.728  13.313  19.711  0.00  0.00    +0.000 A 
ATOM      7  C   UNL     1      -0.051  13.263  18.501  0.00  0.00    +0.000 A 
ATOM      8  C   UNL     1       0.847  12.236  18.273  0.00  0.00    +0.000 A 
ATOM      9  C   UNL     1       1.091  11.267  19.266  0.00  0.00    +0.000 A 
ATOM     10  C   UNL     1       0.359  11.243  20.496  0.00  0.00    +0.000 A 
ENDROOT
BRANCH   1  11
ATOM     11  O   UNL     1       1.167   9.081  21.371  0.00  0.00    +0.000 OA
BRANCH  11  13
ATOM     12  O   UNL     1      -0.587   7.524  21.607  0.00  0.00    +0.000 OA
ATOM     13  C   UNL     1       0.514   7.867  21.190  0.00  0.00    +0.000 C 
BRANCH  13  14
ATOM     14  C   UNL     1       1.325   6.907  20.411  0.00  0.00    +0.000 C 
ATOM     15  C   UNL     1       1.535   5.638  20.784  0.00  0.00    +0.000 C 
BRANCH  15  16
ATOM     16  C   UNL     1       2.211   4.643  19.945  0.00  0.00    +0.000 A 
ATOM     17  C   UNL     1       1.798   4.367  18.628  0.00  0.00    +0.000 A 
ATOM     18  C   UNL     1       2.378   3.327  17.897  0.00  0.00    +0.000 A 
ATOM     19  C   UNL     1       3.375   2.563  18.486  0.00  0.00    +0.000 A 
ATOM     20  C   UNL     1       3.796   2.838  19.784  0.00  0.00    +0.000 A 
ATOM     21  C   UNL     1       3.218   3.861  20.519  0.00  0.00    +0.000 A 
BRANCH  19  22
ATOM     22  O   UNL     1       3.961   1.515  17.833  0.00  0.00    +0.000 OA
ATOM     23  H   UNL     1       4.726   1.857  17.340  0.00  0.00    +0.000 HD
ENDBRANCH  19  22
BRANCH  20  24
ATOM     24  O   UNL     1       4.776   2.083  20.362  0.00  0.00    +0.000 OA
ATOM     25  H   UNL     1       5.489   2.053  19.695  0.00  0.00    +0.000 HD
ENDBRANCH  20  24
ENDBRANCH  15  16
ENDBRANCH  13  14
ENDBRANCH  11  13
ENDBRANCH   1  11
BRANCH   9  26
ATOM     26  O   UNL     1       2.060  10.277  18.990  0.00  0.00    +0.000 OA
BRANCH  26  27
ATOM     27  C   UNL     1       1.751   9.406  17.944  0.00  0.00    +0.000 C 
ATOM     28  O   UNL     1       0.645   9.145  17.502  0.00  0.00    +0.000 OA
BRANCH  27  29
ATOM     29  C   UNL     1       2.942   8.657  17.510  0.00  0.00    +0.000 C 
ATOM     30  C   UNL     1       3.288   7.452  17.989  0.00  0.00    +0.000 C 
BRANCH  30  31
ATOM     31  C   UNL     1       4.350   6.622  17.396  0.00  0.00    +0.000 A 
ATOM     32  C   UNL     1       4.629   6.737  16.027  0.00  0.00    +0.000 A 
ATOM     33  C   UNL     1       5.685   6.021  15.444  0.00  0.00    +0.000 A 
ATOM     34  C   UNL     1       6.475   5.211  16.250  0.00  0.00    +0.000 A 
ATOM     35  C   UNL     1       6.224   5.118  17.612  0.00  0.00    +0.000 A 
ATOM     36  C   UNL     1       5.174   5.819  18.192  0.00  0.00    +0.000 A 
BRANCH  34  37
ATOM     37  O   UNL     1       7.526   4.496  15.745  0.00  0.00    +0.000 OA
ATOM     38  H   UNL     1       7.735   3.784  16.375  0.00  0.00    +0.000 HD
ENDBRANCH  34  37
BRANCH  35  39
ATOM     39  O   UNL     1       7.024   4.345  18.404  0.00  0.00    +0.000 OA
ATOM     40  H   UNL     1       7.856   4.852  18.478  0.00  0.00    +0.000 HD
ENDBRANCH  35  39
ENDBRANCH  30  31
ENDBRANCH  27  29
ENDBRANCH  26  27
ENDBRANCH   9  26
TORSDOF 12
ENDMDL
MODEL 8
REMARK VINA RESULT:      -7.6      1.522      4.085
REMARK  Name = 
REMARK  12 active torsions:
REMARK  status: ('A' for Active; 'I' for Inactive)
REMARK    1  A    between atoms: C_2  and  C_3
REMARK    2  A    between atoms: C_2  and  O_13
REMARK    3  A    between atoms: C_4  and  C_5
REMARK    4  A    between atoms: C_8  and  O_9
REMARK    5  A    between atoms: C_10  and  O_11
REMARK    6  A    between atoms: O_13  and  C_14
REMARK    7  A    between atoms: C_22  and  O_23
REMARK    8  A    between atoms: O_23  and  C_24
REMARK    9  A    between atoms: C_24  and  C_26
REMARK   10  A    between atoms: C_27  and  C_28
REMARK   11  A    between atoms: C_31  and  O_32
REMARK   12  A    between atoms: C_33  and  O_34
REMARK                            x       y       z     vdW  Elec       q    Type
REMARK                         _______ _______ _______ _____ _____    ______ ____
ROOT
ATOM      1  C   UNL     1       0.645   9.879  21.380  0.00  0.00    +0.000 A 
ATOM      2  C   UNL     1       0.074   9.878  22.662  0.00  0.00    +0.000 A 
ATOM      3  C   UNL     1      -0.686  10.954  23.090  0.00  0.00    +0.000 A 
ATOM      4  C   UNL     1      -0.851  12.047  22.254  0.00  0.00    +0.000 A 
ATOM      5  C   UNL     1      -0.221  12.111  21.004  0.00  0.00    +0.000 A 
ATOM      6  C   UNL     1      -0.413  13.272  20.239  0.00  0.00    +0.000 A 
ATOM      7  C   UNL     1       0.178  13.422  18.993  0.00  0.00    +0.000 A 
ATOM      8  C   UNL     1       0.990  12.413  18.506  0.00  0.00    +0.000 A 
ATOM      9  C   UNL     1       1.235  11.259  19.277  0.00  0.00    +0.000 A 
ATOM     10  C   UNL     1       0.586  11.037  20.533  0.00  0.00    +0.000 A 
ENDROOT
BRANCH   1  11
ATOM     11  O   UNL     1       1.306   8.707  20.920  0.00  0.00    +0.000 OA
BRANCH  11  13
ATOM     12  O   UNL     1      -0.425   7.211  21.487  0.00  0.00    +0.000 OA
ATOM     13  C   UNL     1       0.661   7.477  20.984  0.00  0.00    +0.000 C 
BRANCH  13  14
ATOM     14  C   UNL     1       1.462   6.395  20.374  0.00  0.00    +0.000 C 
ATOM     15  C   UNL     1       1.308   5.098  20.671  0.00  0.00    +0.000 C 
BRANCH  15  16
ATOM     16  C   UNL     1       1.992   4.011  19.963  0.00  0.00    +0.000 A 
ATOM     17  C   UNL     1       1.371   3.278  18.935  0.00  0.00    +0.000 A 
ATOM     18  C   UNL     1       2.000   2.167  18.365  0.00  0.00    +0.000 A 
ATOM     19  C   UNL     1       3.255   1.793  18.825  0.00  0.00    +0.000 A 
ATOM     20  C   UNL     1       3.880   2.522  19.833  0.00  0.00    +0.000 A 
ATOM     21  C   UNL     1       3.257   3.618  20.411  0.00  0.00    +0.000 A 
BRANCH  19  22
ATOM     22  O   UNL     1       3.909   0.701  18.328  0.00  0.00    +0.000 OA
ATOM     23  H   UNL     1       3.253   0.129  17.893  0.00  0.00    +0.000 HD
ENDBRANCH  19  22
BRANCH  20  24
ATOM     24  O   UNL     1       5.113   2.150  20.285  0.00  0.00    +0.000 OA
ATOM     25  H   UNL     1       4.956   1.839  21.199  0.00  0.00    +0.000 HD
ENDBRANCH  20  24
ENDBRANCH  15  16
ENDBRANCH  13  14
ENDBRANCH  11  13
ENDBRANCH   1  11
BRANCH   9  26
ATOM     26  O   UNL     1       2.117  10.292  18.745  0.00  0.00    +0.000 OA
BRANCH  26  27
ATOM     27  C   UNL     1       1.544   9.377  17.861  0.00  0.00    +0.000 C 
ATOM     28  O   UNL     1       0.358   9.210  17.635  0.00  0.00    +0.000 OA
BRANCH  27  29
ATOM     29  C   UNL     1       2.561   8.458  17.320  0.00  0.00    +0.000 C 
ATOM     30  C   UNL     1       3.411   7.748  18.078  0.00  0.00    +0.000 C 
BRANCH  30  31
ATOM     31  C   UNL     1       4.268   6.676  17.542  0.00  0.00    +0.000 A 
ATOM     32  C   UNL     1       3.730   5.396  17.353  0.00  0.00    +0.000 A 
ATOM     33  C   UNL     1       4.493   4.373  16.771  0.00  0.00    +0.000 A 
ATOM     34  C   UNL     1       5.789   4.652  16.358  0.00  0.00    +0.000 A 
ATOM     35  C   UNL     1       6.317   5.927  16.513  0.00  0.00    +0.000 A 
ATOM     36  C   UNL     1       5.567   6.941  17.095  0.00  0.00    +0.000 A 
BRANCH  34  37
ATOM     37  O   UNL     1       6.581   3.701  15.773  0.00  0.00    +0.000 OA
ATOM     38  H   UNL     1       6.495   2.881  16.291  0.00  0.00    +0.000 HD
ENDBRANCH  34  37
BRANCH  35  39
ATOM     39  O   UNL     1       7.581   6.203  16.074  0.00  0.00    +0.000 OA
ATOM     40  H   UNL     1       7.515   6.160  15.100  0.00  0.00    +0.000 HD
ENDBRANCH  35  39
ENDBRANCH  30  31
ENDBRANCH  27  29
ENDBRANCH  26  27
ENDBRANCH   9  26
TORSDOF 12
ENDMDL
MODEL 9
REMARK VINA RESULT:      -7.5      1.444      4.361
REMARK  Name = 
REMARK  12 active torsions:
REMARK  status: ('A' for Active; 'I' for Inactive)
REMARK    1  A    between atoms: C_2  and  C_3
REMARK    2  A    between atoms: C_2  and  O_13
REMARK    3  A    between atoms: C_4  and  C_5
REMARK    4  A    between atoms: C_8  and  O_9
REMARK    5  A    between atoms: C_10  and  O_11
REMARK    6  A    between atoms: O_13  and  C_14
REMARK    7  A    between atoms: C_22  and  O_23
REMARK    8  A    between atoms: O_23  and  C_24
REMARK    9  A    between atoms: C_24  and  C_26
REMARK   10  A    between atoms: C_27  and  C_28
REMARK   11  A    between atoms: C_31  and  O_32
REMARK   12  A    between atoms: C_33  and  O_34
REMARK                            x       y       z     vdW  Elec       q    Type
REMARK                         _______ _______ _______ _____ _____    ______ ____
ROOT
ATOM      1  C   UNL     1      -0.150  10.709  20.551  0.00  0.00    +0.000 A 
ATOM      2  C   UNL     1      -0.491  11.663  21.522  0.00  0.00    +0.000 A 
ATOM      3  C   UNL     1      -1.588  12.488  21.336  0.00  0.00    +0.000 A 
ATOM      4  C   UNL     1      -2.328  12.386  20.168  0.00  0.00    +0.000 A 
ATOM      5  C   UNL     1      -1.957  11.502  19.146  0.00  0.00    +0.000 A 
ATOM      6  C   UNL     1      -2.742  11.491  17.982  0.00  0.00    +0.000 A 
ATOM      7  C   UNL     1      -2.444  10.652  16.918  0.00  0.00    +0.000 A 
ATOM      8  C   UNL     1      -1.338   9.824  17.001  0.00  0.00    +0.000 A 
ATOM      9  C   UNL     1      -0.510   9.853  18.140  0.00  0.00    +0.000 A 
ATOM     10  C   UNL     1      -0.825  10.651  19.286  0.00  0.00    +0.000 A 
ENDROOT
BRANCH   1  11
ATOM     11  O   UNL     1       0.898   9.789  20.829  0.00  0.00    +0.000 OA
BRANCH  11  13
ATOM     12  O   UNL     1       0.535   8.952  23.002  0.00  0.00    +0.000 OA
ATOM     13  C   UNL     1       0.722   8.809  21.798  0.00  0.00    +0.000 C 
BRANCH  13  14
ATOM     14  C   UNL     1       0.814   7.445  21.237  0.00  0.00    +0.000 C 
ATOM     15  C   UNL     1       1.963   6.767  21.117  0.00  0.00    +0.000 C 
BRANCH  15  16
ATOM     16  C   UNL     1       2.042   5.363  20.702  0.00  0.00    +0.000 A 
ATOM     17  C   UNL     1       3.269   4.681  20.592  0.00  0.00    +0.000 A 
ATOM     18  C   UNL     1       3.325   3.384  20.073  0.00  0.00    +0.000 A 
ATOM     19  C   UNL     1       2.150   2.769  19.667  0.00  0.00    +0.000 A 
ATOM     20  C   UNL     1       0.932   3.433  19.783  0.00  0.00    +0.000 A 
ATOM     21  C   UNL     1       0.870   4.723  20.287  0.00  0.00    +0.000 A 
BRANCH  19  22
ATOM     22  O   UNL     1       2.143   1.514  19.126  0.00  0.00    +0.000 OA
ATOM     23  H   UNL     1       2.969   1.397  18.626  0.00  0.00    +0.000 HD
ENDBRANCH  19  22
BRANCH  20  24
ATOM     24  O   UNL     1      -0.222   2.826  19.380  0.00  0.00    +0.000 OA
ATOM     25  H   UNL     1      -0.894   3.535  19.406  0.00  0.00    +0.000 HD
ENDBRANCH  20  24
ENDBRANCH  15  16
ENDBRANCH  13  14
ENDBRANCH  11  13
ENDBRANCH   1  11
BRANCH   9  26
ATOM     26  O   UNL     1       0.634   9.023  18.138  0.00  0.00    +0.000 OA
BRANCH  26  27
ATOM     27  C   UNL     1       1.844   9.666  17.875  0.00  0.00    +0.000 C 
ATOM     28  O   UNL     1       2.013  10.842  17.601  0.00  0.00    +0.000 OA
BRANCH  27  29
ATOM     29  C   UNL     1       2.949   8.696  17.783  0.00  0.00    +0.000 C 
ATOM     30  C   UNL     1       2.777   7.370  17.673  0.00  0.00    +0.000 C 
BRANCH  30  31
ATOM     31  C   UNL     1       3.874   6.436  17.364  0.00  0.00    +0.000 A 
ATOM     32  C   UNL     1       3.586   5.079  17.170  0.00  0.00    +0.000 A 
ATOM     33  C   UNL     1       4.593   4.175  16.797  0.00  0.00    +0.000 A 
ATOM     34  C   UNL     1       5.882   4.650  16.594  0.00  0.00    +0.000 A 
ATOM     35  C   UNL     1       6.167   6.000  16.753  0.00  0.00    +0.000 A 
ATOM     36  C   UNL     1       5.174   6.896  17.130  0.00  0.00    +0.000 A 
BRANCH  34  37
ATOM     37  O   UNL     1       6.905   3.823  16.218  0.00  0.00    +0.000 OA
ATOM     38  H   UNL     1       6.749   3.554  15.295  0.00  0.00    +0.000 HD
ENDBRANCH  34  37
BRANCH  35  39
ATOM     39  O   UNL     1       7.429   6.466  16.520  0.00  0.00    +0.000 OA
ATOM     40  H   UNL     1       7.689   6.052  15.674  0.00  0.00    +0.000 HD
ENDBRANCH  35  39
ENDBRANCH  30  31
ENDBRANCH  27  29
ENDBRANCH  26  27
ENDBRANCH   9  26
TORSDOF 12
ENDMDL
