MODEL 1
REMARK VINA RESULT:      -7.5      0.000      0.000
REMARK  Name = 
REMARK  6 active torsions:
REMARK  status: ('A' for Active; 'I' for Inactive)
REMARK    1  A    between atoms: C_2  and  C_3
REMARK    2  A    between atoms: C_6  and  N_7
REMARK    3  A    between atoms: C_8  and  C_10
REMARK    4  A    between atoms: C_10  and  O_11
REMARK    5  A    between atoms: O_11  and  C_12
REMARK    6  A    between atoms: C_12  and  C_14
REMARK                            x       y       z     vdW  Elec       q    Type
REMARK                         _______ _______ _______ _____ _____    ______ ____
ROOT
ATOM      1  N   UNL     1       2.661   6.924  19.935  0.00  0.00    +0.000 N 
ATOM      2  C   UNL     1       2.319   5.591  20.154  0.00  0.00    +0.000 C 
ATOM      3  O   UNL     1       1.207   5.182  20.484  0.00  0.00    +0.000 OA
ATOM      4  H   UNL     1       3.599   7.131  19.615  0.00  0.00    +0.000 HD
ENDROOT
BRANCH   1   8
ATOM      5  C   UNL     1       0.011  10.201  20.536  0.00  0.00    +0.000 A 
ATOM      6  C   UNL     1       0.541   9.944  19.273  0.00  0.00    +0.000 A 
ATOM      7  C   UNL     1       1.419   8.871  19.081  0.00  0.00    +0.000 A 
ATOM      8  C   UNL     1       1.787   8.025  20.132  0.00  0.00    +0.000 A 
ATOM      9  C   UNL     1       1.247   8.280  21.400  0.00  0.00    +0.000 A 
ATOM     10  C   UNL     1       0.371   9.365  21.600  0.00  0.00    +0.000 A 
BRANCH   5  12
ATOM     11  N   UNL     1      -1.652  12.167  20.883  0.00  0.00    +0.000 NA
ATOM     12  C   UNL     1      -0.910  11.289  20.739  0.00  0.00    +0.000 C 
ENDBRANCH   5  12
ENDBRANCH   1   8
BRANCH   2  13
ATOM     13  C   UNL     1       3.448   4.582  19.961  0.00  0.00    +0.000 C 
BRANCH  13  14
ATOM     14  O   UNL     1       4.052   4.789  18.680  0.00  0.00    +0.000 OA
BRANCH  14  15
ATOM     15  C   UNL     1       5.398   4.907  18.690  0.00  0.00    +0.000 C 
ATOM     16  O   UNL     1       6.097   4.909  19.693  0.00  0.00    +0.000 OA
BRANCH  15  17
ATOM     17  C   UNL     1       5.949   4.932  17.322  0.00  0.00    +0.000 A 
ATOM     18  C   UNL     1       5.516   3.950  16.416  0.00  0.00    +0.000 A 
ATOM     19  C   UNL     1       6.040   3.911  15.125  0.00  0.00    +0.000 A 
ATOM     20  C   UNL     1       6.989   4.855  14.773  0.00  0.00    +0.000 A 
ATOM     21  N   UNL     1       7.433   5.811  15.618  0.00  0.00    +0.000 NA
ATOM     22  C   UNL     1       6.910   5.829  16.870  0.00  0.00    +0.000 A 
ATOM     23 CL   UNL     1       7.666   7.029  17.847  0.00  0.00    +0.000 Cl
ENDBRANCH  15  17
ENDBRANCH  14  15
ENDBRANCH  13  14
ENDBRANCH   2  13
TORSDOF 6
ENDMDL
MODEL 2
REMARK VINA RESULT:      -7.5      1.012      1.099
REMARK  Name = 
REMARK  6 active torsions:
REMARK  status: ('A' for Active; 'I' for Inactive)
REMARK    1  A    between atoms: C_2  and  C_3
REMARK    2  A    between atoms: C_6  and  N_7
REMARK    3  A    between atoms: C_8  and  C_10
REMARK    4  A    between atoms: C_10  and  O_11
REMARK    5  A    between atoms: O_11  and  C_12
REMARK    6  A    between atoms: C_12  and  C_14
REMARK                            x       y       z     vdW  Elec       q    Type
REMARK                         _______ _______ _______ _____ _____    ______ ____
ROOT
ATOM      1  N   UNL     1       2.504   6.947  20.118  0.00  0.00    +0.000 N 
ATOM      2  C   UNL     1       2.766   5.889  19.251  0.00  0.00    +0.000 C 
ATOM      3  O   UNL     1       2.440   5.838  18.065  0.00  0.00    +0.000 OA
ATOM      4  H   UNL     1       2.870   6.895  21.061  0.00  0.00    +0.000 HD
ENDROOT
BRANCH   1   8
ATOM      5  C   UNL     1       0.211  10.390  19.111  0.00  0.00    +0.000 A 
ATOM      6  C   UNL     1       1.039   9.792  18.164  0.00  0.00    +0.000 A 
ATOM      7  C   UNL     1       1.800   8.665  18.501  0.00  0.00    +0.000 A 
ATOM      8  C   UNL     1       1.751   8.102  19.781  0.00  0.00    +0.000 A 
ATOM      9  C   UNL     1       0.909   8.700  20.729  0.00  0.00    +0.000 A 
ATOM     10  C   UNL     1       0.151   9.839  20.397  0.00  0.00    +0.000 A 
BRANCH   5  12
ATOM     11  N   UNL     1      -1.250  12.449  18.501  0.00  0.00    +0.000 NA
ATOM     12  C   UNL     1      -0.592  11.535  18.767  0.00  0.00    +0.000 C 
ENDBRANCH   5  12
ENDBRANCH   1   8
BRANCH   2  13
ATOM     13  C   UNL     1       3.522   4.712  19.858  0.00  0.00    +0.000 C 
BRANCH  13  14
ATOM     14  O   UNL     1       4.359   4.122  18.859  0.00  0.00    +0.000 OA
BRANCH  14  15
ATOM     15  C   UNL     1       5.603   4.643  18.767  0.00  0.00    +0.000 C 
ATOM     16  O   UNL     1       6.326   4.908  19.716  0.00  0.00    +0.000 OA
BRANCH  15  17
ATOM     17  C   UNL     1       6.037   4.762  17.363  0.00  0.00    +0.000 A 
ATOM     18  C   UNL     1       5.562   3.816  16.439  0.00  0.00    +0.000 A 
ATOM     19  C   UNL     1       5.979   3.867  15.110  0.00  0.00    +0.000 A 
ATOM     20  C   UNL     1       6.862   4.865  14.737  0.00  0.00    +0.000 A 
ATOM     21  N   UNL     1       7.343   5.789  15.596  0.00  0.00    +0.000 NA
ATOM     22  C   UNL     1       6.925   5.719  16.886  0.00  0.00    +0.000 A 
ATOM     23 CL   UNL     1       7.720   6.893  17.865  0.00  0.00    +0.000 Cl
ENDBRANCH  15  17
ENDBRANCH  14  15
ENDBRANCH  13  14
ENDBRANCH   2  13
TORSDOF 6
ENDMDL
MODEL 3
REMARK VINA RESULT:      -7.4      1.334      1.739
REMARK  Name = 
REMARK  6 active torsions:
REMARK  status: ('A' for Active; 'I' for Inactive)
REMARK    1  A    between atoms: C_2  and  C_3
REMARK    2  A    between atoms: C_6  and  N_7
REMARK    3  A    between atoms: C_8  and  C_10
REMARK    4  A    between atoms: C_10  and  O_11
REMARK    5  A    between atoms: O_11  and  C_12
REMARK    6  A    between atoms: C_12  and  C_14
REMARK                            x       y       z     vdW  Elec       q    Type
REMARK                         _______ _______ _______ _____ _____    ______ ____
ROOT
ATOM      1  N   UNL     1       2.824   6.082  19.912  0.00  0.00    +0.000 N 
ATOM      2  C   UNL     1       2.421   4.869  19.356  0.00  0.00    +0.000 C 
ATOM      3  O   UNL     1       1.531   4.727  18.519  0.00  0.00    +0.000 OA
ATOM      4  H   UNL     1       3.607   6.077  20.556  0.00  0.00    +0.000 HD
ENDROOT
BRANCH   1   8
ATOM      5  C   UNL     1       1.030   9.859  19.114  0.00  0.00    +0.000 A 
ATOM      6  C   UNL     1       0.869   9.250  20.356  0.00  0.00    +0.000 A 
ATOM      7  C   UNL     1       1.453   8.002  20.613  0.00  0.00    +0.000 A 
ATOM      8  C   UNL     1       2.214   7.335  19.647  0.00  0.00    +0.000 A 
ATOM      9  C   UNL     1       2.382   7.954  18.401  0.00  0.00    +0.000 A 
ATOM     10  C   UNL     1       1.788   9.203  18.135  0.00  0.00    +0.000 A 
BRANCH   5  12
ATOM     11  N   UNL     1       0.005  12.197  18.632  0.00  0.00    +0.000 NA
ATOM     12  C   UNL     1       0.452  11.151  18.848  0.00  0.00    +0.000 C 
ENDBRANCH   5  12
ENDBRANCH   1   8
BRANCH   2  13
ATOM     13  C   UNL     1       3.169   3.636  19.854  0.00  0.00    +0.000 C 
BRANCH  13  14
ATOM     14  O   UNL     1       4.222   3.321  18.939  0.00  0.00    +0.000 OA
BRANCH  14  15
ATOM     15  C   UNL     1       5.236   4.213  18.896  0.00  0.00    +0.000 C 
ATOM     16  O   UNL     1       5.732   4.762  19.870  0.00  0.00    +0.000 OA
BRANCH  15  17
ATOM     17  C   UNL     1       5.755   4.378  17.526  0.00  0.00    +0.000 A 
ATOM     18  C   UNL     1       4.871   4.175  16.453  0.00  0.00    +0.000 A 
ATOM     19  C   UNL     1       5.329   4.282  15.141  0.00  0.00    +0.000 A 
ATOM     20  C   UNL     1       6.662   4.586  14.934  0.00  0.00    +0.000 A 
ATOM     21  N   UNL     1       7.543   4.784  15.938  0.00  0.00    +0.000 NA
ATOM     22  C   UNL     1       7.076   4.674  17.209  0.00  0.00    +0.000 A 
ATOM     23 CL   UNL     1       8.347   4.840  18.359  0.00  0.00    +0.000 Cl
ENDBRANCH  15  17
ENDBRANCH  14  15
ENDBRANCH  13  14
ENDBRANCH   2  13
TORSDOF 6
ENDMDL
MODEL 4
REMARK VINA RESULT:      -7.3      1.053      1.200
REMARK  Name = 
REMARK  6 active torsions:
REMARK  status: ('A' for Active; 'I' for Inactive)
REMARK    1  A    between atoms: C_2  and  C_3
REMARK    2  A    between atoms: C_6  and  N_7
REMARK    3  A    between atoms: C_8  and  C_10
REMARK    4  A    between atoms: C_10  and  O_11
REMARK    5  A    between atoms: O_11  and  C_12
REMARK    6  A    between atoms: C_12  and  C_14
REMARK                            x       y       z     vdW  Elec       q    Type
REMARK                         _______ _______ _______ _____ _____    ______ ____
ROOT
ATOM      1  N   UNL     1       3.009   6.143  18.946  0.00  0.00    +0.000 N 
ATOM      2  C   UNL     1       2.720   5.077  19.796  0.00  0.00    +0.000 C 
ATOM      3  O   UNL     1       1.831   5.061  20.646  0.00  0.00    +0.000 OA
ATOM      4  H   UNL     1       3.735   6.016  18.250  0.00  0.00    +0.000 HD
ENDROOT
BRANCH   1   8
ATOM      5  C   UNL     1       1.032   9.911  19.061  0.00  0.00    +0.000 A 
ATOM      6  C   UNL     1       1.630   9.463  17.885  0.00  0.00    +0.000 A 
ATOM      7  C   UNL     1       2.288   8.227  17.853  0.00  0.00    +0.000 A 
ATOM      8  C   UNL     1       2.362   7.405  18.982  0.00  0.00    +0.000 A 
ATOM      9  C   UNL     1       1.752   7.853  20.161  0.00  0.00    +0.000 A 
ATOM     10  C   UNL     1       1.099   9.100  20.202  0.00  0.00    +0.000 A 
BRANCH   5  12
ATOM     11  N   UNL     1      -0.238  12.176  19.114  0.00  0.00    +0.000 NA
ATOM     12  C   UNL     1       0.334  11.170  19.098  0.00  0.00    +0.000 C 
ENDBRANCH   5  12
ENDBRANCH   1   8
BRANCH   2  13
ATOM     13  C   UNL     1       3.605   3.845  19.632  0.00  0.00    +0.000 C 
BRANCH  13  14
ATOM     14  O   UNL     1       4.242   3.888  18.352  0.00  0.00    +0.000 OA
BRANCH  14  15
ATOM     15  C   UNL     1       5.531   4.293  18.362  0.00  0.00    +0.000 C 
ATOM     16  O   UNL     1       6.242   4.353  19.355  0.00  0.00    +0.000 OA
BRANCH  15  17
ATOM     17  C   UNL     1       6.024   4.563  16.999  0.00  0.00    +0.000 A 
ATOM     18  C   UNL     1       5.609   3.710  15.963  0.00  0.00    +0.000 A 
ATOM     19  C   UNL     1       6.082   3.904  14.666  0.00  0.00    +0.000 A 
ATOM     20  C   UNL     1       6.962   4.947  14.438  0.00  0.00    +0.000 A 
ATOM     21  N   UNL     1       7.387   5.785  15.408  0.00  0.00    +0.000 NA
ATOM     22  C   UNL     1       6.915   5.577  16.664  0.00  0.00    +0.000 A 
ATOM     23 CL   UNL     1       7.643   6.655  17.793  0.00  0.00    +0.000 Cl
ENDBRANCH  15  17
ENDBRANCH  14  15
ENDBRANCH  13  14
ENDBRANCH   2  13
TORSDOF 6
ENDMDL
MODEL 5
REMARK VINA RESULT:      -7.3      2.640      4.461
REMARK  Name = 
REMARK  6 active torsions:
REMARK  status: ('A' for Active; 'I' for Inactive)
REMARK    1  A    between atoms: C_2  and  C_3
REMARK    2  A    between atoms: C_6  and  N_7
REMARK    3  A    between atoms: C_8  and  C_10
REMARK    4  A    between atoms: C_10  and  O_11
REMARK    5  A    between atoms: O_11  and  C_12
REMARK    6  A    between atoms: C_12  and  C_14
REMARK                            x       y       z     vdW  Elec       q    Type
REMARK                         _______ _______ _______ _____ _____    ______ ____
ROOT
ATOM      1  N   UNL     1       2.739   5.900  18.052  0.00  0.00    +0.000 N 
ATOM      2  C   UNL     1       4.006   5.336  18.196  0.00  0.00    +0.000 C 
ATOM      3  O   UNL     1       4.858   5.690  19.010  0.00  0.00    +0.000 OA
ATOM      4  H   UNL     1       2.105   5.486  17.379  0.00  0.00    +0.000 HD
ENDROOT
BRANCH   1   8
ATOM      5  C   UNL     1       1.285   9.248  20.242  0.00  0.00    +0.000 A 
ATOM      6  C   UNL     1       1.583   9.367  18.887  0.00  0.00    +0.000 A 
ATOM      7  C   UNL     1       2.070   8.265  18.171  0.00  0.00    +0.000 A 
ATOM      8  C   UNL     1       2.266   7.022  18.780  0.00  0.00    +0.000 A 
ATOM      9  C   UNL     1       1.958   6.902  20.142  0.00  0.00    +0.000 A 
ATOM     10  C   UNL     1       1.478   8.009  20.868  0.00  0.00    +0.000 A 
BRANCH   5  12
ATOM     11  N   UNL     1       0.358  11.279  21.570  0.00  0.00    +0.000 NA
ATOM     12  C   UNL     1       0.763  10.368  20.981  0.00  0.00    +0.000 C 
ENDBRANCH   5  12
ENDBRANCH   1   8
BRANCH   2  13
ATOM     13  C   UNL     1       4.327   4.188  17.244  0.00  0.00    +0.000 C 
BRANCH  13  14
ATOM     14  O   UNL     1       3.211   3.295  17.188  0.00  0.00    +0.000 OA
BRANCH  14  15
ATOM     15  C   UNL     1       3.293   2.217  17.999  0.00  0.00    +0.000 C 
ATOM     16  O   UNL     1       3.868   1.173  17.725  0.00  0.00    +0.000 OA
BRANCH  15  17
ATOM     17  C   UNL     1       2.688   2.483  19.317  0.00  0.00    +0.000 A 
ATOM     18  C   UNL     1       1.376   2.983  19.354  0.00  0.00    +0.000 A 
ATOM     19  C   UNL     1       0.779   3.286  20.577  0.00  0.00    +0.000 A 
ATOM     20  C   UNL     1       1.512   3.084  21.733  0.00  0.00    +0.000 A 
ATOM     21  N   UNL     1       2.776   2.609  21.737  0.00  0.00    +0.000 NA
ATOM     22  C   UNL     1       3.338   2.322  20.535  0.00  0.00    +0.000 A 
ATOM     23 CL   UNL     1       4.982   1.841  20.712  0.00  0.00    +0.000 Cl
ENDBRANCH  15  17
ENDBRANCH  14  15
ENDBRANCH  13  14
ENDBRANCH   2  13
TORSDOF 6
ENDMDL
MODEL 6
REMARK VINA RESULT:      -7.2      0.998      1.035
REMARK  Name = 
REMARK  6 active torsions:
REMARK  status: ('A' for Active; 'I' for Inactive)
REMARK    1  A    between atoms: C_2  and  C_3
REMARK    2  A    between atoms: C_6  and  N_7
REMARK    3  A    between atoms: C_8  and  C_10
REMARK    4  A    between atoms: C_10  and  O_11
REMARK    5  A    between atoms: O_11  and  C_12
REMARK    6  A    between atoms: C_12  and  C_14
REMARK                            x       y       z     vdW  Elec       q    Type
REMARK                         _______ _______ _______ _____ _____    ______ ____
ROOT
ATOM      1  N   UNL     1       2.122   7.354  20.529  0.00  0.00    +0.000 N 
ATOM      2  C   UNL     1       2.558   6.606  19.437  0.00  0.00    +0.000 C 
ATOM      3  O   UNL     1       2.333   6.866  18.256  0.00  0.00    +0.000 OA
ATOM      4  H   UNL     1       2.417   7.066  21.455  0.00  0.00    +0.000 HD
ENDROOT
BRANCH   1   8
ATOM      5  C   UNL     1      -0.423  10.757  20.275  0.00  0.00    +0.000 A 
ATOM      6  C   UNL     1       0.408  10.416  19.210  0.00  0.00    +0.000 A 
ATOM      7  C   UNL     1       1.251   9.301  19.300  0.00  0.00    +0.000 A 
ATOM      8  C   UNL     1       1.285   8.497  20.444  0.00  0.00    +0.000 A 
ATOM      9  C   UNL     1       0.441   8.836  21.510  0.00  0.00    +0.000 A 
ATOM     10  C   UNL     1      -0.400   9.962  21.428  0.00  0.00    +0.000 A 
BRANCH   5  12
ATOM     11  N   UNL     1      -2.008  12.808  20.100  0.00  0.00    +0.000 NA
ATOM     12  C   UNL     1      -1.309  11.889  20.183  0.00  0.00    +0.000 C 
ENDBRANCH   5  12
ENDBRANCH   1   8
BRANCH   2  13
ATOM     13  C   UNL     1       3.380   5.366  19.775  0.00  0.00    +0.000 C 
BRANCH  13  14
ATOM     14  O   UNL     1       4.724   5.553  19.321  0.00  0.00    +0.000 OA
BRANCH  14  15
ATOM     15  C   UNL     1       5.332   4.443  18.847  0.00  0.00    +0.000 C 
ATOM     16  O   UNL     1       5.363   3.360  19.415  0.00  0.00    +0.000 OA
BRANCH  15  17
ATOM     17  C   UNL     1       5.877   4.660  17.494  0.00  0.00    +0.000 A 
ATOM     18  C   UNL     1       5.348   3.902  16.437  0.00  0.00    +0.000 A 
ATOM     19  C   UNL     1       5.860   4.045  15.149  0.00  0.00    +0.000 A 
ATOM     20  C   UNL     1       6.893   4.944  14.950  0.00  0.00    +0.000 A 
ATOM     21  N   UNL     1       7.431   5.687  15.941  0.00  0.00    +0.000 NA
ATOM     22  C   UNL     1       6.917   5.530  17.188  0.00  0.00    +0.000 A 
ATOM     23 CL   UNL     1       7.790   6.460  18.346  0.00  0.00    +0.000 Cl
ENDBRANCH  15  17
ENDBRANCH  14  15
ENDBRANCH  13  14
ENDBRANCH   2  13
TORSDOF 6
ENDMDL
MODEL 7
REMARK VINA RESULT:      -7.2      2.662      4.608
REMARK  Name = 
REMARK  6 active torsions:
REMARK  status: ('A' for Active; 'I' for Inactive)
REMARK    1  A    between atoms: C_2  and  C_3
REMARK    2  A    between atoms: C_6  and  N_7
REMARK    3  A    between atoms: C_8  and  C_10
REMARK    4  A    between atoms: C_10  and  O_11
REMARK    5  A    between atoms: O_11  and  C_12
REMARK    6  A    between atoms: C_12  and  C_14
REMARK                            x       y       z     vdW  Elec       q    Type
REMARK                         _______ _______ _______ _____ _____    ______ ____
ROOT
ATOM      1  N   UNL     1       2.891   5.749  18.030  0.00  0.00    +0.000 N 
ATOM      2  C   UNL     1       4.189   5.283  18.225  0.00  0.00    +0.000 C 
ATOM      3  O   UNL     1       5.023   5.782  18.979  0.00  0.00    +0.000 OA
ATOM      4  H   UNL     1       2.279   5.221  17.420  0.00  0.00    +0.000 HD
ENDROOT
BRANCH   1   8
ATOM      5  C   UNL     1       1.320   9.287  19.803  0.00  0.00    +0.000 A 
ATOM      6  C   UNL     1       1.514   8.140  20.569  0.00  0.00    +0.000 A 
ATOM      7  C   UNL     1       2.023   6.975  19.981  0.00  0.00    +0.000 A 
ATOM      8  C   UNL     1       2.355   6.922  18.623  0.00  0.00    +0.000 A 
ATOM      9  C   UNL     1       2.167   8.080  17.856  0.00  0.00    +0.000 A 
ATOM     10  C   UNL     1       1.646   9.250  18.441  0.00  0.00    +0.000 A 
BRANCH   5  12
ATOM     11  N   UNL     1       0.428  11.478  20.876  0.00  0.00    +0.000 NA
ATOM     12  C   UNL     1       0.818  10.496  20.403  0.00  0.00    +0.000 C 
ENDBRANCH   5  12
ENDBRANCH   1   8
BRANCH   2  13
ATOM     13  C   UNL     1       4.574   4.049  17.415  0.00  0.00    +0.000 C 
BRANCH  13  14
ATOM     14  O   UNL     1       3.425   3.210  17.259  0.00  0.00    +0.000 OA
BRANCH  14  15
ATOM     15  C   UNL     1       3.392   2.123  18.061  0.00  0.00    +0.000 C 
ATOM     16  O   UNL     1       3.902   1.042  17.802  0.00  0.00    +0.000 OA
BRANCH  15  17
ATOM     17  C   UNL     1       2.747   2.422  19.353  0.00  0.00    +0.000 A 
ATOM     18  C   UNL     1       1.439   2.932  19.338  0.00  0.00    +0.000 A 
ATOM     19  C   UNL     1       0.805   3.267  20.533  0.00  0.00    +0.000 A 
ATOM     20  C   UNL     1       1.499   3.085  21.716  0.00  0.00    +0.000 A 
ATOM     21  N   UNL     1       2.759   2.601  21.771  0.00  0.00    +0.000 NA
ATOM     22  C   UNL     1       3.357   2.283  20.594  0.00  0.00    +0.000 A 
ATOM     23 CL   UNL     1       4.991   1.795  20.834  0.00  0.00    +0.000 Cl
ENDBRANCH  15  17
ENDBRANCH  14  15
ENDBRANCH  13  14
ENDBRANCH   2  13
TORSDOF 6
ENDMDL
MODEL 8
REMARK VINA RESULT:      -7.2      1.822      2.322
REMARK  Name = 
REMARK  6 active torsions:
REMARK  status: ('A' for Active; 'I' for Inactive)
REMARK    1  A    between atoms: C_2  and  C_3
REMARK    2  A    between atoms: C_6  and  N_7
REMARK    3  A    between atoms: C_8  and  C_10
REMARK    4  A    between atoms: C_10  and  O_11
REMARK    5  A    between atoms: O_11  and  C_12
REMARK    6  A    between atoms: C_12  and  C_14
REMARK                            x       y       z     vdW  Elec       q    Type
REMARK                         _______ _______ _______ _____ _____    ______ ____
ROOT
ATOM      1  N   UNL     1       1.632   9.279  17.760  0.00  0.00    +0.000 N 
ATOM      2  C   UNL     1       2.313   8.239  18.388  0.00  0.00    +0.000 C 
ATOM      3  O   UNL     1       2.061   7.791  19.506  0.00  0.00    +0.000 OA
ATOM      4  H   UNL     1       1.901   9.525  16.814  0.00  0.00    +0.000 HD
ENDROOT
BRANCH   1   8
ATOM      5  C   UNL     1      -1.518  11.557  19.494  0.00  0.00    +0.000 A 
ATOM      6  C   UNL     1      -0.208  11.709  19.942  0.00  0.00    +0.000 A 
ATOM      7  C   UNL     1       0.825  10.952  19.376  0.00  0.00    +0.000 A 
ATOM      8  C   UNL     1       0.584  10.032  18.350  0.00  0.00    +0.000 A 
ATOM      9  C   UNL     1      -0.734   9.887  17.894  0.00  0.00    +0.000 A 
ATOM     10  C   UNL     1      -1.777  10.639  18.468  0.00  0.00    +0.000 A 
BRANCH   5  12
ATOM     11  N   UNL     1      -3.428  12.998  20.508  0.00  0.00    +0.000 NA
ATOM     12  C   UNL     1      -2.584  12.348  20.055  0.00  0.00    +0.000 C 
ENDBRANCH   5  12
ENDBRANCH   1   8
BRANCH   2  13
ATOM     13  C   UNL     1       3.464   7.630  17.593  0.00  0.00    +0.000 C 
BRANCH  13  14
ATOM     14  O   UNL     1       3.458   6.210  17.767  0.00  0.00    +0.000 OA
BRANCH  14  15
ATOM     15  C   UNL     1       4.643   5.668  18.126  0.00  0.00    +0.000 C 
ATOM     16  O   UNL     1       4.963   5.373  19.269  0.00  0.00    +0.000 OA
BRANCH  15  17
ATOM     17  C   UNL     1       5.482   5.372  16.950  0.00  0.00    +0.000 A 
ATOM     18  C   UNL     1       5.070   4.346  16.084  0.00  0.00    +0.000 A 
ATOM     19  C   UNL     1       5.853   4.006  14.982  0.00  0.00    +0.000 A 
ATOM     20  C   UNL     1       7.032   4.699  14.776  0.00  0.00    +0.000 A 
ATOM     21  N   UNL     1       7.463   5.688  15.588  0.00  0.00    +0.000 NA
ATOM     22  C   UNL     1       6.685   6.002  16.656  0.00  0.00    +0.000 A 
ATOM     23 CL   UNL     1       7.435   7.196  17.646  0.00  0.00    +0.000 Cl
ENDBRANCH  15  17
ENDBRANCH  14  15
ENDBRANCH  13  14
ENDBRANCH   2  13
TORSDOF 6
ENDMDL
MODEL 9
REMARK VINA RESULT:      -7.2      0.925      1.379
REMARK  Name = 
REMARK  6 active torsions:
REMARK  status: ('A' for Active; 'I' for Inactive)
REMARK    1  A    between atoms: C_2  and  C_3
REMARK    2  A    between atoms: C_6  and  N_7
REMARK    3  A    between atoms: C_8  and  C_10
REMARK    4  A    between atoms: C_10  and  O_11
REMARK    5  A    between atoms: O_11  and  C_12
REMARK    6  A    between atoms: C_12  and  C_14
REMARK                            x       y       z     vdW  Elec       q    Type
REMARK                         _______ _______ _______ _____ _____    ______ ____
ROOT
ATOM      1  N   UNL     1       2.134   7.257  20.543  0.00  0.00    +0.000 N 
ATOM      2  C   UNL     1       2.680   6.659  19.408  0.00  0.00    +0.000 C 
ATOM      3  O   UNL     1       2.551   7.063  18.254  0.00  0.00    +0.000 OA
ATOM      4  H   UNL     1       2.355   6.858  21.447  0.00  0.00    +0.000 HD
ENDROOT
BRANCH   1   8
ATOM      5  C   UNL     1      -0.394  10.682  20.494  0.00  0.00    +0.000 A 
ATOM      6  C   UNL     1      -0.321   9.874  21.627  0.00  0.00    +0.000 A 
ATOM      7  C   UNL     1       0.505   8.743  21.637  0.00  0.00    +0.000 A 
ATOM      8  C   UNL     1       1.280   8.390  20.527  0.00  0.00    +0.000 A 
ATOM      9  C   UNL     1       1.212   9.209  19.392  0.00  0.00    +0.000 A 
ATOM     10  C   UNL     1       0.375  10.341  19.374  0.00  0.00    +0.000 A 
BRANCH   5  12
ATOM     11  N   UNL     1      -1.904  12.795  20.468  0.00  0.00    +0.000 NA
ATOM     12  C   UNL     1      -1.223  11.859  20.482  0.00  0.00    +0.000 C 
ENDBRANCH   5  12
ENDBRANCH   1   8
BRANCH   2  13
ATOM     13  C   UNL     1       3.498   5.396  19.659  0.00  0.00    +0.000 C 
BRANCH  13  14
ATOM     14  O   UNL     1       3.992   4.897  18.412  0.00  0.00    +0.000 OA
BRANCH  14  15
ATOM     15  C   UNL     1       5.305   4.579  18.397  0.00  0.00    +0.000 C 
ATOM     16  O   UNL     1       5.932   4.136  19.349  0.00  0.00    +0.000 OA
BRANCH  15  17
ATOM     17  C   UNL     1       5.884   4.733  17.050  0.00  0.00    +0.000 A 
ATOM     18  C   UNL     1       5.475   3.839  16.047  0.00  0.00    +0.000 A 
ATOM     19  C   UNL     1       6.027   3.922  14.770  0.00  0.00    +0.000 A 
ATOM     20  C   UNL     1       6.977   4.898  14.528  0.00  0.00    +0.000 A 
ATOM     21  N   UNL     1       7.398   5.773  15.467  0.00  0.00    +0.000 NA
ATOM     22  C   UNL     1       6.848   5.672  16.704  0.00  0.00    +0.000 A 
ATOM     23 CL   UNL     1       7.577   6.780  17.804  0.00  0.00    +0.000 Cl
ENDBRANCH  15  17
ENDBRANCH  14  15
ENDBRANCH  13  14
ENDBRANCH   2  13
TORSDOF 6
ENDMDL
