MODEL 1
REMARK VINA RESULT:      -6.2      0.000      0.000
REMARK  Name = 
REMARK  9 active torsions:
REMARK  status: ('A' for Active; 'I' for Inactive)
REMARK    1  A    between atoms: CB_1  and  CA_2
REMARK    2  A    between atoms: CA_2  and  N_3
REMARK    3  A    between atoms: CA_2  and  C_4
REMARK    4  A    between atoms: N_6  and  CA_7
REMARK    5  A    between atoms: CA_7  and  C_8
REMARK    6  A    between atoms: N_10  and  CA_11
REMARK    7  A    between atoms: CA_11  and  CB_12
REMARK    8  A    between atoms: CA_11  and  C_13
REMARK    9  A    between atoms: C_13  and  OXT_15
REMARK                            x       y       z     vdW  Elec       q    Type
REMARK                         _______ _______ _______ _____ _____    ______ ____
ROOT
ATOM      1  CA  GLY A   2       5.946   5.089  18.851  0.00  0.00    +0.000 C 
ENDROOT
BRANCH   1   4
ATOM      2  C   ALA A   1       6.853   4.845  16.576  0.00  0.00    +0.000 C 
ATOM      3  O   ALA A   1       7.900   4.365  17.018  0.00  0.00    +0.000 OA
ATOM      4  N   GLY A   2       5.841   5.257  17.414  0.00  0.00    +0.000 N 
ATOM      5  H   GLY A   2       5.159   5.922  17.071  0.00  0.00    +0.000 HD
BRANCH   2   7
ATOM      6  CB  ALA A   1       6.068   3.895  14.333  0.00  0.00    +0.000 C 
ATOM      7  CA  ALA A   1       6.619   5.114  15.068  0.00  0.00    +0.000 C 
BRANCH   7   8
ATOM      8  N   ALA A   1       7.880   5.522  14.431  0.00  0.00    +0.000 NA
ATOM      9  H1  ALA A   1       8.225   6.365  14.895  0.00  0.00    +0.000 HD
ATOM     10  H2  ALA A   1       7.669   5.835  13.481  0.00  0.00    +0.000 HD
ENDBRANCH   7   8
ENDBRANCH   2   7
ENDBRANCH   1   4
BRANCH   1  11
ATOM     11  C   GLY A   2       4.886   4.102  19.338  0.00  0.00    +0.000 C 
ATOM     12  O   GLY A   2       5.169   2.979  19.743  0.00  0.00    +0.000 OA
ATOM     13  N   ALA A   3       3.586   4.534  19.158  0.00  0.00    +0.000 N 
ATOM     14  H   ALA A   3       3.444   5.513  18.908  0.00  0.00    +0.000 HD
BRANCH  13  15
ATOM     15  CA  ALA A   3       2.440   3.755  19.636  0.00  0.00    +0.000 C 
ATOM     16  CB  ALA A   3       1.497   4.627  20.450  0.00  0.00    +0.000 C 
BRANCH  15  17
ATOM     17  C   ALA A   3       1.713   3.090  18.456  0.00  0.00    +0.000 C 
ATOM     18  O   ALA A   3       1.101   3.692  17.587  0.00  0.00    +0.000 OA
BRANCH  17  19
ATOM     19  OXT ALA A   3       1.736   1.735  18.518  0.00  0.00    +0.000 OA
ATOM     20  HXT ALA A   3       0.920   1.377  18.932  0.00  0.00    +0.000 HD
ENDBRANCH  17  19
ENDBRANCH  15  17
ENDBRANCH  13  15
ENDBRANCH   1  11
TORSDOF 7
ENDMDL
MODEL 2
REMARK VINA RESULT:      -6.1      1.690      5.850
REMARK  Name = 
REMARK  9 active torsions:
REMARK  status: ('A' for Active; 'I' for Inactive)
REMARK    1  A    between atoms: CB_1  and  CA_2
REMARK    2  A    between atoms: CA_2  and  N_3
REMARK    3  A    between atoms: CA_2  and  C_4
REMARK    4  A    between atoms: N_6  and  CA_7
REMARK    5  A    between atoms: CA_7  and  C_8
REMARK    6  A    between atoms: N_10  and  CA_11
REMARK    7  A    between atoms: CA_11  and  CB_12
REMARK    8  A    between atoms: CA_11  and  C_13
REMARK    9  A    between atoms: C_13  and  OXT_15
REMARK                            x       y       z     vdW  Elec       q    Type
REMARK                         _______ _______ _______ _____ _____    ______ ____
ROOT
ATOM      1  CA  GLY A   2       3.826   5.639  19.302  0.00  0.00    +0.000 C 
ENDROOT
BRANCH   1   4
ATOM      2  C   ALA A   1       1.857   4.196  18.991  0.00  0.00    +0.000 C 
ATOM      3  O   ALA A   1       1.706   4.608  17.839  0.00  0.00    +0.000 OA
ATOM      4  N   GLY A   2       2.864   4.672  19.799  0.00  0.00    +0.000 N 
ATOM      5  H   GLY A   2       2.777   4.575  20.803  0.00  0.00    +0.000 HD
BRANCH   2   7
ATOM      6  CB  ALA A   1       1.300   2.838  21.087  0.00  0.00    +0.000 C 
ATOM      7  CA  ALA A   1       0.886   3.192  19.662  0.00  0.00    +0.000 C 
BRANCH   7   8
ATOM      8  N   ALA A   1       0.816   1.956  18.868  0.00  0.00    +0.000 NA
ATOM      9  H1  ALA A   1       0.418   2.175  17.952  0.00  0.00    +0.000 HD
ATOM     10  H2  ALA A   1       0.121   1.342  19.297  0.00  0.00    +0.000 HD
ENDBRANCH   7   8
ENDBRANCH   2   7
ENDBRANCH   1   4
BRANCH   1  11
ATOM     11  C   GLY A   2       4.969   4.917  18.592  0.00  0.00    +0.000 C 
ATOM     12  O   GLY A   2       5.932   4.455  19.198  0.00  0.00    +0.000 OA
ATOM     13  N   ALA A   3       4.889   4.947  17.214  0.00  0.00    +0.000 N 
ATOM     14  H   ALA A   3       4.012   5.262  16.799  0.00  0.00    +0.000 HD
BRANCH  13  15
ATOM     15  CA  ALA A   3       5.855   4.240  16.368  0.00  0.00    +0.000 C 
ATOM     16  CB  ALA A   3       5.390   4.219  14.920  0.00  0.00    +0.000 C 
BRANCH  15  17
ATOM     17  C   ALA A   3       7.249   4.872  16.502  0.00  0.00    +0.000 C 
ATOM     18  O   ALA A   3       7.625   5.865  15.897  0.00  0.00    +0.000 OA
BRANCH  17  19
ATOM     19  OXT ALA A   3       8.078   4.157  17.303  0.00  0.00    +0.000 OA
ATOM     20  HXT ALA A   3       8.714   3.619  16.781  0.00  0.00    +0.000 HD
ENDBRANCH  17  19
ENDBRANCH  15  17
ENDBRANCH  13  15
ENDBRANCH   1  11
TORSDOF 7
ENDMDL
MODEL 3
REMARK VINA RESULT:      -5.9      2.049      2.426
REMARK  Name = 
REMARK  9 active torsions:
REMARK  status: ('A' for Active; 'I' for Inactive)
REMARK    1  A    between atoms: CB_1  and  CA_2
REMARK    2  A    between atoms: CA_2  and  N_3
REMARK    3  A    between atoms: CA_2  and  C_4
REMARK    4  A    between atoms: N_6  and  CA_7
REMARK    5  A    between atoms: CA_7  and  C_8
REMARK    6  A    between atoms: N_10  and  CA_11
REMARK    7  A    between atoms: CA_11  and  CB_12
REMARK    8  A    between atoms: CA_11  and  C_13
REMARK    9  A    between atoms: C_13  and  OXT_15
REMARK                            x       y       z     vdW  Elec       q    Type
REMARK                         _______ _______ _______ _____ _____    ______ ____
ROOT
ATOM      1  CA  GLY A   2       3.939   2.784  17.351  0.00  0.00    +0.000 C 
ENDROOT
BRANCH   1   4
ATOM      2  C   ALA A   1       5.445   4.636  16.751  0.00  0.00    +0.000 C 
ATOM      3  O   ALA A   1       4.529   5.453  16.870  0.00  0.00    +0.000 OA
ATOM      4  N   GLY A   2       5.237   3.289  16.944  0.00  0.00    +0.000 N 
ATOM      5  H   GLY A   2       5.888   2.628  16.537  0.00  0.00    +0.000 HD
BRANCH   2   7
ATOM      6  CB  ALA A   1       7.078   4.825  14.791  0.00  0.00    +0.000 C 
ATOM      7  CA  ALA A   1       6.871   5.029  16.289  0.00  0.00    +0.000 C 
BRANCH   7   8
ATOM      8  N   ALA A   1       7.871   4.235  17.018  0.00  0.00    +0.000 NA
ATOM      9  H1  ALA A   1       7.854   4.509  18.003  0.00  0.00    +0.000 HD
ATOM     10  H2  ALA A   1       8.799   4.523  16.699  0.00  0.00    +0.000 HD
ENDBRANCH   7   8
ENDBRANCH   2   7
ENDBRANCH   1   4
BRANCH   1  11
ATOM     11  C   GLY A   2       3.742   3.007  18.849  0.00  0.00    +0.000 C 
ATOM     12  O   GLY A   2       4.358   2.367  19.696  0.00  0.00    +0.000 OA
ATOM     13  N   ALA A   3       2.725   3.888  19.162  0.00  0.00    +0.000 N 
ATOM     14  H   ALA A   3       2.334   4.446  18.402  0.00  0.00    +0.000 HD
BRANCH  13  15
ATOM     15  CA  ALA A   3       2.443   4.284  20.545  0.00  0.00    +0.000 C 
ATOM     16  CB  ALA A   3       1.871   5.692  20.597  0.00  0.00    +0.000 C 
BRANCH  15  17
ATOM     17  C   ALA A   3       1.501   3.269  21.212  0.00  0.00    +0.000 C 
ATOM     18  O   ALA A   3       1.750   2.658  22.240  0.00  0.00    +0.000 OA
BRANCH  17  19
ATOM     19  OXT ALA A   3       0.376   3.039  20.489  0.00  0.00    +0.000 OA
ATOM     20  HXT ALA A   3       0.529   2.376  19.780  0.00  0.00    +0.000 HD
ENDBRANCH  17  19
ENDBRANCH  15  17
ENDBRANCH  13  15
ENDBRANCH   1  11
TORSDOF 7
ENDMDL
MODEL 4
REMARK VINA RESULT:      -5.9      2.208      6.148
REMARK  Name = 
REMARK  9 active torsions:
REMARK  status: ('A' for Active; 'I' for Inactive)
REMARK    1  A    between atoms: CB_1  and  CA_2
REMARK    2  A    between atoms: CA_2  and  N_3
REMARK    3  A    between atoms: CA_2  and  C_4
REMARK    4  A    between atoms: N_6  and  CA_7
REMARK    5  A    between atoms: CA_7  and  C_8
REMARK    6  A    between atoms: N_10  and  CA_11
REMARK    7  A    between atoms: CA_11  and  CB_12
REMARK    8  A    between atoms: CA_11  and  C_13
REMARK    9  A    between atoms: C_13  and  OXT_15
REMARK                            x       y       z     vdW  Elec       q    Type
REMARK                         _______ _______ _______ _____ _____    ______ ____
ROOT
ATOM      1  CA  GLY A   2       4.017   5.403  19.305  0.00  0.00    +0.000 C 
ENDROOT
BRANCH   1   4
ATOM      2  C   ALA A   1       1.946   4.770  20.473  0.00  0.00    +0.000 C 
ATOM      3  O   ALA A   1       1.694   5.952  20.721  0.00  0.00    +0.000 OA
ATOM      4  N   GLY A   2       3.089   4.404  19.800  0.00  0.00    +0.000 N 
ATOM      5  H   GLY A   2       3.431   3.455  19.891  0.00  0.00    +0.000 HD
BRANCH   2   7
ATOM      6  CB  ALA A   1       1.861   2.546  21.735  0.00  0.00    +0.000 C 
ATOM      7  CA  ALA A   1       1.063   3.598  20.971  0.00  0.00    +0.000 C 
BRANCH   7   8
ATOM      8  N   ALA A   1       0.399   2.951  19.829  0.00  0.00    +0.000 NA
ATOM      9  H1  ALA A   1       0.403   3.598  19.037  0.00  0.00    +0.000 HD
ATOM     10  H2  ALA A   1      -0.593   2.847  20.055  0.00  0.00    +0.000 HD
ENDBRANCH   7   8
ENDBRANCH   2   7
ENDBRANCH   1   4
BRANCH   1  11
ATOM     11  C   GLY A   2       5.123   4.729  18.495  0.00  0.00    +0.000 C 
ATOM     12  O   GLY A   2       6.108   4.221  19.023  0.00  0.00    +0.000 OA
ATOM     13  N   ALA A   3       4.982   4.857  17.127  0.00  0.00    +0.000 N 
ATOM     14  H   ALA A   3       4.090   5.205  16.776  0.00  0.00    +0.000 HD
BRANCH  13  15
ATOM     15  CA  ALA A   3       5.905   4.208  16.191  0.00  0.00    +0.000 C 
ATOM     16  CB  ALA A   3       5.365   4.270  14.771  0.00  0.00    +0.000 C 
BRANCH  15  17
ATOM     17  C   ALA A   3       7.303   4.841  16.289  0.00  0.00    +0.000 C 
ATOM     18  O   ALA A   3       7.662   5.835  15.676  0.00  0.00    +0.000 OA
BRANCH  17  19
ATOM     19  OXT ALA A   3       8.152   4.126  17.069  0.00  0.00    +0.000 OA
ATOM     20  HXT ALA A   3       8.280   3.214  16.726  0.00  0.00    +0.000 HD
ENDBRANCH  17  19
ENDBRANCH  15  17
ENDBRANCH  13  15
ENDBRANCH   1  11
TORSDOF 7
ENDMDL
MODEL 5
REMARK VINA RESULT:      -5.8      2.856      4.242
REMARK  Name = 
REMARK  9 active torsions:
REMARK  status: ('A' for Active; 'I' for Inactive)
REMARK    1  A    between atoms: CB_1  and  CA_2
REMARK    2  A    between atoms: CA_2  and  N_3
REMARK    3  A    between atoms: CA_2  and  C_4
REMARK    4  A    between atoms: N_6  and  CA_7
REMARK    5  A    between atoms: CA_7  and  C_8
REMARK    6  A    between atoms: N_10  and  CA_11
REMARK    7  A    between atoms: CA_11  and  CB_12
REMARK    8  A    between atoms: CA_11  and  C_13
REMARK    9  A    between atoms: C_13  and  OXT_15
REMARK                            x       y       z     vdW  Elec       q    Type
REMARK                         _______ _______ _______ _____ _____    ______ ____
ROOT
ATOM      1  CA  GLY A   2       6.808   4.419  14.602  0.00  0.00    +0.000 C 
ENDROOT
BRANCH   1   4
ATOM      2  C   ALA A   1       6.520   3.650  12.282  0.00  0.00    +0.000 C 
ATOM      3  O   ALA A   1       7.386   4.435  11.888  0.00  0.00    +0.000 OA
ATOM      4  N   GLY A   2       6.151   3.593  13.606  0.00  0.00    +0.000 N 
ATOM      5  H   GLY A   2       5.250   3.199  13.850  0.00  0.00    +0.000 HD
BRANCH   2   7
ATOM      6  CB  ALA A   1       4.215   3.021  11.367  0.00  0.00    +0.000 C 
ATOM      7  CA  ALA A   1       5.713   2.735  11.327  0.00  0.00    +0.000 C 
BRANCH   7   8
ATOM      8  N   ALA A   1       5.935   1.324  11.678  0.00  0.00    +0.000 NA
ATOM      9  H1  ALA A   1       5.416   1.113  12.534  0.00  0.00    +0.000 HD
ATOM     10  H2  ALA A   1       6.914   1.215  11.952  0.00  0.00    +0.000 HD
ENDBRANCH   7   8
ENDBRANCH   2   7
ENDBRANCH   1   4
BRANCH   1  11
ATOM     11  C   GLY A   2       5.768   5.026  15.542  0.00  0.00    +0.000 C 
ATOM     12  O   GLY A   2       5.534   6.230  15.574  0.00  0.00    +0.000 OA
ATOM     13  N   ALA A   3       5.218   4.126  16.434  0.00  0.00    +0.000 N 
ATOM     14  H   ALA A   3       5.394   3.135  16.273  0.00  0.00    +0.000 HD
BRANCH  13  15
ATOM     15  CA  ALA A   3       4.148   4.512  17.359  0.00  0.00    +0.000 C 
ATOM     16  CB  ALA A   3       2.955   3.579  17.222  0.00  0.00    +0.000 C 
BRANCH  15  17
ATOM     17  C   ALA A   3       4.673   4.545  18.804  0.00  0.00    +0.000 C 
ATOM     18  O   ALA A   3       4.313   5.341  19.657  0.00  0.00    +0.000 OA
BRANCH  17  19
ATOM     19  OXT ALA A   3       5.664   3.646  19.025  0.00  0.00    +0.000 OA
ATOM     20  HXT ALA A   3       5.495   2.796  18.562  0.00  0.00    +0.000 HD
ENDBRANCH  17  19
ENDBRANCH  15  17
ENDBRANCH  13  15
ENDBRANCH   1  11
TORSDOF 7
ENDMDL
MODEL 6
REMARK VINA RESULT:      -5.8      2.381      3.254
REMARK  Name = 
REMARK  9 active torsions:
REMARK  status: ('A' for Active; 'I' for Inactive)
REMARK    1  A    between atoms: CB_1  and  CA_2
REMARK    2  A    between atoms: CA_2  and  N_3
REMARK    3  A    between atoms: CA_2  and  C_4
REMARK    4  A    between atoms: N_6  and  CA_7
REMARK    5  A    between atoms: CA_7  and  C_8
REMARK    6  A    between atoms: N_10  and  CA_11
REMARK    7  A    between atoms: CA_11  and  CB_12
REMARK    8  A    between atoms: CA_11  and  C_13
REMARK    9  A    between atoms: C_13  and  OXT_15
REMARK                            x       y       z     vdW  Elec       q    Type
REMARK                         _______ _______ _______ _____ _____    ______ ____
ROOT
ATOM      1  CA  GLY A   2       6.572   4.045  15.905  0.00  0.00    +0.000 C 
ENDROOT
BRANCH   1   4
ATOM      2  C   ALA A   1       6.698   4.215  13.453  0.00  0.00    +0.000 C 
ATOM      3  O   ALA A   1       7.394   5.230  13.535  0.00  0.00    +0.000 OA
ATOM      4  N   GLY A   2       6.223   3.578  14.576  0.00  0.00    +0.000 N 
ATOM      5  H   GLY A   2       5.418   2.969  14.493  0.00  0.00    +0.000 HD
BRANCH   2   7
ATOM      6  CB  ALA A   1       4.715   3.378  12.070  0.00  0.00    +0.000 C 
ATOM      7  CA  ALA A   1       6.220   3.627  12.102  0.00  0.00    +0.000 C 
BRANCH   7   8
ATOM      8  N   ALA A   1       6.915   2.359  11.834  0.00  0.00    +0.000 NA
ATOM      9  H1  ALA A   1       6.446   1.611  12.350  0.00  0.00    +0.000 HD
ATOM     10  H2  ALA A   1       7.842   2.408  12.264  0.00  0.00    +0.000 HD
ENDBRANCH   7   8
ENDBRANCH   2   7
ENDBRANCH   1   4
BRANCH   1  11
ATOM     11  C   GLY A   2       5.302   4.317  16.710  0.00  0.00    +0.000 C 
ATOM     12  O   GLY A   2       4.767   5.422  16.739  0.00  0.00    +0.000 OA
ATOM     13  N   ALA A   3       4.893   3.259  17.497  0.00  0.00    +0.000 N 
ATOM     14  H   ALA A   3       5.334   2.354  17.337  0.00  0.00    +0.000 HD
BRANCH  13  15
ATOM     15  CA  ALA A   3       3.652   3.311  18.276  0.00  0.00    +0.000 C 
ATOM     16  CB  ALA A   3       2.502   2.683  17.503  0.00  0.00    +0.000 C 
BRANCH  15  17
ATOM     17  C   ALA A   3       3.848   2.632  19.642  0.00  0.00    +0.000 C 
ATOM     18  O   ALA A   3       2.995   2.563  20.513  0.00  0.00    +0.000 OA
BRANCH  17  19
ATOM     19  OXT ALA A   3       5.115   2.186  19.833  0.00  0.00    +0.000 OA
ATOM     20  HXT ALA A   3       5.155   1.205  19.856  0.00  0.00    +0.000 HD
ENDBRANCH  17  19
ENDBRANCH  15  17
ENDBRANCH  13  15
ENDBRANCH   1  11
TORSDOF 7
ENDMDL
MODEL 7
REMARK VINA RESULT:      -5.8      1.962      2.467
REMARK  Name = 
REMARK  9 active torsions:
REMARK  status: ('A' for Active; 'I' for Inactive)
REMARK    1  A    between atoms: CB_1  and  CA_2
REMARK    2  A    between atoms: CA_2  and  N_3
REMARK    3  A    between atoms: CA_2  and  C_4
REMARK    4  A    between atoms: N_6  and  CA_7
REMARK    5  A    between atoms: CA_7  and  C_8
REMARK    6  A    between atoms: N_10  and  CA_11
REMARK    7  A    between atoms: CA_11  and  CB_12
REMARK    8  A    between atoms: CA_11  and  C_13
REMARK    9  A    between atoms: C_13  and  OXT_15
REMARK                            x       y       z     vdW  Elec       q    Type
REMARK                         _______ _______ _______ _____ _____    ______ ____
ROOT
ATOM      1  CA  GLY A   2       4.360   3.164  17.720  0.00  0.00    +0.000 C 
ENDROOT
BRANCH   1   4
ATOM      2  C   ALA A   1       5.781   5.004  16.913  0.00  0.00    +0.000 C 
ATOM      3  O   ALA A   1       4.810   5.559  16.392  0.00  0.00    +0.000 OA
ATOM      4  N   GLY A   2       5.655   3.800  17.568  0.00  0.00    +0.000 N 
ATOM      5  H   GLY A   2       6.476   3.221  17.696  0.00  0.00    +0.000 HD
BRANCH   2   7
ATOM      6  CB  ALA A   1       7.405   6.890  17.508  0.00  0.00    +0.000 C 
ATOM      7  CA  ALA A   1       7.226   5.551  16.798  0.00  0.00    +0.000 C 
BRANCH   7   8
ATOM      8  N   ALA A   1       7.590   5.712  15.382  0.00  0.00    +0.000 NA
ATOM      9  H1  ALA A   1       8.101   6.591  15.273  0.00  0.00    +0.000 HD
ATOM     10  H2  ALA A   1       6.731   5.861  14.849  0.00  0.00    +0.000 HD
ENDBRANCH   7   8
ENDBRANCH   2   7
ENDBRANCH   1   4
BRANCH   1  11
ATOM     11  C   GLY A   2       3.904   3.256  19.176  0.00  0.00    +0.000 C 
ATOM     12  O   GLY A   2       4.359   2.530  20.054  0.00  0.00    +0.000 OA
ATOM     13  N   ALA A   3       2.853   4.127  19.386  0.00  0.00    +0.000 N 
ATOM     14  H   ALA A   3       2.605   4.759  18.625  0.00  0.00    +0.000 HD
BRANCH  13  15
ATOM     15  CA  ALA A   3       2.336   4.403  20.729  0.00  0.00    +0.000 C 
ATOM     16  CB  ALA A   3       1.652   5.761  20.776  0.00  0.00    +0.000 C 
BRANCH  15  17
ATOM     17  C   ALA A   3       1.387   3.281  21.180  0.00  0.00    +0.000 C 
ATOM     18  O   ALA A   3       1.592   2.532  22.123  0.00  0.00    +0.000 OA
BRANCH  17  19
ATOM     19  OXT ALA A   3       0.317   3.133  20.360  0.00  0.00    +0.000 OA
ATOM     20  HXT ALA A   3       0.584   3.109  19.414  0.00  0.00    +0.000 HD
ENDBRANCH  17  19
ENDBRANCH  15  17
ENDBRANCH  13  15
ENDBRANCH   1  11
TORSDOF 7
ENDMDL
MODEL 8
REMARK VINA RESULT:      -5.8      2.366      6.145
REMARK  Name = 
REMARK  9 active torsions:
REMARK  status: ('A' for Active; 'I' for Inactive)
REMARK    1  A    between atoms: CB_1  and  CA_2
REMARK    2  A    between atoms: CA_2  and  N_3
REMARK    3  A    between atoms: CA_2  and  C_4
REMARK    4  A    between atoms: N_6  and  CA_7
REMARK    5  A    between atoms: CA_7  and  C_8
REMARK    6  A    between atoms: N_10  and  CA_11
REMARK    7  A    between atoms: CA_11  and  CB_12
REMARK    8  A    between atoms: CA_11  and  C_13
REMARK    9  A    between atoms: C_13  and  OXT_15
REMARK                            x       y       z     vdW  Elec       q    Type
REMARK                         _______ _______ _______ _____ _____    ______ ____
ROOT
ATOM      1  CA  GLY A   2       4.118   3.233  17.740  0.00  0.00    +0.000 C 
ENDROOT
BRANCH   1   4
ATOM      2  C   ALA A   1       3.072   2.654  19.891  0.00  0.00    +0.000 C 
ATOM      3  O   ALA A   1       4.156   2.279  20.345  0.00  0.00    +0.000 OA
ATOM      4  N   GLY A   2       2.955   3.116  18.600  0.00  0.00    +0.000 N 
ATOM      5  H   GLY A   2       2.045   3.108  18.155  0.00  0.00    +0.000 HD
BRANCH   2   7
ATOM      6  CB  ALA A   1       0.714   3.585  20.236  0.00  0.00    +0.000 C 
ATOM      7  CA  ALA A   1       1.745   2.554  20.684  0.00  0.00    +0.000 C 
BRANCH   7   8
ATOM      8  N   ALA A   1       2.005   2.737  22.120  0.00  0.00    +0.000 NA
ATOM      9  H1  ALA A   1       2.937   3.140  22.237  0.00  0.00    +0.000 HD
ATOM     10  H2  ALA A   1       2.082   1.813  22.550  0.00  0.00    +0.000 HD
ENDBRANCH   7   8
ENDBRANCH   2   7
ENDBRANCH   1   4
BRANCH   1  11
ATOM     11  C   GLY A   2       4.701   4.641  17.842  0.00  0.00    +0.000 C 
ATOM     12  O   GLY A   2       4.039   5.646  17.600  0.00  0.00    +0.000 OA
ATOM     13  N   ALA A   3       6.058   4.675  18.098  0.00  0.00    +0.000 N 
ATOM     14  H   ALA A   3       6.506   3.804  18.382  0.00  0.00    +0.000 HD
BRANCH  13  15
ATOM     15  CA  ALA A   3       6.773   5.937  18.308  0.00  0.00    +0.000 C 
ATOM     16  CB  ALA A   3       7.911   5.755  19.300  0.00  0.00    +0.000 C 
BRANCH  15  17
ATOM     17  C   ALA A   3       7.280   6.495  16.968  0.00  0.00    +0.000 C 
ATOM     18  O   ALA A   3       7.410   5.840  15.945  0.00  0.00    +0.000 OA
BRANCH  17  19
ATOM     19  OXT ALA A   3       7.667   7.793  17.049  0.00  0.00    +0.000 OA
ATOM     20  HXT ALA A   3       7.187   8.272  17.761  0.00  0.00    +0.000 HD
ENDBRANCH  17  19
ENDBRANCH  15  17
ENDBRANCH  13  15
ENDBRANCH   1  11
TORSDOF 7
ENDMDL
MODEL 9
REMARK VINA RESULT:      -5.7      2.259      5.919
REMARK  Name = 
REMARK  9 active torsions:
REMARK  status: ('A' for Active; 'I' for Inactive)
REMARK    1  A    between atoms: CB_1  and  CA_2
REMARK    2  A    between atoms: CA_2  and  N_3
REMARK    3  A    between atoms: CA_2  and  C_4
REMARK    4  A    between atoms: N_6  and  CA_7
REMARK    5  A    between atoms: CA_7  and  C_8
REMARK    6  A    between atoms: N_10  and  CA_11
REMARK    7  A    between atoms: CA_11  and  CB_12
REMARK    8  A    between atoms: CA_11  and  C_13
REMARK    9  A    between atoms: C_13  and  OXT_15
REMARK                            x       y       z     vdW  Elec       q    Type
REMARK                         _______ _______ _______ _____ _____    ______ ____
ROOT
ATOM      1  CA  GLY A   2       3.187   5.851  17.677  0.00  0.00    +0.000 C 
ENDROOT
BRANCH   1   4
ATOM      2  C   ALA A   1       2.158   3.725  18.369  0.00  0.00    +0.000 C 
ATOM      3  O   ALA A   1       1.748   3.522  17.224  0.00  0.00    +0.000 OA
ATOM      4  N   GLY A   2       2.856   4.866  18.691  0.00  0.00    +0.000 N 
ATOM      5  H   GLY A   2       2.896   5.163  19.658  0.00  0.00    +0.000 HD
BRANCH   2   7
ATOM      6  CB  ALA A   1       1.017   3.452  20.643  0.00  0.00    +0.000 C 
ATOM      7  CA  ALA A   1       1.849   2.778  19.556  0.00  0.00    +0.000 C 
BRANCH   7   8
ATOM      8  N   ALA A   1       3.104   2.295  20.151  0.00  0.00    +0.000 NA
ATOM      9  H1  ALA A   1       2.961   1.340  20.490  0.00  0.00    +0.000 HD
ATOM     10  H2  ALA A   1       3.279   2.833  21.002  0.00  0.00    +0.000 HD
ENDBRANCH   7   8
ENDBRANCH   2   7
ENDBRANCH   1   4
BRANCH   1  11
ATOM     11  C   GLY A   2       4.603   5.606  17.159  0.00  0.00    +0.000 C 
ATOM     12  O   GLY A   2       4.843   4.819  16.248  0.00  0.00    +0.000 OA
ATOM     13  N   ALA A   3       5.590   6.243  17.885  0.00  0.00    +0.000 N 
ATOM     14  H   ALA A   3       5.298   6.951  18.558  0.00  0.00    +0.000 HD
BRANCH  13  15
ATOM     15  CA  ALA A   3       7.000   6.187  17.487  0.00  0.00    +0.000 C 
ATOM     16  CB  ALA A   3       7.643   7.562  17.583  0.00  0.00    +0.000 C 
BRANCH  15  17
ATOM     17  C   ALA A   3       7.757   5.153  18.336  0.00  0.00    +0.000 C 
ATOM     18  O   ALA A   3       8.045   5.296  19.515  0.00  0.00    +0.000 OA
BRANCH  17  19
ATOM     19  OXT ALA A   3       8.167   4.078  17.617  0.00  0.00    +0.000 OA
ATOM     20  HXT ALA A   3       7.417   3.486  17.389  0.00  0.00    +0.000 HD
ENDBRANCH  17  19
ENDBRANCH  15  17
ENDBRANCH  13  15
ENDBRANCH   1  11
TORSDOF 7
ENDMDL
