MODEL 1
REMARK VINA RESULT:      -8.5      0.000      0.000
REMARK  Name = 
REMARK  3 active torsions:
REMARK  status: ('A' for Active; 'I' for Inactive)
REMARK    1  A    between atoms: O_1  and  C_2
REMARK    2  A    between atoms: C_6  and  C_7
REMARK    3  A    between atoms: N_10  and  C_11
REMARK                            x       y       z     vdW  Elec       q    Type
REMARK                         _______ _______ _______ _____ _____    ______ ____
ROOT
ATOM      1  C   UNL     1       2.513   2.725  18.148  0.00  0.00    +0.000 A 
ATOM      2  C   UNL     1       1.565   3.589  18.667  0.00  0.00    +0.000 A 
ATOM      3  C   UNL     1       1.801   4.962  18.608  0.00  0.00    +0.000 A 
ATOM      4  C   UNL     1       2.966   5.497  17.994  0.00  0.00    +0.000 A 
ATOM      5  C   UNL     1       3.267   6.883  17.857  0.00  0.00    +0.000 A 
ATOM      6  C   UNL     1       4.473   7.260  17.251  0.00  0.00    +0.000 A 
ATOM      7  C   UNL     1       5.336   6.278  16.816  0.00  0.00    +0.000 A 
ATOM      8  N   UNL     1       5.078   4.963  16.922  0.00  0.00    +0.000 NA
ATOM      9  C   UNL     1       3.924   4.582  17.489  0.00  0.00    +0.000 A 
ATOM     10  C   UNL     1       3.680   3.221  17.577  0.00  0.00    +0.000 A 
ENDROOT
BRANCH   5  11
ATOM     11  C   UNL     1       2.380   7.947  18.325  0.00  0.00    +0.000 A 
ATOM     12  C   UNL     1       1.839   9.088  17.698  0.00  0.00    +0.000 A 
ATOM     13  N   UNL     1       1.032   9.791  18.495  0.00  0.00    +0.000 NA
ATOM     14  N   UNL     1       1.104   9.159  19.694  0.00  0.00    +0.000 N 
ATOM     15  C   UNL     1       1.892   8.031  19.613  0.00  0.00    +0.000 A 
BRANCH  14  16
ATOM     16  C   UNL     1       0.440   9.674  20.841  0.00  0.00    +0.000 A 
ATOM     17  C   UNL     1      -0.234  10.901  20.758  0.00  0.00    +0.000 A 
ATOM     18  C   UNL     1      -0.875  11.427  21.882  0.00  0.00    +0.000 A 
ATOM     19  C   UNL     1      -0.842  10.736  23.092  0.00  0.00    +0.000 A 
ATOM     20  C   UNL     1      -0.173   9.517  23.181  0.00  0.00    +0.000 A 
ATOM     21  C   UNL     1       0.465   8.983  22.060  0.00  0.00    +0.000 A 
ENDBRANCH  14  16
ENDBRANCH   5  11
BRANCH   1  22
ATOM     22  O   UNL     1       2.337   1.376  18.184  0.00  0.00    +0.000 OA
ATOM     23  H   UNL     1       3.073   0.949  17.713  0.00  0.00    +0.000 HD
ENDBRANCH   1  22
TORSDOF 3
ENDMDL
MODEL 2
REMARK VINA RESULT:      -8.5      0.147      1.039
REMARK  Name = 
REMARK  3 active torsions:
REMARK  status: ('A' for Active; 'I' for Inactive)
REMARK    1  A    between atoms: O_1  and  C_2
REMARK    2  A    between atoms: C_6  and  C_7
REMARK    3  A    between atoms: N_10  and  C_11
REMARK                            x       y       z     vdW  Elec       q    Type
REMARK                         _______ _______ _______ _____ _____    ______ ____
ROOT
ATOM      1  C   UNL     1       2.613   2.733  17.959  0.00  0.00    +0.000 A 
ATOM      2  C   UNL     1       1.615   3.562  18.441  0.00  0.00    +0.000 A 
ATOM      3  C   UNL     1       1.830   4.940  18.450  0.00  0.00    +0.000 A 
ATOM      4  C   UNL     1       3.026   5.516  17.943  0.00  0.00    +0.000 A 
ATOM      5  C   UNL     1       3.311   6.910  17.880  0.00  0.00    +0.000 A 
ATOM      6  C   UNL     1       4.550   7.330  17.377  0.00  0.00    +0.000 A 
ATOM      7  C   UNL     1       5.459   6.379  16.969  0.00  0.00    +0.000 A 
ATOM      8  N   UNL     1       5.219   5.057  17.007  0.00  0.00    +0.000 NA
ATOM      9  C   UNL     1       4.034   4.637  17.474  0.00  0.00    +0.000 A 
ATOM     10  C   UNL     1       3.809   3.269  17.494  0.00  0.00    +0.000 A 
ENDROOT
BRANCH   5  11
ATOM     11  C   UNL     1       2.373   7.942  18.322  0.00  0.00    +0.000 A 
ATOM     12  C   UNL     1       1.723   8.998  17.651  0.00  0.00    +0.000 A 
ATOM     13  N   UNL     1       0.907   9.698  18.440  0.00  0.00    +0.000 NA
ATOM     14  N   UNL     1       1.079   9.157  19.672  0.00  0.00    +0.000 N 
ATOM     15  C   UNL     1       1.941   8.081  19.626  0.00  0.00    +0.000 A 
BRANCH  14  16
ATOM     16  C   UNL     1       0.435   9.704  20.816  0.00  0.00    +0.000 A 
ATOM     17  C   UNL     1       0.369   8.953  21.998  0.00  0.00    +0.000 A 
ATOM     18  C   UNL     1      -0.276   9.472  23.124  0.00  0.00    +0.000 A 
ATOM     19  C   UNL     1      -0.862  10.736  23.072  0.00  0.00    +0.000 A 
ATOM     20  C   UNL     1      -0.801  11.486  21.900  0.00  0.00    +0.000 A 
ATOM     21  C   UNL     1      -0.152  10.976  20.773  0.00  0.00    +0.000 A 
ENDBRANCH  14  16
ENDBRANCH   5  11
BRANCH   1  22
ATOM     22  O   UNL     1       2.460   1.382  17.932  0.00  0.00    +0.000 OA
ATOM     23  H   UNL     1       3.261   0.966  18.292  0.00  0.00    +0.000 HD
ENDBRANCH   1  22
TORSDOF 3
ENDMDL
MODEL 3
REMARK VINA RESULT:      -8.5      3.078      7.701
REMARK  Name = 
REMARK  3 active torsions:
REMARK  status: ('A' for Active; 'I' for Inactive)
REMARK    1  A    between atoms: O_1  and  C_2
REMARK    2  A    between atoms: C_6  and  C_7
REMARK    3  A    between atoms: N_10  and  C_11
REMARK                            x       y       z     vdW  Elec       q    Type
REMARK                         _______ _______ _______ _____ _____    ______ ____
ROOT
ATOM      1  C   UNL     1       2.532   3.035  21.095  0.00  0.00    +0.000 A 
ATOM      2  C   UNL     1       3.563   2.691  20.239  0.00  0.00    +0.000 A 
ATOM      3  C   UNL     1       4.033   3.642  19.334  0.00  0.00    +0.000 A 
ATOM      4  C   UNL     1       3.510   4.963  19.295  0.00  0.00    +0.000 A 
ATOM      5  C   UNL     1       3.956   6.004  18.431  0.00  0.00    +0.000 A 
ATOM      6  C   UNL     1       3.324   7.253  18.488  0.00  0.00    +0.000 A 
ATOM      7  C   UNL     1       2.282   7.433  19.371  0.00  0.00    +0.000 A 
ATOM      8  N   UNL     1       1.842   6.475  20.205  0.00  0.00    +0.000 NA
ATOM      9  C   UNL     1       2.443   5.276  20.174  0.00  0.00    +0.000 A 
ATOM     10  C   UNL     1       1.976   4.309  21.050  0.00  0.00    +0.000 A 
ENDROOT
BRANCH   5  11
ATOM     11  C   UNL     1       5.048   5.839  17.471  0.00  0.00    +0.000 A 
ATOM     12  C   UNL     1       6.399   6.241  17.478  0.00  0.00    +0.000 A 
ATOM     13  N   UNL     1       7.068   5.847  16.394  0.00  0.00    +0.000 NA
ATOM     14  N   UNL     1       6.132   5.252  15.614  0.00  0.00    +0.000 N 
ATOM     15  C   UNL     1       4.909   5.212  16.250  0.00  0.00    +0.000 A 
BRANCH  14  16
ATOM     16  C   UNL     1       6.449   4.777  14.311  0.00  0.00    +0.000 A 
ATOM     17  C   UNL     1       7.511   5.356  13.603  0.00  0.00    +0.000 A 
ATOM     18  C   UNL     1       7.822   4.910  12.316  0.00  0.00    +0.000 A 
ATOM     19  C   UNL     1       7.072   3.893  11.729  0.00  0.00    +0.000 A 
ATOM     20  C   UNL     1       6.014   3.314  12.427  0.00  0.00    +0.000 A 
ATOM     21  C   UNL     1       5.702   3.750  13.716  0.00  0.00    +0.000 A 
ENDBRANCH  14  16
ENDBRANCH   5  11
BRANCH   1  22
ATOM     22  O   UNL     1       2.030   2.146  21.994  0.00  0.00    +0.000 OA
ATOM     23  H   UNL     1       1.652   1.390  21.514  0.00  0.00    +0.000 HD
ENDBRANCH   1  22
TORSDOF 3
ENDMDL
MODEL 4
REMARK VINA RESULT:      -8.4      3.127      7.731
REMARK  Name = 
REMARK  3 active torsions:
REMARK  status: ('A' for Active; 'I' for Inactive)
REMARK    1  A    between atoms: O_1  and  C_2
REMARK    2  A    between atoms: C_6  and  C_7
REMARK    3  A    between atoms: N_10  and  C_11
REMARK                            x       y       z     vdW  Elec       q    Type
REMARK                         _______ _______ _______ _____ _____    ______ ____
ROOT
ATOM      1  C   UNL     1       2.719   2.927  21.159  0.00  0.00    +0.000 A 
ATOM      2  C   UNL     1       3.734   2.611  20.273  0.00  0.00    +0.000 A 
ATOM      3  C   UNL     1       4.154   3.575  19.358  0.00  0.00    +0.000 A 
ATOM      4  C   UNL     1       3.597   4.883  19.337  0.00  0.00    +0.000 A 
ATOM      5  C   UNL     1       3.992   5.937  18.464  0.00  0.00    +0.000 A 
ATOM      6  C   UNL     1       3.330   7.169  18.542  0.00  0.00    +0.000 A 
ATOM      7  C   UNL     1       2.308   7.320  19.454  0.00  0.00    +0.000 A 
ATOM      8  N   UNL     1       1.917   6.349  20.297  0.00  0.00    +0.000 NA
ATOM      9  C   UNL     1       2.547   5.166  20.246  0.00  0.00    +0.000 A 
ATOM     10  C   UNL     1       2.129   4.186  21.133  0.00  0.00    +0.000 A 
ENDROOT
BRANCH   5  11
ATOM     11  C   UNL     1       5.060   5.802  17.474  0.00  0.00    +0.000 A 
ATOM     12  C   UNL     1       6.399   6.243  17.442  0.00  0.00    +0.000 A 
ATOM     13  N   UNL     1       7.049   5.867  16.339  0.00  0.00    +0.000 NA
ATOM     14  N   UNL     1       6.109   5.241  15.588  0.00  0.00    +0.000 N 
ATOM     15  C   UNL     1       4.906   5.167  16.258  0.00  0.00    +0.000 A 
BRANCH  14  16
ATOM     16  C   UNL     1       6.402   4.772  14.278  0.00  0.00    +0.000 A 
ATOM     17  C   UNL     1       5.576   3.806  13.687  0.00  0.00    +0.000 A 
ATOM     18  C   UNL     1       5.863   3.324  12.407  0.00  0.00    +0.000 A 
ATOM     19  C   UNL     1       6.977   3.798  11.717  0.00  0.00    +0.000 A 
ATOM     20  C   UNL     1       7.804   4.756  12.299  0.00  0.00    +0.000 A 
ATOM     21  C   UNL     1       7.519   5.246  13.575  0.00  0.00    +0.000 A 
ENDBRANCH  14  16
ENDBRANCH   5  11
BRANCH   1  22
ATOM     22  O   UNL     1       2.265   2.024  22.069  0.00  0.00    +0.000 OA
ATOM     23  H   UNL     1       1.576   1.478  21.656  0.00  0.00    +0.000 HD
ENDBRANCH   1  22
TORSDOF 3
ENDMDL
MODEL 5
REMARK VINA RESULT:      -8.2      3.720      8.185
REMARK  Name = 
REMARK  3 active torsions:
REMARK  status: ('A' for Active; 'I' for Inactive)
REMARK    1  A    between atoms: O_1  and  C_2
REMARK    2  A    between atoms: C_6  and  C_7
REMARK    3  A    between atoms: N_10  and  C_11
REMARK                            x       y       z     vdW  Elec       q    Type
REMARK                         _______ _______ _______ _____ _____    ______ ____
ROOT
ATOM      1  C   UNL     1       1.692   6.745  20.384  0.00  0.00    +0.000 A 
ATOM      2  C   UNL     1       2.576   7.176  19.411  0.00  0.00    +0.000 A 
ATOM      3  C   UNL     1       3.531   6.283  18.927  0.00  0.00    +0.000 A 
ATOM      4  C   UNL     1       3.595   4.936  19.375  0.00  0.00    +0.000 A 
ATOM      5  C   UNL     1       4.511   3.950  18.908  0.00  0.00    +0.000 A 
ATOM      6  C   UNL     1       4.472   2.666  19.466  0.00  0.00    +0.000 A 
ATOM      7  C   UNL     1       3.554   2.398  20.458  0.00  0.00    +0.000 A 
ATOM      8  N   UNL     1       2.671   3.302  20.916  0.00  0.00    +0.000 NA
ATOM      9  C   UNL     1       2.685   4.534  20.385  0.00  0.00    +0.000 A 
ATOM     10  C   UNL     1       1.758   5.444  20.869  0.00  0.00    +0.000 A 
ENDROOT
BRANCH   5  11
ATOM     11  C   UNL     1       5.508   4.209  17.869  0.00  0.00    +0.000 A 
ATOM     12  C   UNL     1       6.826   4.707  17.907  0.00  0.00    +0.000 A 
ATOM     13  N   UNL     1       7.404   4.753  16.706  0.00  0.00    +0.000 NA
ATOM     14  N   UNL     1       6.431   4.363  15.845  0.00  0.00    +0.000 N 
ATOM     15  C   UNL     1       5.284   4.006  16.522  0.00  0.00    +0.000 A 
BRANCH  14  16
ATOM     16  C   UNL     1       6.643   4.371  14.439  0.00  0.00    +0.000 A 
ATOM     17  C   UNL     1       5.879   3.528  13.619  0.00  0.00    +0.000 A 
ATOM     18  C   UNL     1       6.088   3.515  12.238  0.00  0.00    +0.000 A 
ATOM     19  C   UNL     1       7.062   4.335  11.671  0.00  0.00    +0.000 A 
ATOM     20  C   UNL     1       7.825   5.174  12.481  0.00  0.00    +0.000 A 
ATOM     21  C   UNL     1       7.617   5.197  13.861  0.00  0.00    +0.000 A 
ENDBRANCH  14  16
ENDBRANCH   5  11
BRANCH   1  22
ATOM     22  O   UNL     1       0.743   7.575  20.897  0.00  0.00    +0.000 OA
ATOM     23  H   UNL     1       0.970   7.782  21.819  0.00  0.00    +0.000 HD
ENDBRANCH   1  22
TORSDOF 3
ENDMDL
MODEL 6
REMARK VINA RESULT:      -8.0      1.751      2.903
REMARK  Name = 
REMARK  3 active torsions:
REMARK  status: ('A' for Active; 'I' for Inactive)
REMARK    1  A    between atoms: O_1  and  C_2
REMARK    2  A    between atoms: C_6  and  C_7
REMARK    3  A    between atoms: N_10  and  C_11
REMARK                            x       y       z     vdW  Elec       q    Type
REMARK                         _______ _______ _______ _____ _____    ______ ____
ROOT
ATOM      1  C   UNL     1       6.812   4.892  17.233  0.00  0.00    +0.000 A 
ATOM      2  C   UNL     1       6.533   6.202  17.579  0.00  0.00    +0.000 A 
ATOM      3  C   UNL     1       5.209   6.567  17.821  0.00  0.00    +0.000 A 
ATOM      4  C   UNL     1       4.147   5.625  17.761  0.00  0.00    +0.000 A 
ATOM      5  C   UNL     1       2.776   5.904  18.030  0.00  0.00    +0.000 A 
ATOM      6  C   UNL     1       1.835   4.874  17.903  0.00  0.00    +0.000 A 
ATOM      7  C   UNL     1       2.263   3.624  17.511  0.00  0.00    +0.000 A 
ATOM      8  N   UNL     1       3.549   3.326  17.259  0.00  0.00    +0.000 NA
ATOM      9  C   UNL     1       4.467   4.296  17.386  0.00  0.00    +0.000 A 
ATOM     10  C   UNL     1       5.787   3.958  17.129  0.00  0.00    +0.000 A 
ENDROOT
BRANCH   5  11
ATOM     11  C   UNL     1       2.289   7.223  18.430  0.00  0.00    +0.000 A 
ATOM     12  C   UNL     1       2.361   8.495  17.827  0.00  0.00    +0.000 A 
ATOM     13  N   UNL     1       1.742   9.445  18.529  0.00  0.00    +0.000 NA
ATOM     14  N   UNL     1       1.327   8.816  19.658  0.00  0.00    +0.000 N 
ATOM     15  C   UNL     1       1.623   7.471  19.613  0.00  0.00    +0.000 A 
BRANCH  14  16
ATOM     16  C   UNL     1       0.695   9.532  20.712  0.00  0.00    +0.000 A 
ATOM     17  C   UNL     1       0.503   8.909  21.953  0.00  0.00    +0.000 A 
ATOM     18  C   UNL     1      -0.131   9.595  22.992  0.00  0.00    +0.000 A 
ATOM     19  C   UNL     1      -0.581  10.899  22.795  0.00  0.00    +0.000 A 
ATOM     20  C   UNL     1      -0.395  11.523  21.564  0.00  0.00    +0.000 A 
ATOM     21  C   UNL     1       0.244  10.846  20.523  0.00  0.00    +0.000 A 
ENDBRANCH  14  16
ENDBRANCH   5  11
BRANCH   1  22
ATOM     22  O   UNL     1       8.084   4.481  16.980  0.00  0.00    +0.000 OA
ATOM     23  H   UNL     1       8.098   3.998  16.137  0.00  0.00    +0.000 HD
ENDBRANCH   1  22
TORSDOF 3
ENDMDL
MODEL 7
REMARK VINA RESULT:      -8.0      1.763      2.809
REMARK  Name = 
REMARK  3 active torsions:
REMARK  status: ('A' for Active; 'I' for Inactive)
REMARK    1  A    between atoms: O_1  and  C_2
REMARK    2  A    between atoms: C_6  and  C_7
REMARK    3  A    between atoms: N_10  and  C_11
REMARK                            x       y       z     vdW  Elec       q    Type
REMARK                         _______ _______ _______ _____ _____    ______ ____
ROOT
ATOM      1  C   UNL     1       6.512   5.139  16.057  0.00  0.00    +0.000 A 
ATOM      2  C   UNL     1       6.189   6.453  16.346  0.00  0.00    +0.000 A 
ATOM      3  C   UNL     1       4.970   6.726  16.965  0.00  0.00    +0.000 A 
ATOM      4  C   UNL     1       4.072   5.692  17.342  0.00  0.00    +0.000 A 
ATOM      5  C   UNL     1       2.827   5.879  18.010  0.00  0.00    +0.000 A 
ATOM      6  C   UNL     1       2.032   4.760  18.293  0.00  0.00    +0.000 A 
ATOM      7  C   UNL     1       2.474   3.514  17.906  0.00  0.00    +0.000 A 
ATOM      8  N   UNL     1       3.646   3.302  17.283  0.00  0.00    +0.000 NA
ATOM      9  C   UNL     1       4.426   4.359  17.014  0.00  0.00    +0.000 A 
ATOM     10  C   UNL     1       5.633   4.111  16.378  0.00  0.00    +0.000 A 
ENDROOT
BRANCH   5  11
ATOM     11  C   UNL     1       2.324   7.190  18.416  0.00  0.00    +0.000 A 
ATOM     12  C   UNL     1       2.383   8.467  17.821  0.00  0.00    +0.000 A 
ATOM     13  N   UNL     1       1.751   9.405  18.528  0.00  0.00    +0.000 NA
ATOM     14  N   UNL     1       1.339   8.764  19.651  0.00  0.00    +0.000 N 
ATOM     15  C   UNL     1       1.651   7.422  19.599  0.00  0.00    +0.000 A 
BRANCH  14  16
ATOM     16  C   UNL     1       0.697   9.466  20.708  0.00  0.00    +0.000 A 
ATOM     17  C   UNL     1       0.335  10.809  20.528  0.00  0.00    +0.000 A 
ATOM     18  C   UNL     1      -0.282  11.514  21.564  0.00  0.00    +0.000 A 
ATOM     19  C   UNL     1      -0.533  10.887  22.783  0.00  0.00    +0.000 A 
ATOM     20  C   UNL     1      -0.174   9.554  22.969  0.00  0.00    +0.000 A 
ATOM     21  C   UNL     1       0.437   8.841  21.936  0.00  0.00    +0.000 A 
ENDBRANCH  14  16
ENDBRANCH   5  11
BRANCH   1  22
ATOM     22  O   UNL     1       7.685   4.815  15.448  0.00  0.00    +0.000 OA
ATOM     23  H   UNL     1       7.730   3.850  15.342  0.00  0.00    +0.000 HD
ENDBRANCH   1  22
TORSDOF 3
ENDMDL
MODEL 8
REMARK VINA RESULT:      -8.0      1.882      2.967
REMARK  Name = 
REMARK  3 active torsions:
REMARK  status: ('A' for Active; 'I' for Inactive)
REMARK    1  A    between atoms: O_1  and  C_2
REMARK    2  A    between atoms: C_6  and  C_7
REMARK    3  A    between atoms: N_10  and  C_11
REMARK                            x       y       z     vdW  Elec       q    Type
REMARK                         _______ _______ _______ _____ _____    ______ ____
ROOT
ATOM      1  C   UNL     1       6.226   5.478  16.176  0.00  0.00    +0.000 A 
ATOM      2  C   UNL     1       5.582   6.702  16.162  0.00  0.00    +0.000 A 
ATOM      3  C   UNL     1       4.547   6.929  17.068  0.00  0.00    +0.000 A 
ATOM      4  C   UNL     1       4.164   5.954  18.029  0.00  0.00    +0.000 A 
ATOM      5  C   UNL     1       3.146   6.117  19.012  0.00  0.00    +0.000 A 
ATOM      6  C   UNL     1       2.860   5.052  19.877  0.00  0.00    +0.000 A 
ATOM      7  C   UNL     1       3.565   3.876  19.743  0.00  0.00    +0.000 A 
ATOM      8  N   UNL     1       4.536   3.693  18.832  0.00  0.00    +0.000 NA
ATOM      9  C   UNL     1       4.833   4.705  18.003  0.00  0.00    +0.000 A 
ATOM     10  C   UNL     1       5.844   4.492  17.079  0.00  0.00    +0.000 A 
ENDROOT
BRANCH   5  11
ATOM     11  C   UNL     1       2.369   7.346  19.168  0.00  0.00    +0.000 A 
ATOM     12  C   UNL     1       2.072   8.410  18.292  0.00  0.00    +0.000 A 
ATOM     13  N   UNL     1       1.284   9.336  18.841  0.00  0.00    +0.000 NA
ATOM     14  N   UNL     1       1.124   8.929  20.125  0.00  0.00    +0.000 N 
ATOM     15  C   UNL     1       1.749   7.720  20.343  0.00  0.00    +0.000 A 
BRANCH  14  16
ATOM     16  C   UNL     1       0.410   9.720  21.066  0.00  0.00    +0.000 A 
ATOM     17  C   UNL     1       0.077   9.176  22.315  0.00  0.00    +0.000 A 
ATOM     18  C   UNL     1      -0.640   9.936  23.243  0.00  0.00    +0.000 A 
ATOM     19  C   UNL     1      -1.033  11.235  22.926  0.00  0.00    +0.000 A 
ATOM     20  C   UNL     1      -0.707  11.780  21.686  0.00  0.00    +0.000 A 
ATOM     21  C   UNL     1       0.015  11.029  20.757  0.00  0.00    +0.000 A 
ENDBRANCH  14  16
ENDBRANCH   5  11
BRANCH   1  22
ATOM     22  O   UNL     1       7.239   5.200  15.311  0.00  0.00    +0.000 OA
ATOM     23  H   UNL     1       6.939   5.381  14.404  0.00  0.00    +0.000 HD
ENDBRANCH   1  22
TORSDOF 3
ENDMDL
MODEL 9
REMARK VINA RESULT:      -7.8      1.836      2.331
REMARK  Name = 
REMARK  3 active torsions:
REMARK  status: ('A' for Active; 'I' for Inactive)
REMARK    1  A    between atoms: O_1  and  C_2
REMARK    2  A    between atoms: C_6  and  C_7
REMARK    3  A    between atoms: N_10  and  C_11
REMARK                            x       y       z     vdW  Elec       q    Type
REMARK                         _______ _______ _______ _____ _____    ______ ____
ROOT
ATOM      1  C   UNL     1       2.983   2.425  18.280  0.00  0.00    +0.000 A 
ATOM      2  C   UNL     1       2.106   3.205  19.012  0.00  0.00    +0.000 A 
ATOM      3  C   UNL     1       2.218   4.593  18.938  0.00  0.00    +0.000 A 
ATOM      4  C   UNL     1       3.179   5.226  18.104  0.00  0.00    +0.000 A 
ATOM      5  C   UNL     1       3.337   6.632  17.941  0.00  0.00    +0.000 A 
ATOM      6  C   UNL     1       4.351   7.110  17.101  0.00  0.00    +0.000 A 
ATOM      7  C   UNL     1       5.173   6.205  16.467  0.00  0.00    +0.000 A 
ATOM      8  N   UNL     1       5.047   4.872  16.593  0.00  0.00    +0.000 NA
ATOM      9  C   UNL     1       4.073   4.395  17.383  0.00  0.00    +0.000 A 
ATOM     10  C   UNL     1       3.959   3.017  17.487  0.00  0.00    +0.000 A 
ENDROOT
BRANCH   5  11
ATOM     11  C   UNL     1       2.491   7.618  18.614  0.00  0.00    +0.000 A 
ATOM     12  C   UNL     1       1.994   7.716  19.929  0.00  0.00    +0.000 A 
ATOM     13  N   UNL     1       1.272   8.818  20.137  0.00  0.00    +0.000 NA
ATOM     14  N   UNL     1       1.215   9.420  18.922  0.00  0.00    +0.000 N 
ATOM     15  C   UNL     1       1.961   8.729  17.991  0.00  0.00    +0.000 A 
BRANCH  14  16
ATOM     16  C   UNL     1       0.443  10.596  18.716  0.00  0.00    +0.000 A 
ATOM     17  C   UNL     1       1.032  11.854  18.908  0.00  0.00    +0.000 A 
ATOM     18  C   UNL     1       0.280  13.016  18.726  0.00  0.00    +0.000 A 
ATOM     19  C   UNL     1      -1.062  12.930  18.359  0.00  0.00    +0.000 A 
ATOM     20  C   UNL     1      -1.654  11.684  18.168  0.00  0.00    +0.000 A 
ATOM     21  C   UNL     1      -0.906  10.517  18.343  0.00  0.00    +0.000 A 
ENDBRANCH  14  16
ENDBRANCH   5  11
BRANCH   1  22
ATOM     22  O   UNL     1       2.924   1.066  18.319  0.00  0.00    +0.000 OA
ATOM     23  H   UNL     1       3.552   0.704  17.672  0.00  0.00    +0.000 HD
ENDBRANCH   1  22
TORSDOF 3
ENDMDL
