MODEL 1
REMARK VINA RESULT:      -7.7      0.000      0.000
REMARK  Name = 
REMARK  8 active torsions:
REMARK  status: ('A' for Active; 'I' for Inactive)
REMARK    1  A    between atoms: S_2  and  N_4
REMARK    2  A    between atoms: S_2  and  C_24
REMARK    3  A    between atoms: N_4  and  C_5
REMARK    4  A    between atoms: C_5  and  C_6
REMARK    5  A    between atoms: C_6  and  N_7
REMARK    6  A    between atoms: N_11  and  C_12
REMARK    7  A    between atoms: C_12  and  C_13
REMARK    8  A    between atoms: C_13  and  C_14
REMARK                            x       y       z     vdW  Elec       q    Type
REMARK                         _______ _______ _______ _____ _____    ______ ____
ROOT
ATOM      1  N   UNL     1       2.269   3.564  19.924  0.00  0.00    +0.000 NA
ATOM      2  C   UNL     1       1.667   2.784  18.834  0.00  0.00    +0.000 C 
ATOM      3  C   UNL     1       2.741   2.161  17.901  0.00  0.00    +0.000 C 
ATOM      4  C   UNL     1       3.537   3.178  17.057  0.00  0.00    +0.000 C 
ATOM      5  N   UNL     1       4.618   3.946  17.708  0.00  0.00    +0.000 NA
ATOM      6  C   UNL     1       5.145   3.311  18.939  0.00  0.00    +0.000 C 
ATOM      7  C   UNL     1       4.319   2.187  19.612  0.00  0.00    +0.000 C 
ATOM      8  C   UNL     1       3.277   2.727  20.600  0.00  0.00    +0.000 C 
ATOM      9  O   UNL     1       3.670   1.347  18.645  0.00  0.00    +0.000 OA
ENDROOT
BRANCH   1  10
ATOM     10  C   UNL     1       1.289   4.207  20.816  0.00  0.00    +0.000 C 
BRANCH  10  11
ATOM     11  C   UNL     1       1.423   5.730  20.703  0.00  0.00    +0.000 C 
BRANCH  11  12
ATOM     12  N   UNL     1       2.705   6.241  20.207  0.00  0.00    +0.000 NA
ATOM     13  H   UNL     1       3.196   6.889  20.829  0.00  0.00    +0.000 HD
BRANCH  12  15
ATOM     14  O   UNL     1       3.935   7.114  18.158  0.00  0.00    +0.000 OA
ATOM     15  S   UNL     1       2.584   6.882  18.630  0.00  0.00    +0.000 S 
ATOM     16  O   UNL     1       1.628   6.089  17.882  0.00  0.00    +0.000 OA
BRANCH  15  17
ATOM     17  C   UNL     1       1.857   8.480  18.952  0.00  0.00    +0.000 A 
ATOM     18  C   UNL     1       1.988   9.477  17.979  0.00  0.00    +0.000 A 
ATOM     19  C   UNL     1       1.524  10.764  18.249  0.00  0.00    +0.000 A 
ATOM     20  C   UNL     1       0.929  11.037  19.477  0.00  0.00    +0.000 A 
ATOM     21  F   UNL     1       0.504  12.280  19.738  0.00  0.00    +0.000 F 
ATOM     22  C   UNL     1       0.781  10.045  20.443  0.00  0.00    +0.000 A 
ATOM     23  C   UNL     1       1.244   8.752  20.184  0.00  0.00    +0.000 A 
ENDBRANCH  15  17
ENDBRANCH  12  15
ENDBRANCH  11  12
ENDBRANCH  10  11
ENDBRANCH   1  10
BRANCH   5  24
ATOM     24  C   UNL     1       5.749   4.179  16.778  0.00  0.00    +0.000 C 
BRANCH  24  25
ATOM     25  C   UNL     1       5.503   5.217  15.673  0.00  0.00    +0.000 C 
BRANCH  25  26
ATOM     26  C   UNL     1       6.056   4.729  14.352  0.00  0.00    +0.000 A 
ATOM     27  C   UNL     1       7.280   5.215  13.867  0.00  0.00    +0.000 A 
ATOM     28  C   UNL     1       7.773   4.784  12.634  0.00  0.00    +0.000 A 
ATOM     29  C   UNL     1       7.045   3.871  11.873  0.00  0.00    +0.000 A 
ATOM     30  C   UNL     1       5.823   3.393  12.341  0.00  0.00    +0.000 A 
ATOM     31  C   UNL     1       5.329   3.821  13.574  0.00  0.00    +0.000 A 
ENDBRANCH  25  26
ENDBRANCH  24  25
ENDBRANCH   5  24
TORSDOF 8
ENDMDL
MODEL 2
REMARK VINA RESULT:      -7.6      1.989      2.322
REMARK  Name = 
REMARK  8 active torsions:
REMARK  status: ('A' for Active; 'I' for Inactive)
REMARK    1  A    between atoms: S_2  and  N_4
REMARK    2  A    between atoms: S_2  and  C_24
REMARK    3  A    between atoms: N_4  and  C_5
REMARK    4  A    between atoms: C_5  and  C_6
REMARK    5  A    between atoms: C_6  and  N_7
REMARK    6  A    between atoms: N_11  and  C_12
REMARK    7  A    between atoms: C_12  and  C_13
REMARK    8  A    between atoms: C_13  and  C_14
REMARK                            x       y       z     vdW  Elec       q    Type
REMARK                         _______ _______ _______ _____ _____    ______ ____
ROOT
ATOM      1  N   UNL     1       2.129   4.584  20.146  0.00  0.00    +0.000 NA
ATOM      2  C   UNL     1       1.101   3.778  19.474  0.00  0.00    +0.000 C 
ATOM      3  C   UNL     1       1.720   2.744  18.494  0.00  0.00    +0.000 C 
ATOM      4  C   UNL     1       2.398   3.354  17.250  0.00  0.00    +0.000 C 
ATOM      5  N   UNL     1       3.744   3.947  17.396  0.00  0.00    +0.000 NA
ATOM      6  C   UNL     1       4.489   3.453  18.578  0.00  0.00    +0.000 C 
ATOM      7  C   UNL     1       3.712   2.716  19.697  0.00  0.00    +0.000 C 
ATOM      8  C   UNL     1       3.125   3.674  20.742  0.00  0.00    +0.000 C 
ATOM      9  O   UNL     1       2.666   1.888  19.166  0.00  0.00    +0.000 OA
ENDROOT
BRANCH   1  10
ATOM     10  C   UNL     1       1.590   5.606  21.059  0.00  0.00    +0.000 C 
BRANCH  10  11
ATOM     11  C   UNL     1       1.535   6.956  20.334  0.00  0.00    +0.000 C 
BRANCH  11  12
ATOM     12  N   UNL     1       1.902   8.138  21.121  0.00  0.00    +0.000 NA
ATOM     13  H   UNL     1       2.603   7.987  21.852  0.00  0.00    +0.000 HD
BRANCH  12  15
ATOM     14  O   UNL     1      -0.587   8.046  21.643  0.00  0.00    +0.000 OA
ATOM     15  S   UNL     1       0.539   8.955  21.744  0.00  0.00    +0.000 S 
ATOM     16  O   UNL     1       0.912   9.588  22.993  0.00  0.00    +0.000 OA
BRANCH  15  17
ATOM     17  C   UNL     1       0.298  10.229  20.518  0.00  0.00    +0.000 A 
ATOM     18  C   UNL     1       0.859  11.490  20.752  0.00  0.00    +0.000 A 
ATOM     19  C   UNL     1       0.596  12.533  19.865  0.00  0.00    +0.000 A 
ATOM     20  C   UNL     1      -0.212  12.304  18.754  0.00  0.00    +0.000 A 
ATOM     21  F   UNL     1      -0.476  13.315  17.917  0.00  0.00    +0.000 F 
ATOM     22  C   UNL     1      -0.759  11.048  18.507  0.00  0.00    +0.000 A 
ATOM     23  C   UNL     1      -0.504   9.996  19.391  0.00  0.00    +0.000 A 
ENDBRANCH  15  17
ENDBRANCH  12  15
ENDBRANCH  11  12
ENDBRANCH  10  11
ENDBRANCH   1  10
BRANCH   5  24
ATOM     24  C   UNL     1       4.570   3.713  16.188  0.00  0.00    +0.000 C 
BRANCH  24  25
ATOM     25  C   UNL     1       5.681   4.741  15.929  0.00  0.00    +0.000 C 
BRANCH  25  26
ATOM     26  C   UNL     1       6.261   4.560  14.543  0.00  0.00    +0.000 A 
ATOM     27  C   UNL     1       7.347   5.339  14.116  0.00  0.00    +0.000 A 
ATOM     28  C   UNL     1       7.861   5.189  12.827  0.00  0.00    +0.000 A 
ATOM     29  C   UNL     1       7.290   4.266  11.952  0.00  0.00    +0.000 A 
ATOM     30  C   UNL     1       6.202   3.498  12.363  0.00  0.00    +0.000 A 
ATOM     31  C   UNL     1       5.688   3.646  13.652  0.00  0.00    +0.000 A 
ENDBRANCH  25  26
ENDBRANCH  24  25
ENDBRANCH   5  24
TORSDOF 8
ENDMDL
MODEL 3
REMARK VINA RESULT:      -7.6      3.231      8.528
REMARK  Name = 
REMARK  8 active torsions:
REMARK  status: ('A' for Active; 'I' for Inactive)
REMARK    1  A    between atoms: S_2  and  N_4
REMARK    2  A    between atoms: S_2  and  C_24
REMARK    3  A    between atoms: N_4  and  C_5
REMARK    4  A    between atoms: C_5  and  C_6
REMARK    5  A    between atoms: C_6  and  N_7
REMARK    6  A    between atoms: N_11  and  C_12
REMARK    7  A    between atoms: C_12  and  C_13
REMARK    8  A    between atoms: C_13  and  C_14
REMARK                            x       y       z     vdW  Elec       q    Type
REMARK                         _______ _______ _______ _____ _____    ______ ____
ROOT
ATOM      1  N   UNL     1       4.077   4.437  19.276  0.00  0.00    +0.000 NA
ATOM      2  C   UNL     1       3.123   3.767  20.172  0.00  0.00    +0.000 C 
ATOM      3  C   UNL     1       1.730   4.453  20.155  0.00  0.00    +0.000 C 
ATOM      4  C   UNL     1       1.692   5.864  20.777  0.00  0.00    +0.000 C 
ATOM      5  N   UNL     1       2.205   7.001  19.984  0.00  0.00    +0.000 NA
ATOM      6  C   UNL     1       2.231   6.747  18.524  0.00  0.00    +0.000 C 
ATOM      7  C   UNL     1       2.106   5.289  18.016  0.00  0.00    +0.000 C 
ATOM      8  C   UNL     1       3.458   4.568  17.944  0.00  0.00    +0.000 C 
ATOM      9  O   UNL     1       1.196   4.520  18.817  0.00  0.00    +0.000 OA
ENDROOT
BRANCH   1  10
ATOM     10  C   UNL     1       5.426   3.846  19.284  0.00  0.00    +0.000 C 
BRANCH  10  11
ATOM     11  C   UNL     1       6.449   4.912  18.876  0.00  0.00    +0.000 C 
BRANCH  11  12
ATOM     12  N   UNL     1       7.095   4.736  17.571  0.00  0.00    +0.000 NA
ATOM     13  H   UNL     1       8.099   4.534  17.595  0.00  0.00    +0.000 HD
BRANCH  12  15
ATOM     14  O   UNL     1       5.466   6.562  16.874  0.00  0.00    +0.000 OA
ATOM     15  S   UNL     1       6.758   6.020  16.499  0.00  0.00    +0.000 S 
ATOM     16  O   UNL     1       7.941   6.849  16.386  0.00  0.00    +0.000 OA
BRANCH  15  17
ATOM     17  C   UNL     1       6.535   5.147  14.959  0.00  0.00    +0.000 A 
ATOM     18  C   UNL     1       5.429   4.299  14.830  0.00  0.00    +0.000 A 
ATOM     19  C   UNL     1       5.289   3.524  13.680  0.00  0.00    +0.000 A 
ATOM     20  C   UNL     1       6.245   3.610  12.671  0.00  0.00    +0.000 A 
ATOM     21  F   UNL     1       6.115   2.848  11.579  0.00  0.00    +0.000 F 
ATOM     22  C   UNL     1       7.339   4.464  12.787  0.00  0.00    +0.000 A 
ATOM     23  C   UNL     1       7.489   5.245  13.936  0.00  0.00    +0.000 A 
ENDBRANCH  15  17
ENDBRANCH  12  15
ENDBRANCH  11  12
ENDBRANCH  10  11
ENDBRANCH   1  10
BRANCH   5  24
ATOM     24  C   UNL     1       1.417   8.231  20.233  0.00  0.00    +0.000 C 
BRANCH  24  25
ATOM     25  C   UNL     1       1.179   8.585  21.709  0.00  0.00    +0.000 C 
BRANCH  25  26
ATOM     26  C   UNL     1       0.252   9.775  21.828  0.00  0.00    +0.000 A 
ATOM     27  C   UNL     1      -0.465  10.006  23.012  0.00  0.00    +0.000 A 
ATOM     28  C   UNL     1      -1.340  11.089  23.107  0.00  0.00    +0.000 A 
ATOM     29  C   UNL     1      -1.513  11.944  22.020  0.00  0.00    +0.000 A 
ATOM     30  C   UNL     1      -0.817  11.713  20.835  0.00  0.00    +0.000 A 
ATOM     31  C   UNL     1       0.061  10.632  20.738  0.00  0.00    +0.000 A 
ENDBRANCH  25  26
ENDBRANCH  24  25
ENDBRANCH   5  24
TORSDOF 8
ENDMDL
MODEL 4
REMARK VINA RESULT:      -7.6      2.706      3.618
REMARK  Name = 
REMARK  8 active torsions:
REMARK  status: ('A' for Active; 'I' for Inactive)
REMARK    1  A    between atoms: S_2  and  N_4
REMARK    2  A    between atoms: S_2  and  C_24
REMARK    3  A    between atoms: N_4  and  C_5
REMARK    4  A    between atoms: C_5  and  C_6
REMARK    5  A    between atoms: C_6  and  N_7
REMARK    6  A    between atoms: N_11  and  C_12
REMARK    7  A    between atoms: C_12  and  C_13
REMARK    8  A    between atoms: C_13  and  C_14
REMARK                            x       y       z     vdW  Elec       q    Type
REMARK                         _______ _______ _______ _____ _____    ______ ____
ROOT
ATOM      1  N   UNL     1       1.986   5.397  20.156  0.00  0.00    +0.000 NA
ATOM      2  C   UNL     1       0.925   4.711  19.406  0.00  0.00    +0.000 C 
ATOM      3  C   UNL     1       1.431   3.395  18.753  0.00  0.00    +0.000 C 
ATOM      4  C   UNL     1       2.447   3.587  17.608  0.00  0.00    +0.000 C 
ATOM      5  N   UNL     1       3.850   3.897  17.952  0.00  0.00    +0.000 NA
ATOM      6  C   UNL     1       4.229   3.502  19.329  0.00  0.00    +0.000 C 
ATOM      7  C   UNL     1       3.110   3.184  20.351  0.00  0.00    +0.000 C 
ATOM      8  C   UNL     1       2.605   4.433  21.085  0.00  0.00    +0.000 C 
ATOM      9  O   UNL     1       2.001   2.509  19.737  0.00  0.00    +0.000 OA
ENDROOT
BRANCH   1  10
ATOM     10  C   UNL     1       1.566   6.671  20.763  0.00  0.00    +0.000 C 
BRANCH  10  11
ATOM     11  C   UNL     1       1.895   7.823  19.806  0.00  0.00    +0.000 C 
BRANCH  11  12
ATOM     12  N   UNL     1       1.131   9.062  19.984  0.00  0.00    +0.000 NA
ATOM     13  H   UNL     1       0.179   8.951  20.344  0.00  0.00    +0.000 HD
BRANCH  12  15
ATOM     14  O   UNL     1       1.815  11.278  18.935  0.00  0.00    +0.000 OA
ATOM     15  S   UNL     1       1.143  10.040  18.585  0.00  0.00    +0.000 S 
ATOM     16  O   UNL     1       1.555   9.228  17.458  0.00  0.00    +0.000 OA
BRANCH  15  17
ATOM     17  C   UNL     1      -0.591  10.417  18.402  0.00  0.00    +0.000 A 
ATOM     18  C   UNL     1      -1.314   9.748  17.408  0.00  0.00    +0.000 A 
ATOM     19  C   UNL     1      -2.643  10.100  17.171  0.00  0.00    +0.000 A 
ATOM     20  C   UNL     1      -3.234  11.105  17.932  0.00  0.00    +0.000 A 
ATOM     21  F   UNL     1      -4.504  11.452  17.686  0.00  0.00    +0.000 F 
ATOM     22  C   UNL     1      -2.524  11.763  18.933  0.00  0.00    +0.000 A 
ATOM     23  C   UNL     1      -1.192  11.419  19.178  0.00  0.00    +0.000 A 
ENDBRANCH  15  17
ENDBRANCH  12  15
ENDBRANCH  11  12
ENDBRANCH  10  11
ENDBRANCH   1  10
BRANCH   5  24
ATOM     24  C   UNL     1       4.792   3.258  17.003  0.00  0.00    +0.000 C 
BRANCH  24  25
ATOM     25  C   UNL     1       5.587   4.215  16.102  0.00  0.00    +0.000 C 
BRANCH  25  26
ATOM     26  C   UNL     1       6.395   5.184  16.937  0.00  0.00    +0.000 A 
ATOM     27  C   UNL     1       6.325   6.565  16.698  0.00  0.00    +0.000 A 
ATOM     28  C   UNL     1       7.094   7.453  17.452  0.00  0.00    +0.000 A 
ATOM     29  C   UNL     1       7.945   6.969  18.444  0.00  0.00    +0.000 A 
ATOM     30  C   UNL     1       8.033   5.598  18.679  0.00  0.00    +0.000 A 
ATOM     31  C   UNL     1       7.263   4.709  17.928  0.00  0.00    +0.000 A 
ENDBRANCH  25  26
ENDBRANCH  24  25
ENDBRANCH   5  24
TORSDOF 8
ENDMDL
MODEL 5
REMARK VINA RESULT:      -7.6      3.253      8.523
REMARK  Name = 
REMARK  8 active torsions:
REMARK  status: ('A' for Active; 'I' for Inactive)
REMARK    1  A    between atoms: S_2  and  N_4
REMARK    2  A    between atoms: S_2  and  C_24
REMARK    3  A    between atoms: N_4  and  C_5
REMARK    4  A    between atoms: C_5  and  C_6
REMARK    5  A    between atoms: C_6  and  N_7
REMARK    6  A    between atoms: N_11  and  C_12
REMARK    7  A    between atoms: C_12  and  C_13
REMARK    8  A    between atoms: C_13  and  C_14
REMARK                            x       y       z     vdW  Elec       q    Type
REMARK                         _______ _______ _______ _____ _____    ______ ____
ROOT
ATOM      1  N   UNL     1       3.996   4.132  19.064  0.00  0.00    +0.000 NA
ATOM      2  C   UNL     1       3.113   3.516  20.064  0.00  0.00    +0.000 C 
ATOM      3  C   UNL     1       1.751   4.254  20.172  0.00  0.00    +0.000 C 
ATOM      4  C   UNL     1       1.828   5.677  20.763  0.00  0.00    +0.000 C 
ATOM      5  N   UNL     1       2.301   6.779  19.899  0.00  0.00    +0.000 NA
ATOM      6  C   UNL     1       2.171   6.498  18.449  0.00  0.00    +0.000 C 
ATOM      7  C   UNL     1       1.941   5.037  17.988  0.00  0.00    +0.000 C 
ATOM      8  C   UNL     1       3.252   4.263  17.797  0.00  0.00    +0.000 C 
ATOM      9  O   UNL     1       1.089   4.318  18.893  0.00  0.00    +0.000 OA
ENDROOT
BRANCH   1  10
ATOM     10  C   UNL     1       5.317   3.490  18.950  0.00  0.00    +0.000 C 
BRANCH  10  11
ATOM     11  C   UNL     1       6.374   4.555  18.638  0.00  0.00    +0.000 C 
BRANCH  11  12
ATOM     12  N   UNL     1       7.063   4.437  17.349  0.00  0.00    +0.000 NA
ATOM     13  H   UNL     1       8.072   4.270  17.397  0.00  0.00    +0.000 HD
BRANCH  12  15
ATOM     14  O   UNL     1       5.321   6.094  16.515  0.00  0.00    +0.000 OA
ATOM     15  S   UNL     1       6.711   5.738  16.301  0.00  0.00    +0.000 S 
ATOM     16  O   UNL     1       7.782   6.709  16.396  0.00  0.00    +0.000 OA
BRANCH  15  17
ATOM     17  C   UNL     1       6.811   4.945  14.706  0.00  0.00    +0.000 A 
ATOM     18  C   UNL     1       7.714   5.455  13.767  0.00  0.00    +0.000 A 
ATOM     19  C   UNL     1       7.737   4.924  12.477  0.00  0.00    +0.000 A 
ATOM     20  C   UNL     1       6.868   3.888  12.145  0.00  0.00    +0.000 A 
ATOM     21  F   UNL     1       6.881   3.397  10.900  0.00  0.00    +0.000 F 
ATOM     22  C   UNL     1       5.979   3.365  13.080  0.00  0.00    +0.000 A 
ATOM     23  C   UNL     1       5.947   3.891  14.374  0.00  0.00    +0.000 A 
ENDBRANCH  15  17
ENDBRANCH  12  15
ENDBRANCH  11  12
ENDBRANCH  10  11
ENDBRANCH   1  10
BRANCH   5  24
ATOM     24  C   UNL     1       1.588   8.042  20.199  0.00  0.00    +0.000 C 
BRANCH  24  25
ATOM     25  C   UNL     1       0.477   7.949  21.256  0.00  0.00    +0.000 C 
BRANCH  25  26
ATOM     26  C   UNL     1      -0.114   9.315  21.529  0.00  0.00    +0.000 A 
ATOM     27  C   UNL     1      -0.232  10.261  20.499  0.00  0.00    +0.000 A 
ATOM     28  C   UNL     1      -0.751  11.530  20.762  0.00  0.00    +0.000 A 
ATOM     29  C   UNL     1      -1.148  11.867  22.054  0.00  0.00    +0.000 A 
ATOM     30  C   UNL     1      -1.022  10.939  23.086  0.00  0.00    +0.000 A 
ATOM     31  C   UNL     1      -0.505   9.669  22.826  0.00  0.00    +0.000 A 
ENDBRANCH  25  26
ENDBRANCH  24  25
ENDBRANCH   5  24
TORSDOF 8
ENDMDL
MODEL 6
REMARK VINA RESULT:      -7.6      2.368      3.421
REMARK  Name = 
REMARK  8 active torsions:
REMARK  status: ('A' for Active; 'I' for Inactive)
REMARK    1  A    between atoms: S_2  and  N_4
REMARK    2  A    between atoms: S_2  and  C_24
REMARK    3  A    between atoms: N_4  and  C_5
REMARK    4  A    between atoms: C_5  and  C_6
REMARK    5  A    between atoms: C_6  and  N_7
REMARK    6  A    between atoms: N_11  and  C_12
REMARK    7  A    between atoms: C_12  and  C_13
REMARK    8  A    between atoms: C_13  and  C_14
REMARK                            x       y       z     vdW  Elec       q    Type
REMARK                         _______ _______ _______ _____ _____    ______ ____
ROOT
ATOM      1  N   UNL     1       2.247   4.527  20.246  0.00  0.00    +0.000 NA
ATOM      2  C   UNL     1       1.146   4.160  19.344  0.00  0.00    +0.000 C 
ATOM      3  C   UNL     1       1.586   3.111  18.285  0.00  0.00    +0.000 C 
ATOM      4  C   UNL     1       2.592   3.629  17.237  0.00  0.00    +0.000 C 
ATOM      5  N   UNL     1       4.012   3.761  17.623  0.00  0.00    +0.000 NA
ATOM      6  C   UNL     1       4.394   2.925  18.786  0.00  0.00    +0.000 C 
ATOM      7  C   UNL     1       3.278   2.332  19.681  0.00  0.00    +0.000 C 
ATOM      8  C   UNL     1       2.837   3.292  20.794  0.00  0.00    +0.000 C 
ATOM      9  O   UNL     1       2.132   1.933  18.913  0.00  0.00    +0.000 OA
ENDROOT
BRANCH   1  10
ATOM     10  C   UNL     1       1.890   5.548  21.245  0.00  0.00    +0.000 C 
BRANCH  10  11
ATOM     11  C   UNL     1       1.405   6.813  20.528  0.00  0.00    +0.000 C 
BRANCH  11  12
ATOM     12  N   UNL     1       1.816   8.096  21.109  0.00  0.00    +0.000 NA
ATOM     13  H   UNL     1       2.624   8.061  21.737  0.00  0.00    +0.000 HD
BRANCH  12  15
ATOM     14  O   UNL     1      -0.640   8.051  21.776  0.00  0.00    +0.000 OA
ATOM     15  S   UNL     1       0.514   8.928  21.834  0.00  0.00    +0.000 S 
ATOM     16  O   UNL     1       0.978   9.515  23.076  0.00  0.00    +0.000 OA
BRANCH  15  17
ATOM     17  C   UNL     1       0.236  10.243  20.661  0.00  0.00    +0.000 A 
ATOM     18  C   UNL     1      -0.849  11.101  20.870  0.00  0.00    +0.000 A 
ATOM     19  C   UNL     1      -1.153  12.069  19.913  0.00  0.00    +0.000 A 
ATOM     20  C   UNL     1      -0.369  12.175  18.768  0.00  0.00    +0.000 A 
ATOM     21  F   UNL     1      -0.678  13.092  17.844  0.00  0.00    +0.000 F 
ATOM     22  C   UNL     1       0.723  11.334  18.562  0.00  0.00    +0.000 A 
ATOM     23  C   UNL     1       1.035  10.360  19.514  0.00  0.00    +0.000 A 
ENDBRANCH  15  17
ENDBRANCH  12  15
ENDBRANCH  11  12
ENDBRANCH  10  11
ENDBRANCH   1  10
BRANCH   5  24
ATOM     24  C   UNL     1       4.911   3.432  16.492  0.00  0.00    +0.000 C 
BRANCH  24  25
ATOM     25  C   UNL     1       5.559   4.630  15.783  0.00  0.00    +0.000 C 
BRANCH  25  26
ATOM     26  C   UNL     1       6.433   5.408  16.742  0.00  0.00    +0.000 A 
ATOM     27  C   UNL     1       7.239   4.739  17.676  0.00  0.00    +0.000 A 
ATOM     28  C   UNL     1       8.022   5.461  18.579  0.00  0.00    +0.000 A 
ATOM     29  C   UNL     1       8.000   6.854  18.562  0.00  0.00    +0.000 A 
ATOM     30  C   UNL     1       7.192   7.527  17.647  0.00  0.00    +0.000 A 
ATOM     31  C   UNL     1       6.410   6.808  16.743  0.00  0.00    +0.000 A 
ENDBRANCH  25  26
ENDBRANCH  24  25
ENDBRANCH   5  24
TORSDOF 8
ENDMDL
MODEL 7
REMARK VINA RESULT:      -7.6      5.262      7.453
REMARK  Name = 
REMARK  8 active torsions:
REMARK  status: ('A' for Active; 'I' for Inactive)
REMARK    1  A    between atoms: S_2  and  N_4
REMARK    2  A    between atoms: S_2  and  C_24
REMARK    3  A    between atoms: N_4  and  C_5
REMARK    4  A    between atoms: C_5  and  C_6
REMARK    5  A    between atoms: C_6  and  N_7
REMARK    6  A    between atoms: N_11  and  C_12
REMARK    7  A    between atoms: C_12  and  C_13
REMARK    8  A    between atoms: C_13  and  C_14
REMARK                            x       y       z     vdW  Elec       q    Type
REMARK                         _______ _______ _______ _____ _____    ______ ____
ROOT
ATOM      1  N   UNL     1       6.980   6.505  17.545  0.00  0.00    +0.000 NA
ATOM      2  C   UNL     1       7.505   5.961  16.285  0.00  0.00    +0.000 C 
ATOM      3  C   UNL     1       6.390   5.311  15.421  0.00  0.00    +0.000 C 
ATOM      4  C   UNL     1       5.786   4.018  16.007  0.00  0.00    +0.000 C 
ATOM      5  N   UNL     1       4.802   4.130  17.104  0.00  0.00    +0.000 NA
ATOM      6  C   UNL     1       4.140   5.454  17.179  0.00  0.00    +0.000 C 
ATOM      7  C   UNL     1       4.765   6.647  16.416  0.00  0.00    +0.000 C 
ATOM      8  C   UNL     1       5.834   7.381  17.237  0.00  0.00    +0.000 C 
ATOM      9  O   UNL     1       5.323   6.244  15.156  0.00  0.00    +0.000 OA
ENDROOT
BRANCH   1  10
ATOM     10  C   UNL     1       8.006   7.100  18.417  0.00  0.00    +0.000 C 
BRANCH  10  11
ATOM     11  C   UNL     1       8.199   8.574  18.042  0.00  0.00    +0.000 C 
BRANCH  11  12
ATOM     12  N   UNL     1       8.980   9.392  18.976  0.00  0.00    +0.000 NA
ATOM     13  H   UNL     1       8.619   9.442  19.933  0.00  0.00    +0.000 HD
BRANCH  12  15
ATOM     14  O   UNL     1      10.646  10.930  17.821  0.00  0.00    +0.000 OA
ATOM     15  S   UNL     1       9.301  10.952  18.364  0.00  0.00    +0.000 S 
ATOM     16  O   UNL     1       8.158  11.385  17.584  0.00  0.00    +0.000 OA
BRANCH  15  17
ATOM     17  C   UNL     1       9.355  11.918  19.863  0.00  0.00    +0.000 A 
ATOM     18  C   UNL     1       9.083  11.276  21.077  0.00  0.00    +0.000 A 
ATOM     19  C   UNL     1       9.012  12.026  22.250  0.00  0.00    +0.000 A 
ATOM     20  C   UNL     1       9.222  13.402  22.200  0.00  0.00    +0.000 A 
ATOM     21  F   UNL     1       9.133  14.120  23.326  0.00  0.00    +0.000 F 
ATOM     22  C   UNL     1       9.509  14.044  20.997  0.00  0.00    +0.000 A 
ATOM     23  C   UNL     1       9.580  13.301  19.816  0.00  0.00    +0.000 A 
ENDBRANCH  15  17
ENDBRANCH  12  15
ENDBRANCH  11  12
ENDBRANCH  10  11
ENDBRANCH   1  10
BRANCH   5  24
ATOM     24  C   UNL     1       3.756   3.086  16.998  0.00  0.00    +0.000 C 
BRANCH  24  25
ATOM     25  C   UNL     1       3.762   2.019  18.104  0.00  0.00    +0.000 C 
BRANCH  25  26
ATOM     26  C   UNL     1       2.887   2.448  19.261  0.00  0.00    +0.000 A 
ATOM     27  C   UNL     1       3.375   2.413  20.577  0.00  0.00    +0.000 A 
ATOM     28  C   UNL     1       2.556   2.783  21.644  0.00  0.00    +0.000 A 
ATOM     29  C   UNL     1       1.241   3.181  21.409  0.00  0.00    +0.000 A 
ATOM     30  C   UNL     1       0.743   3.205  20.108  0.00  0.00    +0.000 A 
ATOM     31  C   UNL     1       1.561   2.838  19.038  0.00  0.00    +0.000 A 
ENDBRANCH  25  26
ENDBRANCH  24  25
ENDBRANCH   5  24
TORSDOF 8
ENDMDL
MODEL 8
REMARK VINA RESULT:      -7.5      4.152      5.687
REMARK  Name = 
REMARK  8 active torsions:
REMARK  status: ('A' for Active; 'I' for Inactive)
REMARK    1  A    between atoms: S_2  and  N_4
REMARK    2  A    between atoms: S_2  and  C_24
REMARK    3  A    between atoms: N_4  and  C_5
REMARK    4  A    between atoms: C_5  and  C_6
REMARK    5  A    between atoms: C_6  and  N_7
REMARK    6  A    between atoms: N_11  and  C_12
REMARK    7  A    between atoms: C_12  and  C_13
REMARK    8  A    between atoms: C_13  and  C_14
REMARK                            x       y       z     vdW  Elec       q    Type
REMARK                         _______ _______ _______ _____ _____    ______ ____
ROOT
ATOM      1  N   UNL     1       5.082   4.377  16.917  0.00  0.00    +0.000 NA
ATOM      2  C   UNL     1       5.966   4.153  15.765  0.00  0.00    +0.000 C 
ATOM      3  C   UNL     1       7.343   4.849  15.943  0.00  0.00    +0.000 C 
ATOM      4  C   UNL     1       7.300   6.391  15.917  0.00  0.00    +0.000 C 
ATOM      5  N   UNL     1       6.838   7.107  17.124  0.00  0.00    +0.000 NA
ATOM      6  C   UNL     1       6.944   6.310  18.368  0.00  0.00    +0.000 C 
ATOM      7  C   UNL     1       7.140   4.777  18.260  0.00  0.00    +0.000 C 
ATOM      8  C   UNL     1       5.813   4.016  18.146  0.00  0.00    +0.000 C 
ATOM      9  O   UNL     1       7.991   4.423  17.159  0.00  0.00    +0.000 OA
ENDROOT
BRANCH   1  10
ATOM     10  C   UNL     1       3.749   3.767  16.780  0.00  0.00    +0.000 C 
BRANCH  10  11
ATOM     11  C   UNL     1       3.294   3.230  18.141  0.00  0.00    +0.000 C 
BRANCH  11  12
ATOM     12  N   UNL     1       1.979   3.675  18.616  0.00  0.00    +0.000 NA
ATOM     13  H   UNL     1       1.427   4.223  17.950  0.00  0.00    +0.000 HD
BRANCH  12  15
ATOM     14  O   UNL     1       0.813   4.209  20.814  0.00  0.00    +0.000 OA
ATOM     15  S   UNL     1       2.066   4.462  20.128  0.00  0.00    +0.000 S 
ATOM     16  O   UNL     1       3.351   4.165  20.730  0.00  0.00    +0.000 OA
BRANCH  15  17
ATOM     17  C   UNL     1       2.060   6.177  19.636  0.00  0.00    +0.000 A 
ATOM     18  C   UNL     1       1.682   7.138  20.581  0.00  0.00    +0.000 A 
ATOM     19  C   UNL     1       1.564   8.472  20.194  0.00  0.00    +0.000 A 
ATOM     20  C   UNL     1       1.834   8.832  18.877  0.00  0.00    +0.000 A 
ATOM     21  F   UNL     1       1.700  10.112  18.506  0.00  0.00    +0.000 F 
ATOM     22  C   UNL     1       2.227   7.883  17.936  0.00  0.00    +0.000 A 
ATOM     23  C   UNL     1       2.346   6.543  18.313  0.00  0.00    +0.000 A 
ENDBRANCH  15  17
ENDBRANCH  12  15
ENDBRANCH  11  12
ENDBRANCH  10  11
ENDBRANCH   1  10
BRANCH   5  24
ATOM     24  C   UNL     1       7.579   8.376  17.314  0.00  0.00    +0.000 C 
BRANCH  24  25
ATOM     25  C   UNL     1       8.464   8.453  18.567  0.00  0.00    +0.000 C 
BRANCH  25  26
ATOM     26  C   UNL     1       8.941   9.870  18.796  0.00  0.00    +0.000 A 
ATOM     27  C   UNL     1       9.476  10.252  20.036  0.00  0.00    +0.000 A 
ATOM     28  C   UNL     1       9.888  11.568  20.252  0.00  0.00    +0.000 A 
ATOM     29  C   UNL     1       9.763  12.514  19.236  0.00  0.00    +0.000 A 
ATOM     30  C   UNL     1       9.221  12.147  18.006  0.00  0.00    +0.000 A 
ATOM     31  C   UNL     1       8.809  10.831  17.787  0.00  0.00    +0.000 A 
ENDBRANCH  25  26
ENDBRANCH  24  25
ENDBRANCH   5  24
TORSDOF 8
ENDMDL
MODEL 9
REMARK VINA RESULT:      -7.5      2.707      3.761
REMARK  Name = 
REMARK  8 active torsions:
REMARK  status: ('A' for Active; 'I' for Inactive)
REMARK    1  A    between atoms: S_2  and  N_4
REMARK    2  A    between atoms: S_2  and  C_24
REMARK    3  A    between atoms: N_4  and  C_5
REMARK    4  A    between atoms: C_5  and  C_6
REMARK    5  A    between atoms: C_6  and  N_7
REMARK    6  A    between atoms: N_11  and  C_12
REMARK    7  A    between atoms: C_12  and  C_13
REMARK    8  A    between atoms: C_13  and  C_14
REMARK                            x       y       z     vdW  Elec       q    Type
REMARK                         _______ _______ _______ _____ _____    ______ ____
ROOT
ATOM      1  N   UNL     1       2.451   6.083  19.144  0.00  0.00    +0.000 NA
ATOM      2  C   UNL     1       1.449   5.465  18.263  0.00  0.00    +0.000 C 
ATOM      3  C   UNL     1       1.878   4.046  17.800  0.00  0.00    +0.000 C 
ATOM      4  C   UNL     1       3.090   4.012  16.845  0.00  0.00    +0.000 C 
ATOM      5  N   UNL     1       4.443   4.182  17.413  0.00  0.00    +0.000 NA
ATOM      6  C   UNL     1       4.528   3.867  18.859  0.00  0.00    +0.000 C 
ATOM      7  C   UNL     1       3.220   3.777  19.683  0.00  0.00    +0.000 C 
ATOM      8  C   UNL     1       2.769   5.138  20.230  0.00  0.00    +0.000 C 
ATOM      9  O   UNL     1       2.150   3.188  18.927  0.00  0.00    +0.000 OA
ENDROOT
BRANCH   1  10
ATOM     10  C   UNL     1       2.107   7.447  19.581  0.00  0.00    +0.000 C 
BRANCH  10  11
ATOM     11  C   UNL     1       1.554   7.398  21.009  0.00  0.00    +0.000 C 
BRANCH  11  12
ATOM     12  N   UNL     1       1.642   8.637  21.790  0.00  0.00    +0.000 NA
ATOM     13  H   UNL     1       2.263   8.608  22.603  0.00  0.00    +0.000 HD
BRANCH  12  15
ATOM     14  O   UNL     1      -0.858   8.193  21.962  0.00  0.00    +0.000 OA
ATOM     15  S   UNL     1       0.106   9.246  22.218  0.00  0.00    +0.000 S 
ATOM     16  O   UNL     1       0.213   9.901  23.506  0.00  0.00    +0.000 OA
BRANCH  15  17
ATOM     17  C   UNL     1      -0.139  10.498  20.970  0.00  0.00    +0.000 A 
ATOM     18  C   UNL     1      -0.617  10.102  19.716  0.00  0.00    +0.000 A 
ATOM     19  C   UNL     1      -0.715  11.041  18.691  0.00  0.00    +0.000 A 
ATOM     20  C   UNL     1      -0.346  12.362  18.930  0.00  0.00    +0.000 A 
ATOM     21  F   UNL     1      -0.424  13.255  17.936  0.00  0.00    +0.000 F 
ATOM     22  C   UNL     1       0.115  12.766  20.181  0.00  0.00    +0.000 A 
ATOM     23  C   UNL     1       0.218  11.832  21.215  0.00  0.00    +0.000 A 
ENDBRANCH  15  17
ENDBRANCH  12  15
ENDBRANCH  11  12
ENDBRANCH  10  11
ENDBRANCH   1  10
BRANCH   5  24
ATOM     24  C   UNL     1       5.437   3.353  16.692  0.00  0.00    +0.000 C 
BRANCH  24  25
ATOM     25  C   UNL     1       6.577   4.121  16.006  0.00  0.00    +0.000 C 
BRANCH  25  26
ATOM     26  C   UNL     1       7.136   5.182  16.929  0.00  0.00    +0.000 A 
ATOM     27  C   UNL     1       7.689   4.829  18.170  0.00  0.00    +0.000 A 
ATOM     28  C   UNL     1       8.177   5.813  19.031  0.00  0.00    +0.000 A 
ATOM     29  C   UNL     1       8.109   7.156  18.665  0.00  0.00    +0.000 A 
ATOM     30  C   UNL     1       7.549   7.517  17.441  0.00  0.00    +0.000 A 
ATOM     31  C   UNL     1       7.062   6.535  16.578  0.00  0.00    +0.000 A 
ENDBRANCH  25  26
ENDBRANCH  24  25
ENDBRANCH   5  24
TORSDOF 8
ENDMDL
