MODEL 1
REMARK VINA RESULT:      -6.8      0.000      0.000
REMARK  Name = 
REMARK  6 active torsions:
REMARK  status: ('A' for Active; 'I' for Inactive)
REMARK    1  A    between atoms: C_2  and  O_3
REMARK    2  A    between atoms: C_2  and  C_4
REMARK    3  A    between atoms: C_4  and  C_5
REMARK    4  A    between atoms: C_4  and  C_7
REMARK    5  A    between atoms: C_5  and  S_6
REMARK    6  A    between atoms: C_7  and  C_8
REMARK                            x       y       z     vdW  Elec       q    Type
REMARK                         _______ _______ _______ _____ _____    ______ ____
ROOT
ATOM      1  C   UNL     1       3.288   5.604  18.030  0.00  0.00    +0.000 A 
ATOM      2  C   UNL     1       3.206   6.917  18.532  0.00  0.00    +0.000 A 
ATOM      3  C   UNL     1       2.416   7.207  19.640  0.00  0.00    +0.000 A 
ATOM      4  C   UNL     1       1.699   6.189  20.261  0.00  0.00    +0.000 A 
ATOM      5  C   UNL     1       1.720   4.881  19.761  0.00  0.00    +0.000 A 
ATOM      6  C   UNL     1       0.993   3.870  20.413  0.00  0.00    +0.000 A 
ATOM      7  C   UNL     1       0.975   2.566  19.924  0.00  0.00    +0.000 A 
ATOM      8  C   UNL     1       1.660   2.262  18.758  0.00  0.00    +0.000 A 
ATOM      9  C   UNL     1       2.401   3.252  18.108  0.00  0.00    +0.000 A 
ATOM     10  C   UNL     1       2.483   4.572  18.604  0.00  0.00    +0.000 A 
ENDROOT
BRANCH   1  11
ATOM     11  C   UNL     1       4.317   5.322  16.946  0.00  0.00    +0.000 C 
BRANCH  11  12
ATOM     12  C   UNL     1       5.792   5.407  17.401  0.00  0.00    +0.000 C 
BRANCH  12  14
ATOM     13  O   UNL     1       6.525   5.378  19.723  0.00  0.00    +0.000 OA
ATOM     14  C   UNL     1       6.113   4.761  18.748  0.00  0.00    +0.000 C 
BRANCH  14  15
ATOM     15  O   UNL     1       5.817   3.450  18.856  0.00  0.00    +0.000 OA
ATOM     16  H   UNL     1       6.371   2.832  18.346  0.00  0.00    +0.000 HD
ENDBRANCH  14  15
ENDBRANCH  12  14
BRANCH  12  17
ATOM     17  C   UNL     1       6.722   4.821  16.311  0.00  0.00    +0.000 C 
BRANCH  17  18
ATOM     18  S   UNL     1       5.890   4.294  14.770  0.00  0.00    +0.000 S 
ATOM     19  H   UNL     1       6.574   5.131  13.961  0.00  0.00    +0.000 HD
ENDBRANCH  17  18
ENDBRANCH  12  17
ENDBRANCH  11  12
ENDBRANCH   1  11
TORSDOF 6
ENDMDL
MODEL 2
REMARK VINA RESULT:      -6.8      1.567      1.788
REMARK  Name = 
REMARK  6 active torsions:
REMARK  status: ('A' for Active; 'I' for Inactive)
REMARK    1  A    between atoms: C_2  and  O_3
REMARK    2  A    between atoms: C_2  and  C_4
REMARK    3  A    between atoms: C_4  and  C_5
REMARK    4  A    between atoms: C_4  and  C_7
REMARK    5  A    between atoms: C_5  and  S_6
REMARK    6  A    between atoms: C_7  and  C_8
REMARK                            x       y       z     vdW  Elec       q    Type
REMARK                         _______ _______ _______ _____ _____    ______ ____
ROOT
ATOM      1  C   UNL     1       3.852   4.697  17.406  0.00  0.00    +0.000 A 
ATOM      2  C   UNL     1       3.990   6.097  17.410  0.00  0.00    +0.000 A 
ATOM      3  C   UNL     1       3.231   6.885  18.269  0.00  0.00    +0.000 A 
ATOM      4  C   UNL     1       2.325   6.283  19.137  0.00  0.00    +0.000 A 
ATOM      5  C   UNL     1       2.127   4.896  19.128  0.00  0.00    +0.000 A 
ATOM      6  C   UNL     1       1.212   4.313  20.020  0.00  0.00    +0.000 A 
ATOM      7  C   UNL     1       0.976   2.941  20.017  0.00  0.00    +0.000 A 
ATOM      8  C   UNL     1       1.631   2.136  19.098  0.00  0.00    +0.000 A 
ATOM      9  C   UNL     1       2.557   2.698  18.216  0.00  0.00    +0.000 A 
ATOM     10  C   UNL     1       2.859   4.078  18.226  0.00  0.00    +0.000 A 
ENDROOT
BRANCH   1  11
ATOM     11  C   UNL     1       4.847   3.888  16.589  0.00  0.00    +0.000 C 
BRANCH  11  12
ATOM     12  C   UNL     1       5.785   4.719  15.684  0.00  0.00    +0.000 C 
BRANCH  12  14
ATOM     13  O   UNL     1       7.504   6.285  16.408  0.00  0.00    +0.000 OA
ATOM     14  C   UNL     1       7.122   5.126  16.305  0.00  0.00    +0.000 C 
BRANCH  14  15
ATOM     15  O   UNL     1       7.846   4.126  16.847  0.00  0.00    +0.000 OA
ATOM     16  H   UNL     1       7.737   3.242  16.451  0.00  0.00    +0.000 HD
ENDBRANCH  14  15
ENDBRANCH  12  14
BRANCH  12  17
ATOM     17  C   UNL     1       6.040   3.974  14.351  0.00  0.00    +0.000 C 
BRANCH  17  18
ATOM     18  S   UNL     1       7.273   4.746  13.243  0.00  0.00    +0.000 S 
ATOM     19  H   UNL     1       8.351   4.232  13.871  0.00  0.00    +0.000 HD
ENDBRANCH  17  18
ENDBRANCH  12  17
ENDBRANCH  11  12
ENDBRANCH   1  11
TORSDOF 6
ENDMDL
MODEL 3
REMARK VINA RESULT:      -6.7      1.927      3.198
REMARK  Name = 
REMARK  6 active torsions:
REMARK  status: ('A' for Active; 'I' for Inactive)
REMARK    1  A    between atoms: C_2  and  O_3
REMARK    2  A    between atoms: C_2  and  C_4
REMARK    3  A    between atoms: C_4  and  C_5
REMARK    4  A    between atoms: C_4  and  C_7
REMARK    5  A    between atoms: C_5  and  S_6
REMARK    6  A    between atoms: C_7  and  C_8
REMARK                            x       y       z     vdW  Elec       q    Type
REMARK                         _______ _______ _______ _____ _____    ______ ____
ROOT
ATOM      1  C   UNL     1       3.854   4.050  17.752  0.00  0.00    +0.000 A 
ATOM      2  C   UNL     1       3.852   2.651  17.594  0.00  0.00    +0.000 A 
ATOM      3  C   UNL     1       3.028   1.848  18.375  0.00  0.00    +0.000 A 
ATOM      4  C   UNL     1       2.194   2.431  19.323  0.00  0.00    +0.000 A 
ATOM      5  C   UNL     1       2.203   3.815  19.541  0.00  0.00    +0.000 A 
ATOM      6  C   UNL     1       1.344   4.379  20.500  0.00  0.00    +0.000 A 
ATOM      7  C   UNL     1       1.349   5.747  20.755  0.00  0.00    +0.000 A 
ATOM      8  C   UNL     1       2.236   6.567  20.075  0.00  0.00    +0.000 A 
ATOM      9  C   UNL     1       3.084   6.024  19.107  0.00  0.00    +0.000 A 
ATOM     10  C   UNL     1       3.070   4.649  18.786  0.00  0.00    +0.000 A 
ENDROOT
BRANCH   1  11
ATOM     11  C   UNL     1       4.626   4.878  16.738  0.00  0.00    +0.000 C 
BRANCH  11  12
ATOM     12  C   UNL     1       6.010   5.378  17.213  0.00  0.00    +0.000 C 
BRANCH  12  14
ATOM     13  O   UNL     1       7.486   4.793  15.367  0.00  0.00    +0.000 OA
ATOM     14  C   UNL     1       7.220   4.711  16.560  0.00  0.00    +0.000 C 
BRANCH  14  15
ATOM     15  O   UNL     1       8.071   4.089  17.400  0.00  0.00    +0.000 OA
ATOM     16  H   UNL     1       7.746   3.910  18.301  0.00  0.00    +0.000 HD
ENDBRANCH  14  15
ENDBRANCH  12  14
BRANCH  12  17
ATOM     17  C   UNL     1       6.111   6.913  17.042  0.00  0.00    +0.000 C 
BRANCH  17  18
ATOM     18  S   UNL     1       7.633   7.679  17.707  0.00  0.00    +0.000 S 
ATOM     19  H   UNL     1       7.995   6.617  18.457  0.00  0.00    +0.000 HD
ENDBRANCH  17  18
ENDBRANCH  12  17
ENDBRANCH  11  12
ENDBRANCH   1  11
TORSDOF 6
ENDMDL
MODEL 4
REMARK VINA RESULT:      -6.7      0.716      1.037
REMARK  Name = 
REMARK  6 active torsions:
REMARK  status: ('A' for Active; 'I' for Inactive)
REMARK    1  A    between atoms: C_2  and  O_3
REMARK    2  A    between atoms: C_2  and  C_4
REMARK    3  A    between atoms: C_4  and  C_5
REMARK    4  A    between atoms: C_4  and  C_7
REMARK    5  A    between atoms: C_5  and  S_6
REMARK    6  A    between atoms: C_7  and  C_8
REMARK                            x       y       z     vdW  Elec       q    Type
REMARK                         _______ _______ _______ _____ _____    ______ ____
ROOT
ATOM      1  C   UNL     1       3.256   5.801  18.344  0.00  0.00    +0.000 A 
ATOM      2  C   UNL     1       3.001   6.945  19.124  0.00  0.00    +0.000 A 
ATOM      3  C   UNL     1       2.106   6.896  20.187  0.00  0.00    +0.000 A 
ATOM      4  C   UNL     1       1.455   5.703  20.487  0.00  0.00    +0.000 A 
ATOM      5  C   UNL     1       1.648   4.558  19.705  0.00  0.00    +0.000 A 
ATOM      6  C   UNL     1       0.984   3.364  20.034  0.00  0.00    +0.000 A 
ATOM      7  C   UNL     1       1.138   2.217  19.260  0.00  0.00    +0.000 A 
ATOM      8  C   UNL     1       1.934   2.257  18.127  0.00  0.00    +0.000 A 
ATOM      9  C   UNL     1       2.614   3.431  17.796  0.00  0.00    +0.000 A 
ATOM     10  C   UNL     1       2.523   4.598  18.586  0.00  0.00    +0.000 A 
ENDROOT
BRANCH   1  11
ATOM     11  C   UNL     1       4.385   5.871  17.329  0.00  0.00    +0.000 C 
BRANCH  11  12
ATOM     12  C   UNL     1       5.796   6.075  17.927  0.00  0.00    +0.000 C 
BRANCH  12  14
ATOM     13  O   UNL     1       5.871   3.895  19.009  0.00  0.00    +0.000 OA
ATOM     14  C   UNL     1       6.219   5.069  18.998  0.00  0.00    +0.000 C 
BRANCH  14  15
ATOM     15  O   UNL     1       7.107   5.519  19.906  0.00  0.00    +0.000 OA
ATOM     16  H   UNL     1       7.158   5.030  20.748  0.00  0.00    +0.000 HD
ENDBRANCH  14  15
ENDBRANCH  12  14
BRANCH  12  17
ATOM     17  C   UNL     1       6.855   6.105  16.798  0.00  0.00    +0.000 C 
BRANCH  17  18
ATOM     18  S   UNL     1       6.793   4.704  15.625  0.00  0.00    +0.000 S 
ATOM     19  H   UNL     1       6.614   5.465  14.524  0.00  0.00    +0.000 HD
ENDBRANCH  17  18
ENDBRANCH  12  17
ENDBRANCH  11  12
ENDBRANCH   1  11
TORSDOF 6
ENDMDL
MODEL 5
REMARK VINA RESULT:      -6.7      1.858      2.000
REMARK  Name = 
REMARK  6 active torsions:
REMARK  status: ('A' for Active; 'I' for Inactive)
REMARK    1  A    between atoms: C_2  and  O_3
REMARK    2  A    between atoms: C_2  and  C_4
REMARK    3  A    between atoms: C_4  and  C_5
REMARK    4  A    between atoms: C_4  and  C_7
REMARK    5  A    between atoms: C_5  and  S_6
REMARK    6  A    between atoms: C_7  and  C_8
REMARK                            x       y       z     vdW  Elec       q    Type
REMARK                         _______ _______ _______ _____ _____    ______ ____
ROOT
ATOM      1  C   UNL     1       3.363   5.801  17.935  0.00  0.00    +0.000 A 
ATOM      2  C   UNL     1       3.125   6.972  18.680  0.00  0.00    +0.000 A 
ATOM      3  C   UNL     1       2.297   6.949  19.797  0.00  0.00    +0.000 A 
ATOM      4  C   UNL     1       1.696   5.755  20.186  0.00  0.00    +0.000 A 
ATOM      5  C   UNL     1       1.873   4.581  19.443  0.00  0.00    +0.000 A 
ATOM      6  C   UNL     1       1.261   3.388  19.862  0.00  0.00    +0.000 A 
ATOM      7  C   UNL     1       1.398   2.212  19.130  0.00  0.00    +0.000 A 
ATOM      8  C   UNL     1       2.125   2.221  17.950  0.00  0.00    +0.000 A 
ATOM      9  C   UNL     1       2.752   3.395  17.528  0.00  0.00    +0.000 A 
ATOM     10  C   UNL     1       2.677   4.593  18.273  0.00  0.00    +0.000 A 
ENDROOT
BRANCH   1  11
ATOM     11  C   UNL     1       4.428   5.853  16.851  0.00  0.00    +0.000 C 
BRANCH  11  12
ATOM     12  C   UNL     1       5.793   5.241  17.240  0.00  0.00    +0.000 C 
BRANCH  12  14
ATOM     13  O   UNL     1       7.542   4.750  15.618  0.00  0.00    +0.000 OA
ATOM     14  C   UNL     1       6.490   4.422  16.154  0.00  0.00    +0.000 C 
BRANCH  14  15
ATOM     15  O   UNL     1       5.932   3.228  15.871  0.00  0.00    +0.000 OA
ATOM     16  H   UNL     1       6.536   2.519  15.585  0.00  0.00    +0.000 HD
ENDBRANCH  14  15
ENDBRANCH  12  14
BRANCH  12  17
ATOM     17  C   UNL     1       6.750   6.348  17.746  0.00  0.00    +0.000 C 
BRANCH  17  18
ATOM     18  S   UNL     1       7.827   5.875  19.146  0.00  0.00    +0.000 S 
ATOM     19  H   UNL     1       8.774   6.805  18.901  0.00  0.00    +0.000 HD
ENDBRANCH  17  18
ENDBRANCH  12  17
ENDBRANCH  11  12
ENDBRANCH   1  11
TORSDOF 6
ENDMDL
MODEL 6
REMARK VINA RESULT:      -6.6      1.189      1.490
REMARK  Name = 
REMARK  6 active torsions:
REMARK  status: ('A' for Active; 'I' for Inactive)
REMARK    1  A    between atoms: C_2  and  O_3
REMARK    2  A    between atoms: C_2  and  C_4
REMARK    3  A    between atoms: C_4  and  C_5
REMARK    4  A    between atoms: C_4  and  C_7
REMARK    5  A    between atoms: C_5  and  S_6
REMARK    6  A    between atoms: C_7  and  C_8
REMARK                            x       y       z     vdW  Elec       q    Type
REMARK                         _______ _______ _______ _____ _____    ______ ____
ROOT
ATOM      1  C   UNL     1       3.954   4.999  17.346  0.00  0.00    +0.000 A 
ATOM      2  C   UNL     1       3.969   6.396  17.522  0.00  0.00    +0.000 A 
ATOM      3  C   UNL     1       3.097   7.011  18.413  0.00  0.00    +0.000 A 
ATOM      4  C   UNL     1       2.197   6.239  19.142  0.00  0.00    +0.000 A 
ATOM      5  C   UNL     1       2.121   4.852  18.959  0.00  0.00    +0.000 A 
ATOM      6  C   UNL     1       1.209   4.095  19.714  0.00  0.00    +0.000 A 
ATOM      7  C   UNL     1       1.094   2.719  19.536  0.00  0.00    +0.000 A 
ATOM      8  C   UNL     1       1.868   2.086  18.577  0.00  0.00    +0.000 A 
ATOM      9  C   UNL     1       2.791   2.822  17.830  0.00  0.00    +0.000 A 
ATOM     10  C   UNL     1       2.971   4.210  18.020  0.00  0.00    +0.000 A 
ENDROOT
BRANCH   1  11
ATOM     11  C   UNL     1       5.060   4.376  16.510  0.00  0.00    +0.000 C 
BRANCH  11  12
ATOM     12  C   UNL     1       6.319   5.254  16.325  0.00  0.00    +0.000 C 
BRANCH  12  14
ATOM     13  O   UNL     1       7.852   4.327  17.974  0.00  0.00    +0.000 OA
ATOM     14  C   UNL     1       7.276   5.306  17.516  0.00  0.00    +0.000 C 
BRANCH  14  15
ATOM     15  O   UNL     1       7.551   6.536  17.994  0.00  0.00    +0.000 OA
ATOM     16  H   UNL     1       7.992   6.580  18.862  0.00  0.00    +0.000 HD
ENDBRANCH  14  15
ENDBRANCH  12  14
BRANCH  12  17
ATOM     17  C   UNL     1       7.093   4.818  15.058  0.00  0.00    +0.000 C 
BRANCH  17  18
ATOM     18  S   UNL     1       6.102   3.945  13.793  0.00  0.00    +0.000 S 
ATOM     19  H   UNL     1       6.857   4.334  12.744  0.00  0.00    +0.000 HD
ENDBRANCH  17  18
ENDBRANCH  12  17
ENDBRANCH  11  12
ENDBRANCH   1  11
TORSDOF 6
ENDMDL
MODEL 7
REMARK VINA RESULT:      -6.6      2.208      3.411
REMARK  Name = 
REMARK  6 active torsions:
REMARK  status: ('A' for Active; 'I' for Inactive)
REMARK    1  A    between atoms: C_2  and  O_3
REMARK    2  A    between atoms: C_2  and  C_4
REMARK    3  A    between atoms: C_4  and  C_5
REMARK    4  A    between atoms: C_4  and  C_7
REMARK    5  A    between atoms: C_5  and  S_6
REMARK    6  A    between atoms: C_7  and  C_8
REMARK                            x       y       z     vdW  Elec       q    Type
REMARK                         _______ _______ _______ _____ _____    ______ ____
ROOT
ATOM      1  C   UNL     1       3.861   4.074  17.580  0.00  0.00    +0.000 A 
ATOM      2  C   UNL     1       3.858   2.668  17.522  0.00  0.00    +0.000 A 
ATOM      3  C   UNL     1       3.097   1.919  18.413  0.00  0.00    +0.000 A 
ATOM      4  C   UNL     1       2.326   2.566  19.374  0.00  0.00    +0.000 A 
ATOM      5  C   UNL     1       2.340   3.962  19.492  0.00  0.00    +0.000 A 
ATOM      6  C   UNL     1       1.545   4.590  20.466  0.00  0.00    +0.000 A 
ATOM      7  C   UNL     1       1.558   5.974  20.624  0.00  0.00    +0.000 A 
ATOM      8  C   UNL     1       2.390   6.746  19.828  0.00  0.00    +0.000 A 
ATOM      9  C   UNL     1       3.172   6.137  18.844  0.00  0.00    +0.000 A 
ATOM     10  C   UNL     1       3.146   4.743  18.622  0.00  0.00    +0.000 A 
ENDROOT
BRANCH   1  11
ATOM     11  C   UNL     1       4.554   4.830  16.459  0.00  0.00    +0.000 C 
BRANCH  11  12
ATOM     12  C   UNL     1       6.099   4.773  16.484  0.00  0.00    +0.000 C 
BRANCH  12  14
ATOM     13  O   UNL     1       7.696   5.300  14.723  0.00  0.00    +0.000 OA
ATOM     14  C   UNL     1       6.782   4.592  15.128  0.00  0.00    +0.000 C 
BRANCH  14  15
ATOM     15  O   UNL     1       6.393   3.518  14.414  0.00  0.00    +0.000 OA
ATOM     16  H   UNL     1       7.023   2.777  14.357  0.00  0.00    +0.000 HD
ENDBRANCH  14  15
ENDBRANCH  12  14
BRANCH  12  17
ATOM     17  C   UNL     1       6.669   6.030  17.187  0.00  0.00    +0.000 C 
BRANCH  17  18
ATOM     18  S   UNL     1       7.513   5.724  18.780  0.00  0.00    +0.000 S 
ATOM     19  H   UNL     1       8.161   6.907  18.813  0.00  0.00    +0.000 HD
ENDBRANCH  17  18
ENDBRANCH  12  17
ENDBRANCH  11  12
ENDBRANCH   1  11
TORSDOF 6
ENDMDL
MODEL 8
REMARK VINA RESULT:      -6.6      1.484      1.604
REMARK  Name = 
REMARK  6 active torsions:
REMARK  status: ('A' for Active; 'I' for Inactive)
REMARK    1  A    between atoms: C_2  and  O_3
REMARK    2  A    between atoms: C_2  and  C_4
REMARK    3  A    between atoms: C_4  and  C_5
REMARK    4  A    between atoms: C_4  and  C_7
REMARK    5  A    between atoms: C_5  and  S_6
REMARK    6  A    between atoms: C_7  and  C_8
REMARK                            x       y       z     vdW  Elec       q    Type
REMARK                         _______ _______ _______ _____ _____    ______ ____
ROOT
ATOM      1  C   UNL     1       2.957   5.857  18.464  0.00  0.00    +0.000 A 
ATOM      2  C   UNL     1       2.632   6.885  19.370  0.00  0.00    +0.000 A 
ATOM      3  C   UNL     1       1.812   6.636  20.465  0.00  0.00    +0.000 A 
ATOM      4  C   UNL     1       1.306   5.356  20.671  0.00  0.00    +0.000 A 
ATOM      5  C   UNL     1       1.570   4.320  19.766  0.00  0.00    +0.000 A 
ATOM      6  C   UNL     1       1.053   3.035  20.002  0.00  0.00    +0.000 A 
ATOM      7  C   UNL     1       1.278   1.992  19.107  0.00  0.00    +0.000 A 
ATOM      8  C   UNL     1       1.997   2.229  17.946  0.00  0.00    +0.000 A 
ATOM      9  C   UNL     1       2.531   3.497  17.705  0.00  0.00    +0.000 A 
ATOM     10  C   UNL     1       2.367   4.564  18.616  0.00  0.00    +0.000 A 
ENDROOT
BRANCH   1  11
ATOM     11  C   UNL     1       4.011   6.148  17.408  0.00  0.00    +0.000 C 
BRANCH  11  12
ATOM     12  C   UNL     1       5.474   6.088  17.903  0.00  0.00    +0.000 C 
BRANCH  12  14
ATOM     13  O   UNL     1       6.049   4.168  19.286  0.00  0.00    +0.000 OA
ATOM     14  C   UNL     1       6.027   4.689  18.178  0.00  0.00    +0.000 C 
BRANCH  14  15
ATOM     15  O   UNL     1       6.411   3.987  17.094  0.00  0.00    +0.000 OA
ATOM     16  H   UNL     1       5.800   3.296  16.781  0.00  0.00    +0.000 HD
ENDBRANCH  14  15
ENDBRANCH  12  14
BRANCH  12  17
ATOM     17  C   UNL     1       6.405   6.827  16.912  0.00  0.00    +0.000 C 
BRANCH  17  18
ATOM     18  S   UNL     1       7.719   7.842  17.676  0.00  0.00    +0.000 S 
ATOM     19  H   UNL     1       7.608   8.872  16.811  0.00  0.00    +0.000 HD
ENDBRANCH  17  18
ENDBRANCH  12  17
ENDBRANCH  11  12
ENDBRANCH   1  11
TORSDOF 6
ENDMDL
MODEL 9
REMARK VINA RESULT:      -6.5      2.002      2.158
REMARK  Name = 
REMARK  6 active torsions:
REMARK  status: ('A' for Active; 'I' for Inactive)
REMARK    1  A    between atoms: C_2  and  O_3
REMARK    2  A    between atoms: C_2  and  C_4
REMARK    3  A    between atoms: C_4  and  C_5
REMARK    4  A    between atoms: C_4  and  C_7
REMARK    5  A    between atoms: C_5  and  S_6
REMARK    6  A    between atoms: C_7  and  C_8
REMARK                            x       y       z     vdW  Elec       q    Type
REMARK                         _______ _______ _______ _____ _____    ______ ____
ROOT
ATOM      1  C   UNL     1       3.695   5.429  18.151  0.00  0.00    +0.000 A 
ATOM      2  C   UNL     1       3.201   6.747  18.126  0.00  0.00    +0.000 A 
ATOM      3  C   UNL     1       2.378   7.218  19.144  0.00  0.00    +0.000 A 
ATOM      4  C   UNL     1       2.039   6.379  20.200  0.00  0.00    +0.000 A 
ATOM      5  C   UNL     1       2.473   5.048  20.235  0.00  0.00    +0.000 A 
ATOM      6  C   UNL     1       2.122   4.224  21.318  0.00  0.00    +0.000 A 
ATOM      7  C   UNL     1       2.518   2.890  21.367  0.00  0.00    +0.000 A 
ATOM      8  C   UNL     1       3.246   2.353  20.317  0.00  0.00    +0.000 A 
ATOM      9  C   UNL     1       3.616   3.163  19.241  0.00  0.00    +0.000 A 
ATOM     10  C   UNL     1       3.276   4.533  19.183  0.00  0.00    +0.000 A 
ENDROOT
BRANCH   1  11
ATOM     11  C   UNL     1       4.742   5.043  17.119  0.00  0.00    +0.000 C 
BRANCH  11  12
ATOM     12  C   UNL     1       6.180   5.515  17.432  0.00  0.00    +0.000 C 
BRANCH  12  14
ATOM     13  O   UNL     1       7.528   4.647  15.599  0.00  0.00    +0.000 OA
ATOM     14  C   UNL     1       7.304   4.691  16.803  0.00  0.00    +0.000 C 
BRANCH  14  15
ATOM     15  O   UNL     1       8.134   4.074  17.667  0.00  0.00    +0.000 OA
ATOM     16  H   UNL     1       8.051   4.321  18.606  0.00  0.00    +0.000 HD
ENDBRANCH  14  15
ENDBRANCH  12  14
BRANCH  12  17
ATOM     17  C   UNL     1       6.351   7.004  17.044  0.00  0.00    +0.000 C 
BRANCH  17  18
ATOM     18  S   UNL     1       7.805   7.843  17.768  0.00  0.00    +0.000 S 
ATOM     19  H   UNL     1       8.723   7.115  17.095  0.00  0.00    +0.000 HD
ENDBRANCH  17  18
ENDBRANCH  12  17
ENDBRANCH  11  12
ENDBRANCH   1  11
TORSDOF 6
ENDMDL
