MODEL 1
REMARK VINA RESULT:      -6.5      0.000      0.000
REMARK  Name = 
REMARK  6 active torsions:
REMARK  status: ('A' for Active; 'I' for Inactive)
REMARK    1  A    between atoms: C_1  and  C_2
REMARK    2  A    between atoms: C_2  and  C_3
REMARK    3  A    between atoms: C_2  and  C_4
REMARK    4  A    between atoms: C_4  and  N_5
REMARK    5  A    between atoms: C_9  and  C_11
REMARK    6  A    between atoms: N_14  and  C_15
REMARK                            x       y       z     vdW  Elec       q    Type
REMARK                         _______ _______ _______ _____ _____    ______ ____
ROOT
ATOM      1  N   UNL     1       6.137   5.015  14.277  0.00  0.00    +0.000 NA
ATOM      2  C   UNL     1       4.873   5.277  14.977  0.00  0.00    +0.000 C 
ATOM      3  C   UNL     1       4.822   4.705  16.395  0.00  0.00    +0.000 C 
ATOM      4  N   UNL     1       5.975   4.943  17.260  0.00  0.00    +0.000 N 
ATOM      5  C   UNL     1       5.996   4.652  18.634  0.00  0.00    +0.000 C 
ATOM      6  O   UNL     1       7.029   4.764  19.297  0.00  0.00    +0.000 OA
ATOM      7  C   UNL     1       7.276   4.987  16.577  0.00  0.00    +0.000 C 
ATOM      8  C   UNL     1       7.221   5.551  15.137  0.00  0.00    +0.000 C 
ENDROOT
BRANCH   5   9
ATOM      9  C   UNL     1       4.724   4.190  19.339  0.00  0.00    +0.000 A 
ATOM     10  C   UNL     1       4.442   2.820  19.718  0.00  0.00    +0.000 A 
ATOM     11  C   UNL     1       3.282   2.455  20.260  0.00  0.00    +0.000 A 
ATOM     12  N   UNL     1       2.343   3.393  20.605  0.00  0.00    +0.000 N 
ATOM     13  C   UNL     1       1.169   2.953  21.337  0.00  0.00    +0.000 C 
ATOM     14  C   UNL     1       2.575   4.756  20.430  0.00  0.00    +0.000 A 
ATOM     15  O   UNL     1       1.812   5.637  20.825  0.00  0.00    +0.000 OA
ATOM     16  C   UNL     1       3.840   5.133  19.724  0.00  0.00    +0.000 A 
ENDBRANCH   5   9
BRANCH   1  17
ATOM     17  C   UNL     1       6.363   3.597  13.923  0.00  0.00    +0.000 C 
BRANCH  17  19
ATOM     18  C   UNL     1       4.918   3.276  11.834  0.00  0.00    +0.000 C 
ATOM     19  C   UNL     1       6.335   3.263  12.408  0.00  0.00    +0.000 C 
ATOM     20  C   UNL     1       7.198   4.254  11.626  0.00  0.00    +0.000 C 
ENDBRANCH  17  19
ENDBRANCH   1  17
TORSDOF 3
ENDMDL
MODEL 2
REMARK VINA RESULT:      -6.4      1.230      1.758
REMARK  Name = 
REMARK  6 active torsions:
REMARK  status: ('A' for Active; 'I' for Inactive)
REMARK    1  A    between atoms: C_1  and  C_2
REMARK    2  A    between atoms: C_2  and  C_3
REMARK    3  A    between atoms: C_2  and  C_4
REMARK    4  A    between atoms: C_4  and  N_5
REMARK    5  A    between atoms: C_9  and  C_11
REMARK    6  A    between atoms: N_14  and  C_15
REMARK                            x       y       z     vdW  Elec       q    Type
REMARK                         _______ _______ _______ _____ _____    ______ ____
ROOT
ATOM      1  N   UNL     1       6.305   4.831  13.695  0.00  0.00    +0.000 NA
ATOM      2  C   UNL     1       5.153   5.403  14.405  0.00  0.00    +0.000 C 
ATOM      3  C   UNL     1       4.976   4.867  15.826  0.00  0.00    +0.000 C 
ATOM      4  N   UNL     1       6.161   4.814  16.680  0.00  0.00    +0.000 N 
ATOM      5  C   UNL     1       6.122   4.532  18.056  0.00  0.00    +0.000 C 
ATOM      6  O   UNL     1       7.158   4.387  18.708  0.00  0.00    +0.000 OA
ATOM      7  C   UNL     1       7.425   4.530  15.985  0.00  0.00    +0.000 C 
ATOM      8  C   UNL     1       7.497   5.085  14.542  0.00  0.00    +0.000 C 
ENDROOT
BRANCH   5   9
ATOM      9  C   UNL     1       4.783   4.404  18.775  0.00  0.00    +0.000 A 
ATOM     10  C   UNL     1       4.040   5.513  19.339  0.00  0.00    +0.000 A 
ATOM     11  C   UNL     1       2.914   5.339  20.027  0.00  0.00    +0.000 A 
ATOM     12  N   UNL     1       2.335   4.100  20.124  0.00  0.00    +0.000 N 
ATOM     13  C   UNL     1       1.028   3.998  20.749  0.00  0.00    +0.000 C 
ATOM     14  C   UNL     1       2.882   2.988  19.487  0.00  0.00    +0.000 A 
ATOM     15  O   UNL     1       2.340   1.883  19.452  0.00  0.00    +0.000 OA
ATOM     16  C   UNL     1       4.200   3.188  18.808  0.00  0.00    +0.000 A 
ENDBRANCH   5   9
BRANCH   1  17
ATOM     17  C   UNL     1       6.168   3.400  13.349  0.00  0.00    +0.000 C 
BRANCH  17  19
ATOM     18  C   UNL     1       6.279   1.668  11.467  0.00  0.00    +0.000 C 
ATOM     19  C   UNL     1       5.872   3.089  11.857  0.00  0.00    +0.000 C 
ATOM     20  C   UNL     1       4.386   3.281  11.555  0.00  0.00    +0.000 C 
ENDBRANCH  17  19
ENDBRANCH   1  17
TORSDOF 3
ENDMDL
MODEL 3
REMARK VINA RESULT:      -6.3      3.135      4.117
REMARK  Name = 
REMARK  6 active torsions:
REMARK  status: ('A' for Active; 'I' for Inactive)
REMARK    1  A    between atoms: C_1  and  C_2
REMARK    2  A    between atoms: C_2  and  C_3
REMARK    3  A    between atoms: C_2  and  C_4
REMARK    4  A    between atoms: C_4  and  N_5
REMARK    5  A    between atoms: C_9  and  C_11
REMARK    6  A    between atoms: N_14  and  C_15
REMARK                            x       y       z     vdW  Elec       q    Type
REMARK                         _______ _______ _______ _____ _____    ______ ____
ROOT
ATOM      1  N   UNL     1       6.529   4.922  16.249  0.00  0.00    +0.000 NA
ATOM      2  C   UNL     1       6.406   6.055  17.177  0.00  0.00    +0.000 C 
ATOM      3  C   UNL     1       4.960   6.455  17.474  0.00  0.00    +0.000 C 
ATOM      4  N   UNL     1       4.018   5.387  17.801  0.00  0.00    +0.000 N 
ATOM      5  C   UNL     1       2.717   5.610  18.282  0.00  0.00    +0.000 C 
ATOM      6  O   UNL     1       1.923   4.680  18.435  0.00  0.00    +0.000 OA
ATOM      7  C   UNL     1       4.257   4.106  17.119  0.00  0.00    +0.000 C 
ATOM      8  C   UNL     1       5.747   3.805  16.833  0.00  0.00    +0.000 C 
ENDROOT
BRANCH   5   9
ATOM      9  C   UNL     1       2.261   7.024  18.631  0.00  0.00    +0.000 A 
ATOM     10  C   UNL     1       2.038   8.081  17.664  0.00  0.00    +0.000 A 
ATOM     11  C   UNL     1       1.717   9.321  18.026  0.00  0.00    +0.000 A 
ATOM     12  N   UNL     1       1.455   9.623  19.338  0.00  0.00    +0.000 N 
ATOM     13  C   UNL     1       0.956  10.950  19.651  0.00  0.00    +0.000 C 
ATOM     14  C   UNL     1       1.487   8.647  20.332  0.00  0.00    +0.000 A 
ATOM     15  O   UNL     1       1.152   8.847  21.500  0.00  0.00    +0.000 OA
ATOM     16  C   UNL     1       1.951   7.286  19.917  0.00  0.00    +0.000 A 
ENDBRANCH   5   9
BRANCH   1  17
ATOM     17  C   UNL     1       6.119   5.217  14.859  0.00  0.00    +0.000 C 
BRANCH  17  19
ATOM     18  C   UNL     1       5.666   3.632  12.901  0.00  0.00    +0.000 C 
ATOM     19  C   UNL     1       6.733   4.306  13.763  0.00  0.00    +0.000 C 
ATOM     20  C   UNL     1       7.666   5.113  12.859  0.00  0.00    +0.000 C 
ENDBRANCH  17  19
ENDBRANCH   1  17
TORSDOF 3
ENDMDL
MODEL 4
REMARK VINA RESULT:      -6.3      2.983      3.823
REMARK  Name = 
REMARK  6 active torsions:
REMARK  status: ('A' for Active; 'I' for Inactive)
REMARK    1  A    between atoms: C_1  and  C_2
REMARK    2  A    between atoms: C_2  and  C_3
REMARK    3  A    between atoms: C_2  and  C_4
REMARK    4  A    between atoms: C_4  and  N_5
REMARK    5  A    between atoms: C_9  and  C_11
REMARK    6  A    between atoms: N_14  and  C_15
REMARK                            x       y       z     vdW  Elec       q    Type
REMARK                         _______ _______ _______ _____ _____    ______ ____
ROOT
ATOM      1  N   UNL     1       7.069   5.278  16.199  0.00  0.00    +0.000 NA
ATOM      2  C   UNL     1       6.806   6.359  17.159  0.00  0.00    +0.000 C 
ATOM      3  C   UNL     1       5.331   6.505  17.534  0.00  0.00    +0.000 C 
ATOM      4  N   UNL     1       4.599   5.289  17.879  0.00  0.00    +0.000 N 
ATOM      5  C   UNL     1       3.305   5.283  18.427  0.00  0.00    +0.000 C 
ATOM      6  O   UNL     1       2.685   4.230  18.594  0.00  0.00    +0.000 OA
ATOM      7  C   UNL     1       5.012   4.078  17.155  0.00  0.00    +0.000 C 
ATOM      8  C   UNL     1       6.516   4.035  16.791  0.00  0.00    +0.000 C 
ENDROOT
BRANCH   5   9
ATOM      9  C   UNL     1       2.638   6.594  18.832  0.00  0.00    +0.000 A 
ATOM     10  C   UNL     1       2.203   6.917  20.177  0.00  0.00    +0.000 A 
ATOM     11  C   UNL     1       1.554   8.043  20.463  0.00  0.00    +0.000 A 
ATOM     12  N   UNL     1       1.379   9.014  19.511  0.00  0.00    +0.000 N 
ATOM     13  C   UNL     1       0.806  10.285  19.921  0.00  0.00    +0.000 C 
ATOM     14  C   UNL     1       1.894   8.875  18.224  0.00  0.00    +0.000 A 
ATOM     15  O   UNL     1       1.860   9.763  17.372  0.00  0.00    +0.000 OA
ATOM     16  C   UNL     1       2.528   7.559  17.897  0.00  0.00    +0.000 A 
ENDBRANCH   5   9
BRANCH   1  17
ATOM     17  C   UNL     1       6.545   5.522  14.837  0.00  0.00    +0.000 C 
BRANCH  17  19
ATOM     18  C   UNL     1       5.790   3.753  13.149  0.00  0.00    +0.000 C 
ATOM     19  C   UNL     1       6.979   4.503  13.750  0.00  0.00    +0.000 C 
ATOM     20  C   UNL     1       7.740   5.209  12.628  0.00  0.00    +0.000 C 
ENDBRANCH  17  19
ENDBRANCH   1  17
TORSDOF 3
ENDMDL
MODEL 5
REMARK VINA RESULT:      -6.2      4.867      7.311
REMARK  Name = 
REMARK  6 active torsions:
REMARK  status: ('A' for Active; 'I' for Inactive)
REMARK    1  A    between atoms: C_1  and  C_2
REMARK    2  A    between atoms: C_2  and  C_3
REMARK    3  A    between atoms: C_2  and  C_4
REMARK    4  A    between atoms: C_4  and  N_5
REMARK    5  A    between atoms: C_9  and  C_11
REMARK    6  A    between atoms: N_14  and  C_15
REMARK                            x       y       z     vdW  Elec       q    Type
REMARK                         _______ _______ _______ _____ _____    ______ ____
ROOT
ATOM      1  N   UNL     1       0.444  10.278  20.005  0.00  0.00    +0.000 NA
ATOM      2  C   UNL     1       1.148   9.202  20.715  0.00  0.00    +0.000 C 
ATOM      3  C   UNL     1       1.640   8.079  19.802  0.00  0.00    +0.000 C 
ATOM      4  N   UNL     1       2.339   8.462  18.577  0.00  0.00    +0.000 N 
ATOM      5  C   UNL     1       3.012   7.553  17.743  0.00  0.00    +0.000 C 
ATOM      6  O   UNL     1       3.488   7.908  16.663  0.00  0.00    +0.000 OA
ATOM      7  C   UNL     1       1.876   9.710  17.953  0.00  0.00    +0.000 C 
ATOM      8  C   UNL     1       1.368  10.774  18.955  0.00  0.00    +0.000 C 
ENDROOT
BRANCH   5   9
ATOM      9  C   UNL     1       3.171   6.096  18.167  0.00  0.00    +0.000 A 
ATOM     10  C   UNL     1       2.154   5.076  18.009  0.00  0.00    +0.000 A 
ATOM     11  C   UNL     1       2.313   3.836  18.469  0.00  0.00    +0.000 A 
ATOM     12  N   UNL     1       3.509   3.433  19.003  0.00  0.00    +0.000 N 
ATOM     13  C   UNL     1       3.675   2.030  19.339  0.00  0.00    +0.000 C 
ATOM     14  C   UNL     1       4.608   4.289  19.060  0.00  0.00    +0.000 A 
ATOM     15  O   UNL     1       5.730   3.940  19.427  0.00  0.00    +0.000 OA
ATOM     16  C   UNL     1       4.374   5.705  18.635  0.00  0.00    +0.000 A 
ENDBRANCH   5   9
BRANCH   1  17
ATOM     17  C   UNL     1      -0.870   9.891  19.447  0.00  0.00    +0.000 C 
BRANCH  17  19
ATOM     18  C   UNL     1      -2.170  10.080  17.250  0.00  0.00    +0.000 C 
ATOM     19  C   UNL     1      -1.455  10.840  18.367  0.00  0.00    +0.000 C 
ATOM     20  C   UNL     1      -2.433  11.831  18.999  0.00  0.00    +0.000 C 
ENDBRANCH  17  19
ENDBRANCH   1  17
TORSDOF 3
ENDMDL
MODEL 6
REMARK VINA RESULT:      -6.1      3.297      5.108
REMARK  Name = 
REMARK  6 active torsions:
REMARK  status: ('A' for Active; 'I' for Inactive)
REMARK    1  A    between atoms: C_1  and  C_2
REMARK    2  A    between atoms: C_2  and  C_3
REMARK    3  A    between atoms: C_2  and  C_4
REMARK    4  A    between atoms: C_4  and  N_5
REMARK    5  A    between atoms: C_9  and  C_11
REMARK    6  A    between atoms: N_14  and  C_15
REMARK                            x       y       z     vdW  Elec       q    Type
REMARK                         _______ _______ _______ _____ _____    ______ ____
ROOT
ATOM      1  N   UNL     1       5.652   4.018  18.439  0.00  0.00    +0.000 NA
ATOM      2  C   UNL     1       5.680   5.399  18.939  0.00  0.00    +0.000 C 
ATOM      3  C   UNL     1       4.294   6.023  19.108  0.00  0.00    +0.000 C 
ATOM      4  N   UNL     1       3.274   5.227  19.786  0.00  0.00    +0.000 N 
ATOM      5  C   UNL     1       2.025   5.731  20.185  0.00  0.00    +0.000 C 
ATOM      6  O   UNL     1       1.155   4.992  20.650  0.00  0.00    +0.000 OA
ATOM      7  C   UNL     1       3.358   3.776  19.565  0.00  0.00    +0.000 C 
ATOM      8  C   UNL     1       4.798   3.242  19.373  0.00  0.00    +0.000 C 
ENDROOT
BRANCH   5   9
ATOM      9  C   UNL     1       1.721   7.220  20.051  0.00  0.00    +0.000 A 
ATOM     10  C   UNL     1       1.302   8.078  21.141  0.00  0.00    +0.000 A 
ATOM     11  C   UNL     1       0.972   9.354  20.957  0.00  0.00    +0.000 A 
ATOM     12  N   UNL     1       1.137   9.952  19.734  0.00  0.00    +0.000 N 
ATOM     13  C   UNL     1       0.912  11.383  19.632  0.00  0.00    +0.000 C 
ATOM     14  C   UNL     1       1.680   9.262  18.652  0.00  0.00    +0.000 A 
ATOM     15  O   UNL     1       1.951   9.785  17.571  0.00  0.00    +0.000 OA
ATOM     16  C   UNL     1       1.946   7.803  18.856  0.00  0.00    +0.000 A 
ENDBRANCH   5   9
BRANCH   1  17
ATOM     17  C   UNL     1       5.203   3.879  17.037  0.00  0.00    +0.000 C 
BRANCH  17  19
ATOM     18  C   UNL     1       6.319   3.828  14.734  0.00  0.00    +0.000 C 
ATOM     19  C   UNL     1       6.027   4.663  15.980  0.00  0.00    +0.000 C 
ATOM     20  C   UNL     1       5.291   5.937  15.564  0.00  0.00    +0.000 C 
ENDBRANCH  17  19
ENDBRANCH   1  17
TORSDOF 3
ENDMDL
MODEL 7
REMARK VINA RESULT:      -6.1      4.196      5.940
REMARK  Name = 
REMARK  6 active torsions:
REMARK  status: ('A' for Active; 'I' for Inactive)
REMARK    1  A    between atoms: C_1  and  C_2
REMARK    2  A    between atoms: C_2  and  C_3
REMARK    3  A    between atoms: C_2  and  C_4
REMARK    4  A    between atoms: C_4  and  N_5
REMARK    5  A    between atoms: C_9  and  C_11
REMARK    6  A    between atoms: N_14  and  C_15
REMARK                            x       y       z     vdW  Elec       q    Type
REMARK                         _______ _______ _______ _____ _____    ______ ____
ROOT
ATOM      1  N   UNL     1       4.579   4.866  18.455  0.00  0.00    +0.000 NA
ATOM      2  C   UNL     1       3.376   4.920  19.297  0.00  0.00    +0.000 C 
ATOM      3  C   UNL     1       2.847   6.336  19.526  0.00  0.00    +0.000 C 
ATOM      4  N   UNL     1       2.727   7.209  18.361  0.00  0.00    +0.000 N 
ATOM      5  C   UNL     1       2.082   8.457  18.381  0.00  0.00    +0.000 C 
ATOM      6  O   UNL     1       2.107   9.206  17.402  0.00  0.00    +0.000 OA
ATOM      7  C   UNL     1       3.745   7.011  17.319  0.00  0.00    +0.000 C 
ATOM      8  C   UNL     1       4.242   5.551  17.183  0.00  0.00    +0.000 C 
ENDROOT
BRANCH   5   9
ATOM      9  C   UNL     1       1.328   8.911  19.627  0.00  0.00    +0.000 A 
ATOM     10  C   UNL     1       1.582   8.423  20.968  0.00  0.00    +0.000 A 
ATOM     11  C   UNL     1       0.842   8.792  22.011  0.00  0.00    +0.000 A 
ATOM     12  N   UNL     1      -0.123   9.758  21.882  0.00  0.00    +0.000 N 
ATOM     13  C   UNL     1      -0.787  10.233  23.083  0.00  0.00    +0.000 C 
ATOM     14  C   UNL     1      -0.346  10.408  20.669  0.00  0.00    +0.000 A 
ATOM     15  O   UNL     1      -1.119  11.355  20.531  0.00  0.00    +0.000 OA
ATOM     16  C   UNL     1       0.425   9.904  19.490  0.00  0.00    +0.000 A 
ENDBRANCH   5   9
BRANCH   1  17
ATOM     17  C   UNL     1       5.795   5.429  19.081  0.00  0.00    +0.000 C 
BRANCH  17  19
ATOM     18  C   UNL     1       7.998   6.689  18.749  0.00  0.00    +0.000 C 
ATOM     19  C   UNL     1       6.966   5.756  18.117  0.00  0.00    +0.000 C 
ATOM     20  C   UNL     1       7.665   4.472  17.670  0.00  0.00    +0.000 C 
ENDBRANCH  17  19
ENDBRANCH   1  17
TORSDOF 3
ENDMDL
MODEL 8
REMARK VINA RESULT:      -6.1      3.292      5.111
REMARK  Name = 
REMARK  6 active torsions:
REMARK  status: ('A' for Active; 'I' for Inactive)
REMARK    1  A    between atoms: C_1  and  C_2
REMARK    2  A    between atoms: C_2  and  C_3
REMARK    3  A    between atoms: C_2  and  C_4
REMARK    4  A    between atoms: C_4  and  N_5
REMARK    5  A    between atoms: C_9  and  C_11
REMARK    6  A    between atoms: N_14  and  C_15
REMARK                            x       y       z     vdW  Elec       q    Type
REMARK                         _______ _______ _______ _____ _____    ______ ____
ROOT
ATOM      1  N   UNL     1       5.572   4.035  18.441  0.00  0.00    +0.000 NA
ATOM      2  C   UNL     1       5.635   5.404  18.969  0.00  0.00    +0.000 C 
ATOM      3  C   UNL     1       4.264   6.057  19.157  0.00  0.00    +0.000 C 
ATOM      4  N   UNL     1       3.229   5.271  19.824  0.00  0.00    +0.000 N 
ATOM      5  C   UNL     1       1.993   5.795  20.238  0.00  0.00    +0.000 C 
ATOM      6  O   UNL     1       1.108   5.067  20.692  0.00  0.00    +0.000 OA
ATOM      7  C   UNL     1       3.278   3.823  19.572  0.00  0.00    +0.000 C 
ATOM      8  C   UNL     1       4.704   3.260  19.363  0.00  0.00    +0.000 C 
ENDROOT
BRANCH   5   9
ATOM      9  C   UNL     1       1.723   7.293  20.136  0.00  0.00    +0.000 A 
ATOM     10  C   UNL     1       1.685   8.042  18.895  0.00  0.00    +0.000 A 
ATOM     11  C   UNL     1       1.524   9.363  18.866  0.00  0.00    +0.000 A 
ATOM     12  N   UNL     1       1.257  10.063  20.014  0.00  0.00    +0.000 N 
ATOM     13  C   UNL     1       0.933  11.475  19.899  0.00  0.00    +0.000 C 
ATOM     14  C   UNL     1       1.115   9.422  21.243  0.00  0.00    +0.000 A 
ATOM     15  O   UNL     1       0.767   9.992  22.278  0.00  0.00    +0.000 OA
ATOM     16  C   UNL     1       1.403   7.954  21.268  0.00  0.00    +0.000 A 
ENDBRANCH   5   9
BRANCH   1  17
ATOM     17  C   UNL     1       5.115   3.936  17.038  0.00  0.00    +0.000 C 
BRANCH  17  19
ATOM     18  C   UNL     1       6.269   3.848  14.755  0.00  0.00    +0.000 C 
ATOM     19  C   UNL     1       5.971   4.697  15.990  0.00  0.00    +0.000 C 
ATOM     20  C   UNL     1       5.264   5.981  15.553  0.00  0.00    +0.000 C 
ENDBRANCH  17  19
ENDBRANCH   1  17
TORSDOF 3
ENDMDL
MODEL 9
REMARK VINA RESULT:      -6.1      4.972      7.306
REMARK  Name = 
REMARK  6 active torsions:
REMARK  status: ('A' for Active; 'I' for Inactive)
REMARK    1  A    between atoms: C_1  and  C_2
REMARK    2  A    between atoms: C_2  and  C_3
REMARK    3  A    between atoms: C_2  and  C_4
REMARK    4  A    between atoms: C_4  and  N_5
REMARK    5  A    between atoms: C_9  and  C_11
REMARK    6  A    between atoms: N_14  and  C_15
REMARK                            x       y       z     vdW  Elec       q    Type
REMARK                         _______ _______ _______ _____ _____    ______ ____
ROOT
ATOM      1  N   UNL     1       0.374  10.384  20.048  0.00  0.00    +0.000 NA
ATOM      2  C   UNL     1       1.047   9.302  20.780  0.00  0.00    +0.000 C 
ATOM      3  C   UNL     1       1.530   8.160  19.886  0.00  0.00    +0.000 C 
ATOM      4  N   UNL     1       2.254   8.515  18.669  0.00  0.00    +0.000 N 
ATOM      5  C   UNL     1       2.921   7.585  17.855  0.00  0.00    +0.000 C 
ATOM      6  O   UNL     1       3.420   7.918  16.778  0.00  0.00    +0.000 OA
ATOM      7  C   UNL     1       1.825   9.765  18.024  0.00  0.00    +0.000 C 
ATOM      8  C   UNL     1       1.323  10.850  19.007  0.00  0.00    +0.000 C 
ENDROOT
BRANCH   5   9
ATOM      9  C   UNL     1       3.045   6.130  18.296  0.00  0.00    +0.000 A 
ATOM     10  C   UNL     1       4.053   5.628  19.209  0.00  0.00    +0.000 A 
ATOM     11  C   UNL     1       4.168   4.334  19.501  0.00  0.00    +0.000 A 
ATOM     12  N   UNL     1       3.247   3.427  19.045  0.00  0.00    +0.000 N 
ATOM     13  C   UNL     1       3.332   2.059  19.526  0.00  0.00    +0.000 C 
ATOM     14  C   UNL     1       2.146   3.823  18.287  0.00  0.00    +0.000 A 
ATOM     15  O   UNL     1       1.237   3.065  17.951  0.00  0.00    +0.000 OA
ATOM     16  C   UNL     1       2.096   5.264  17.886  0.00  0.00    +0.000 A 
ENDBRANCH   5   9
BRANCH   1  17
ATOM     17  C   UNL     1      -0.939  10.017  19.475  0.00  0.00    +0.000 C 
BRANCH  17  19
ATOM     18  C   UNL     1      -2.039  10.044  17.164  0.00  0.00    +0.000 C 
ATOM     19  C   UNL     1      -1.426  10.884  18.284  0.00  0.00    +0.000 C 
ATOM     20  C   UNL     1      -2.456  11.911  18.756  0.00  0.00    +0.000 C 
ENDBRANCH  17  19
ENDBRANCH   1  17
TORSDOF 3
ENDMDL
