MODEL 1
REMARK VINA RESULT:      -8.1      0.000      0.000
REMARK  Name = 
REMARK  4 active torsions:
REMARK  status: ('A' for Active; 'I' for Inactive)
REMARK    1  A    between atoms: S_2  and  C_4
REMARK    2  A    between atoms: S_2  and  N_10
REMARK    3  A    between atoms: N_13  and  C_14
REMARK    4  A    between atoms: C_14  and  C_15
REMARK                            x       y       z     vdW  Elec       q    Type
REMARK                         _______ _______ _______ _____ _____    ______ ____
ROOT
ATOM      1  N   UNL     1       5.463   5.040  16.657  0.00  0.00    +0.000 NA
ATOM      2  C   UNL     1       5.202   4.273  17.920  0.00  0.00    +0.000 C 
ATOM      3  C   UNL     1       5.128   5.161  19.194  0.00  0.00    +0.000 C 
ATOM      4  N   UNL     1       4.390   6.442  19.081  0.00  0.00    +0.000 NA
ATOM      5  C   UNL     1       4.883   7.137  17.870  0.00  0.00    +0.000 C 
ATOM      6  C   UNL     1       4.698   6.317  16.587  0.00  0.00    +0.000 C 
ENDROOT
BRANCH   1   8
ATOM      7  O   UNL     1       7.820   4.098  16.805  0.00  0.00    +0.000 OA
ATOM      8  S   UNL     1       7.078   5.142  16.133  0.00  0.00    +0.000 S 
ATOM      9  O   UNL     1       7.498   6.527  16.192  0.00  0.00    +0.000 OA
BRANCH   8  10
ATOM     10  C   UNL     1       6.957   4.734  14.409  0.00  0.00    +0.000 A 
ATOM     11  C   UNL     1       7.809   5.370  13.499  0.00  0.00    +0.000 A 
ATOM     12  C   UNL     1       7.750   5.024  12.149  0.00  0.00    +0.000 A 
ATOM     13  C   UNL     1       6.848   4.048  11.719  0.00  0.00    +0.000 A 
ATOM     14  C   UNL     1       6.004   3.416  12.634  0.00  0.00    +0.000 A 
ATOM     15  C   UNL     1       6.055   3.757  13.985  0.00  0.00    +0.000 A 
ENDBRANCH   8  10
ENDBRANCH   1   8
BRANCH   4  16
ATOM     16  C   UNL     1       2.922   6.221  19.077  0.00  0.00    +0.000 C 
BRANCH  16  17
ATOM     17  C   UNL     1       2.116   7.304  19.744  0.00  0.00    +0.000 A 
ATOM     18  N   UNL     1       1.613   7.291  20.967  0.00  0.00    +0.000 NA
ATOM     19  C   UNL     1       0.933   8.480  21.054  0.00  0.00    +0.000 A 
ATOM     20  C   UNL     1       0.172   9.021  22.098  0.00  0.00    +0.000 A 
ATOM     21  C   UNL     1      -0.420  10.271  21.885  0.00  0.00    +0.000 A 
ATOM     22 CL   UNL     1      -1.380  10.964  23.140  0.00  0.00    +0.000 Cl
ATOM     23  C   UNL     1      -0.257  10.967  20.682  0.00  0.00    +0.000 A 
ATOM     24  C   UNL     1       0.507  10.436  19.631  0.00  0.00    +0.000 A 
ATOM     25  C   UNL     1       1.073   9.188  19.870  0.00  0.00    +0.000 A 
ATOM     26  O   UNL     1       1.840   8.439  19.021  0.00  0.00    +0.000 OA
ENDBRANCH  16  17
ENDBRANCH   4  16
TORSDOF 4
ENDMDL
MODEL 2
REMARK VINA RESULT:      -8.1      0.638      1.154
REMARK  Name = 
REMARK  4 active torsions:
REMARK  status: ('A' for Active; 'I' for Inactive)
REMARK    1  A    between atoms: S_2  and  C_4
REMARK    2  A    between atoms: S_2  and  N_10
REMARK    3  A    between atoms: N_13  and  C_14
REMARK    4  A    between atoms: C_14  and  C_15
REMARK                            x       y       z     vdW  Elec       q    Type
REMARK                         _______ _______ _______ _____ _____    ______ ____
ROOT
ATOM      1  N   UNL     1       5.409   5.096  16.550  0.00  0.00    +0.000 NA
ATOM      2  C   UNL     1       4.950   3.879  17.297  0.00  0.00    +0.000 C 
ATOM      3  C   UNL     1       4.909   4.062  18.840  0.00  0.00    +0.000 C 
ATOM      4  N   UNL     1       4.372   5.345  19.353  0.00  0.00    +0.000 NA
ATOM      5  C   UNL     1       5.047   6.438  18.617  0.00  0.00    +0.000 C 
ATOM      6  C   UNL     1       4.841   6.359  17.099  0.00  0.00    +0.000 C 
ENDROOT
BRANCH   1   8
ATOM      7  O   UNL     1       7.739   4.125  16.861  0.00  0.00    +0.000 OA
ATOM      8  S   UNL     1       7.057   5.172  16.133  0.00  0.00    +0.000 S 
ATOM      9  O   UNL     1       7.490   6.553  16.206  0.00  0.00    +0.000 OA
BRANCH   8  10
ATOM     10  C   UNL     1       7.043   4.749  14.408  0.00  0.00    +0.000 A 
ATOM     11  C   UNL     1       6.156   3.764  13.958  0.00  0.00    +0.000 A 
ATOM     12  C   UNL     1       6.108   3.457  12.598  0.00  0.00    +0.000 A 
ATOM     13  C   UNL     1       6.937   4.133  11.701  0.00  0.00    +0.000 A 
ATOM     14  C   UNL     1       7.816   5.117  12.157  0.00  0.00    +0.000 A 
ATOM     15  C   UNL     1       7.873   5.430  13.516  0.00  0.00    +0.000 A 
ENDBRANCH   8  10
ENDBRANCH   1   8
BRANCH   4  16
ATOM     16  C   UNL     1       2.892   5.391  19.249  0.00  0.00    +0.000 C 
BRANCH  16  17
ATOM     17  C   UNL     1       2.260   6.664  19.747  0.00  0.00    +0.000 A 
ATOM     18  N   UNL     1       1.787   6.904  20.958  0.00  0.00    +0.000 NA
ATOM     19  C   UNL     1       1.283   8.176  20.866  0.00  0.00    +0.000 A 
ATOM     20  C   UNL     1       0.628   8.969  21.817  0.00  0.00    +0.000 A 
ATOM     21  C   UNL     1       0.212  10.245  21.420  0.00  0.00    +0.000 A 
ATOM     22 CL   UNL     1      -0.614  11.246  22.556  0.00  0.00    +0.000 Cl
ATOM     23  C   UNL     1       0.445  10.725  20.125  0.00  0.00    +0.000 A 
ATOM     24  C   UNL     1       1.104   9.940  19.166  0.00  0.00    +0.000 A 
ATOM     25  C   UNL     1       1.495   8.674  19.589  0.00  0.00    +0.000 A 
ATOM     26  O   UNL     1       2.131   7.706  18.862  0.00  0.00    +0.000 OA
ENDBRANCH  16  17
ENDBRANCH   4  16
TORSDOF 4
ENDMDL
MODEL 3
REMARK VINA RESULT:      -7.9      1.061      1.432
REMARK  Name = 
REMARK  4 active torsions:
REMARK  status: ('A' for Active; 'I' for Inactive)
REMARK    1  A    between atoms: S_2  and  C_4
REMARK    2  A    between atoms: S_2  and  N_10
REMARK    3  A    between atoms: N_13  and  C_14
REMARK    4  A    between atoms: C_14  and  C_15
REMARK                            x       y       z     vdW  Elec       q    Type
REMARK                         _______ _______ _______ _____ _____    ______ ____
ROOT
ATOM      1  N   UNL     1       5.400   5.042  16.596  0.00  0.00    +0.000 NA
ATOM      2  C   UNL     1       5.029   3.904  17.502  0.00  0.00    +0.000 C 
ATOM      3  C   UNL     1       5.017   4.276  19.011  0.00  0.00    +0.000 C 
ATOM      4  N   UNL     1       4.422   5.584  19.379  0.00  0.00    +0.000 NA
ATOM      5  C   UNL     1       5.015   6.610  18.492  0.00  0.00    +0.000 C 
ATOM      6  C   UNL     1       4.776   6.332  17.003  0.00  0.00    +0.000 C 
ENDROOT
BRANCH   1   8
ATOM      7  O   UNL     1       7.756   4.108  16.809  0.00  0.00    +0.000 OA
ATOM      8  S   UNL     1       7.030   5.152  16.120  0.00  0.00    +0.000 S 
ATOM      9  O   UNL     1       7.442   6.538  16.197  0.00  0.00    +0.000 OA
BRANCH   8  10
ATOM     10  C   UNL     1       6.960   4.750  14.392  0.00  0.00    +0.000 A 
ATOM     11  C   UNL     1       7.825   5.405  13.507  0.00  0.00    +0.000 A 
ATOM     12  C   UNL     1       7.806   5.064  12.154  0.00  0.00    +0.000 A 
ATOM     13  C   UNL     1       6.933   4.075  11.697  0.00  0.00    +0.000 A 
ATOM     14  C   UNL     1       6.076   3.424  12.586  0.00  0.00    +0.000 A 
ATOM     15  C   UNL     1       6.086   3.760  13.940  0.00  0.00    +0.000 A 
ENDBRANCH   8  10
ENDBRANCH   1   8
BRANCH   4  16
ATOM     16  C   UNL     1       2.939   5.538  19.317  0.00  0.00    +0.000 C 
BRANCH  16  17
ATOM     17  C   UNL     1       2.250   6.834  19.654  0.00  0.00    +0.000 A 
ATOM     18  N   UNL     1       2.068   7.875  18.860  0.00  0.00    +0.000 NA
ATOM     19  C   UNL     1       1.445   8.795  19.665  0.00  0.00    +0.000 A 
ATOM     20  C   UNL     1       1.022  10.103  19.397  0.00  0.00    +0.000 A 
ATOM     21  C   UNL     1       0.415  10.813  20.440  0.00  0.00    +0.000 A 
ATOM     22 CL   UNL     1      -0.103  12.433  20.156  0.00  0.00    +0.000 Cl
ATOM     23  C   UNL     1       0.225  10.243  21.705  0.00  0.00    +0.000 A 
ATOM     24  C   UNL     1       0.641   8.932  21.982  0.00  0.00    +0.000 A 
ATOM     25  C   UNL     1       1.250   8.257  20.928  0.00  0.00    +0.000 A 
ATOM     26  O   UNL     1       1.762   6.990  20.928  0.00  0.00    +0.000 OA
ENDBRANCH  16  17
ENDBRANCH   4  16
TORSDOF 4
ENDMDL
MODEL 4
REMARK VINA RESULT:      -7.5      4.786      7.460
REMARK  Name = 
REMARK  4 active torsions:
REMARK  status: ('A' for Active; 'I' for Inactive)
REMARK    1  A    between atoms: S_2  and  C_4
REMARK    2  A    between atoms: S_2  and  N_10
REMARK    3  A    between atoms: N_13  and  C_14
REMARK    4  A    between atoms: C_14  and  C_15
REMARK                            x       y       z     vdW  Elec       q    Type
REMARK                         _______ _______ _______ _____ _____    ______ ____
ROOT
ATOM      1  N   UNL     1       5.461   4.301  18.145  0.00  0.00    +0.000 NA
ATOM      2  C   UNL     1       6.547   4.299  17.110  0.00  0.00    +0.000 C 
ATOM      3  C   UNL     1       6.703   5.649  16.356  0.00  0.00    +0.000 C 
ATOM      4  N   UNL     1       6.619   6.888  17.167  0.00  0.00    +0.000 NA
ATOM      5  C   UNL     1       5.408   6.787  18.012  0.00  0.00    +0.000 C 
ATOM      6  C   UNL     1       5.418   5.562  18.936  0.00  0.00    +0.000 C 
ENDROOT
BRANCH   1   8
ATOM      7  O   UNL     1       4.150   2.375  17.125  0.00  0.00    +0.000 OA
ATOM      8  S   UNL     1       3.942   3.697  17.673  0.00  0.00    +0.000 S 
ATOM      9  O   UNL     1       3.246   4.726  16.927  0.00  0.00    +0.000 OA
BRANCH   8  10
ATOM     10  C   UNL     1       3.085   3.543  19.221  0.00  0.00    +0.000 A 
ATOM     11  C   UNL     1       1.904   4.268  19.419  0.00  0.00    +0.000 A 
ATOM     12  C   UNL     1       1.202   4.119  20.615  0.00  0.00    +0.000 A 
ATOM     13  C   UNL     1       1.677   3.249  21.599  0.00  0.00    +0.000 A 
ATOM     14  C   UNL     1       2.854   2.526  21.392  0.00  0.00    +0.000 A 
ATOM     15  C   UNL     1       3.564   2.670  20.200  0.00  0.00    +0.000 A 
ENDBRANCH   8  10
ENDBRANCH   1   8
BRANCH   4  16
ATOM     16  C   UNL     1       7.864   7.110  17.945  0.00  0.00    +0.000 C 
BRANCH  16  17
ATOM     17  C   UNL     1       8.226   8.555  18.163  0.00  0.00    +0.000 A 
ATOM     18  N   UNL     1       7.864   9.592  17.428  0.00  0.00    +0.000 NA
ATOM     19  C   UNL     1       8.499  10.653  18.023  0.00  0.00    +0.000 A 
ATOM     20  C   UNL     1       8.522  12.011  17.680  0.00  0.00    +0.000 A 
ATOM     21  C   UNL     1       9.281  12.868  18.486  0.00  0.00    +0.000 A 
ATOM     22 CL   UNL     1       9.350  14.545  18.087  0.00  0.00    +0.000 Cl
ATOM     23  C   UNL     1       9.986  12.397  19.600  0.00  0.00    +0.000 A 
ATOM     24  C   UNL     1       9.966  11.040  19.954  0.00  0.00    +0.000 A 
ATOM     25  C   UNL     1       9.212  10.213  19.127  0.00  0.00    +0.000 A 
ATOM     26  O   UNL     1       9.037   8.861  19.229  0.00  0.00    +0.000 OA
ENDBRANCH  16  17
ENDBRANCH   4  16
TORSDOF 4
ENDMDL
MODEL 5
REMARK VINA RESULT:      -7.1      1.060      1.720
REMARK  Name = 
REMARK  4 active torsions:
REMARK  status: ('A' for Active; 'I' for Inactive)
REMARK    1  A    between atoms: S_2  and  C_4
REMARK    2  A    between atoms: S_2  and  N_10
REMARK    3  A    between atoms: N_13  and  C_14
REMARK    4  A    between atoms: C_14  and  C_15
REMARK                            x       y       z     vdW  Elec       q    Type
REMARK                         _______ _______ _______ _____ _____    ______ ____
ROOT
ATOM      1  N   UNL     1       4.947   5.566  16.185  0.00  0.00    +0.000 NA
ATOM      2  C   UNL     1       4.075   4.779  17.119  0.00  0.00    +0.000 C 
ATOM      3  C   UNL     1       3.931   5.410  18.532  0.00  0.00    +0.000 C 
ATOM      4  N   UNL     1       3.745   6.880  18.598  0.00  0.00    +0.000 NA
ATOM      5  C   UNL     1       4.784   7.501  17.745  0.00  0.00    +0.000 C 
ATOM      6  C   UNL     1       4.723   7.035  16.285  0.00  0.00    +0.000 C 
ENDROOT
BRANCH   1   8
ATOM      7  O   UNL     1       6.749   3.912  16.883  0.00  0.00    +0.000 OA
ATOM      8  S   UNL     1       6.578   5.096  16.069  0.00  0.00    +0.000 S 
ATOM      9  O   UNL     1       7.412   6.267  16.250  0.00  0.00    +0.000 OA
BRANCH   8  10
ATOM     10  C   UNL     1       6.732   4.638  14.360  0.00  0.00    +0.000 A 
ATOM     11  C   UNL     1       5.871   3.666  13.837  0.00  0.00    +0.000 A 
ATOM     12  C   UNL     1       5.956   3.332  12.485  0.00  0.00    +0.000 A 
ATOM     13  C   UNL     1       6.892   3.970  11.668  0.00  0.00    +0.000 A 
ATOM     14  C   UNL     1       7.745   4.941  12.197  0.00  0.00    +0.000 A 
ATOM     15  C   UNL     1       7.668   5.279  13.547  0.00  0.00    +0.000 A 
ENDBRANCH   8  10
ENDBRANCH   1   8
BRANCH   4  16
ATOM     16  C   UNL     1       2.362   7.267  18.218  0.00  0.00    +0.000 C 
BRANCH  16  17
ATOM     17  C   UNL     1       1.668   8.179  19.195  0.00  0.00    +0.000 A 
ATOM     18  N   UNL     1       1.207   9.396  18.967  0.00  0.00    +0.000 NA
ATOM     19  C   UNL     1       0.724   9.797  20.187  0.00  0.00    +0.000 A 
ATOM     20  C   UNL     1       0.137  11.005  20.584  0.00  0.00    +0.000 A 
ATOM     21  C   UNL     1      -0.254  11.126  21.922  0.00  0.00    +0.000 A 
ATOM     22 CL   UNL     1      -0.965  12.605  22.454  0.00  0.00    +0.000 Cl
ATOM     23  C   UNL     1      -0.077  10.081  22.837  0.00  0.00    +0.000 A 
ATOM     24  C   UNL     1       0.506   8.865  22.449  0.00  0.00    +0.000 A 
ATOM     25  C   UNL     1       0.892   8.781  21.115  0.00  0.00    +0.000 A 
ATOM     26  O   UNL     1       1.496   7.730  20.482  0.00  0.00    +0.000 OA
ENDBRANCH  16  17
ENDBRANCH   4  16
TORSDOF 4
ENDMDL
MODEL 6
REMARK VINA RESULT:      -7.0      2.452      3.440
REMARK  Name = 
REMARK  4 active torsions:
REMARK  status: ('A' for Active; 'I' for Inactive)
REMARK    1  A    between atoms: S_2  and  C_4
REMARK    2  A    between atoms: S_2  and  N_10
REMARK    3  A    between atoms: N_13  and  C_14
REMARK    4  A    between atoms: C_14  and  C_15
REMARK                            x       y       z     vdW  Elec       q    Type
REMARK                         _______ _______ _______ _____ _____    ______ ____
ROOT
ATOM      1  N   UNL     1       3.795   4.959  19.438  0.00  0.00    +0.000 NA
ATOM      2  C   UNL     1       3.780   6.352  18.881  0.00  0.00    +0.000 C 
ATOM      3  C   UNL     1       2.364   6.990  18.813  0.00  0.00    +0.000 C 
ATOM      4  N   UNL     1       1.471   6.776  19.977  0.00  0.00    +0.000 NA
ATOM      5  C   UNL     1       1.484   5.329  20.290  0.00  0.00    +0.000 C 
ATOM      6  C   UNL     1       2.886   4.793  20.606  0.00  0.00    +0.000 C 
ENDROOT
BRANCH   1   8
ATOM      7  O   UNL     1       2.504   3.747  17.612  0.00  0.00    +0.000 OA
ATOM      8  S   UNL     1       3.765   3.678  18.318  0.00  0.00    +0.000 S 
ATOM      9  O   UNL     1       4.193   2.467  18.988  0.00  0.00    +0.000 OA
BRANCH   8  10
ATOM     10  C   UNL     1       5.070   4.111  17.194  0.00  0.00    +0.000 A 
ATOM     11  C   UNL     1       6.351   4.353  17.703  0.00  0.00    +0.000 A 
ATOM     12  C   UNL     1       7.392   4.651  16.823  0.00  0.00    +0.000 A 
ATOM     13  C   UNL     1       7.149   4.701  15.448  0.00  0.00    +0.000 A 
ATOM     14  C   UNL     1       5.869   4.455  14.949  0.00  0.00    +0.000 A 
ATOM     15  C   UNL     1       4.822   4.158  15.821  0.00  0.00    +0.000 A 
ENDBRANCH   8  10
ENDBRANCH   1   8
BRANCH   4  16
ATOM     16  C   UNL     1       1.866   7.631  21.125  0.00  0.00    +0.000 C 
BRANCH  16  17
ATOM     17  C   UNL     1       0.933   8.778  21.411  0.00  0.00    +0.000 A 
ATOM     18  N   UNL     1       0.449   9.144  22.586  0.00  0.00    +0.000 NA
ATOM     19  C   UNL     1      -0.378  10.196  22.285  0.00  0.00    +0.000 A 
ATOM     20  C   UNL     1      -1.193  10.981  23.111  0.00  0.00    +0.000 A 
ATOM     21  C   UNL     1      -1.945  11.994  22.505  0.00  0.00    +0.000 A 
ATOM     22 CL   UNL     1      -2.973  12.971  23.485  0.00  0.00    +0.000 Cl
ATOM     23  C   UNL     1      -1.886  12.227  21.125  0.00  0.00    +0.000 A 
ATOM     24  C   UNL     1      -1.071  11.449  20.289  0.00  0.00    +0.000 A 
ATOM     25  C   UNL     1      -0.345  10.445  20.922  0.00  0.00    +0.000 A 
ATOM     26  O   UNL     1       0.504   9.538  20.350  0.00  0.00    +0.000 OA
ENDBRANCH  16  17
ENDBRANCH   4  16
TORSDOF 4
ENDMDL
MODEL 7
REMARK VINA RESULT:      -7.0      4.818      7.361
REMARK  Name = 
REMARK  4 active torsions:
REMARK  status: ('A' for Active; 'I' for Inactive)
REMARK    1  A    between atoms: S_2  and  C_4
REMARK    2  A    between atoms: S_2  and  N_10
REMARK    3  A    between atoms: N_13  and  C_14
REMARK    4  A    between atoms: C_14  and  C_15
REMARK                            x       y       z     vdW  Elec       q    Type
REMARK                         _______ _______ _______ _____ _____    ______ ____
ROOT
ATOM      1  N   UNL     1       5.430   4.556  18.316  0.00  0.00    +0.000 NA
ATOM      2  C   UNL     1       6.669   4.412  17.482  0.00  0.00    +0.000 C 
ATOM      3  C   UNL     1       6.999   5.661  16.617  0.00  0.00    +0.000 C 
ATOM      4  N   UNL     1       6.832   6.988  17.258  0.00  0.00    +0.000 NA
ATOM      5  C   UNL     1       5.496   7.011  17.897  0.00  0.00    +0.000 C 
ATOM      6  C   UNL     1       5.308   5.903  18.941  0.00  0.00    +0.000 C 
ENDROOT
BRANCH   1   8
ATOM      7  O   UNL     1       4.302   2.671  17.035  0.00  0.00    +0.000 OA
ATOM      8  S   UNL     1       3.986   3.931  17.669  0.00  0.00    +0.000 S 
ATOM      9  O   UNL     1       3.303   4.990  16.953  0.00  0.00    +0.000 OA
BRANCH   8  10
ATOM     10  C   UNL     1       3.015   3.610  19.121  0.00  0.00    +0.000 A 
ATOM     11  C   UNL     1       3.566   2.835  20.149  0.00  0.00    +0.000 A 
ATOM     12  C   UNL     1       2.827   2.614  21.311  0.00  0.00    +0.000 A 
ATOM     13  C   UNL     1       1.551   3.168  21.441  0.00  0.00    +0.000 A 
ATOM     14  C   UNL     1       1.010   3.943  20.413  0.00  0.00    +0.000 A 
ATOM     15  C   UNL     1       1.741   4.167  19.247  0.00  0.00    +0.000 A 
ENDBRANCH   8  10
ENDBRANCH   1   8
BRANCH   4  16
ATOM     16  C   UNL     1       7.941   7.275  18.202  0.00  0.00    +0.000 C 
BRANCH  16  17
ATOM     17  C   UNL     1       8.337   8.725  18.291  0.00  0.00    +0.000 A 
ATOM     18  N   UNL     1       9.228   9.263  19.106  0.00  0.00    +0.000 NA
ATOM     19  C   UNL     1       9.166  10.604  18.819  0.00  0.00    +0.000 A 
ATOM     20  C   UNL     1       9.855  11.688  19.376  0.00  0.00    +0.000 A 
ATOM     21  C   UNL     1       9.567  12.963  18.875  0.00  0.00    +0.000 A 
ATOM     22 CL   UNL     1      10.381  14.328  19.546  0.00  0.00    +0.000 Cl
ATOM     23  C   UNL     1       8.633  13.157  17.850  0.00  0.00    +0.000 A 
ATOM     24  C   UNL     1       7.941  12.076  17.282  0.00  0.00    +0.000 A 
ATOM     25  C   UNL     1       8.242  10.825  17.809  0.00  0.00    +0.000 A 
ATOM     26  O   UNL     1       7.706   9.616  17.459  0.00  0.00    +0.000 OA
ENDBRANCH  16  17
ENDBRANCH   4  16
TORSDOF 4
ENDMDL
MODEL 8
REMARK VINA RESULT:      -7.0      2.660      3.739
REMARK  Name = 
REMARK  4 active torsions:
REMARK  status: ('A' for Active; 'I' for Inactive)
REMARK    1  A    between atoms: S_2  and  C_4
REMARK    2  A    between atoms: S_2  and  N_10
REMARK    3  A    between atoms: N_13  and  C_14
REMARK    4  A    between atoms: C_14  and  C_15
REMARK                            x       y       z     vdW  Elec       q    Type
REMARK                         _______ _______ _______ _____ _____    ______ ____
ROOT
ATOM      1  N   UNL     1       3.786   4.877  19.661  0.00  0.00    +0.000 NA
ATOM      2  C   UNL     1       3.807   6.239  19.031  0.00  0.00    +0.000 C 
ATOM      3  C   UNL     1       2.397   6.858  18.817  0.00  0.00    +0.000 C 
ATOM      4  N   UNL     1       1.416   6.697  19.917  0.00  0.00    +0.000 NA
ATOM      5  C   UNL     1       1.413   5.269  20.308  0.00  0.00    +0.000 C 
ATOM      6  C   UNL     1       2.789   4.765  20.762  0.00  0.00    +0.000 C 
ENDROOT
BRANCH   1   8
ATOM      7  O   UNL     1       2.575   3.448  17.942  0.00  0.00    +0.000 OA
ATOM      8  S   UNL     1       3.852   3.539  18.613  0.00  0.00    +0.000 S 
ATOM      9  O   UNL     1       4.411   2.413  19.335  0.00  0.00    +0.000 OA
BRANCH   8  10
ATOM     10  C   UNL     1       5.083   4.029  17.431  0.00  0.00    +0.000 A 
ATOM     11  C   UNL     1       6.378   4.314  17.877  0.00  0.00    +0.000 A 
ATOM     12  C   UNL     1       7.362   4.658  16.949  0.00  0.00    +0.000 A 
ATOM     13  C   UNL     1       7.049   4.710  15.589  0.00  0.00    +0.000 A 
ATOM     14  C   UNL     1       5.755   4.421  15.152  0.00  0.00    +0.000 A 
ATOM     15  C   UNL     1       4.765   4.078  16.072  0.00  0.00    +0.000 A 
ENDBRANCH   8  10
ENDBRANCH   1   8
BRANCH   4  16
ATOM     16  C   UNL     1       1.714   7.616  21.045  0.00  0.00    +0.000 C 
BRANCH  16  17
ATOM     17  C   UNL     1       0.771   8.783  21.177  0.00  0.00    +0.000 A 
ATOM     18  N   UNL     1       0.367   9.599  20.219  0.00  0.00    +0.000 NA
ATOM     19  C   UNL     1      -0.428  10.505  20.875  0.00  0.00    +0.000 A 
ATOM     20  C   UNL     1      -1.118  11.626  20.398  0.00  0.00    +0.000 A 
ATOM     21  C   UNL     1      -1.852  12.377  21.324  0.00  0.00    +0.000 A 
ATOM     22 CL   UNL     1      -2.701  13.775  20.779  0.00  0.00    +0.000 Cl
ATOM     23  C   UNL     1      -1.907  12.023  22.677  0.00  0.00    +0.000 A 
ATOM     24  C   UNL     1      -1.222  10.900  23.165  0.00  0.00    +0.000 A 
ATOM     25  C   UNL     1      -0.495  10.181  22.221  0.00  0.00    +0.000 A 
ATOM     26  O   UNL     1       0.272   9.068  22.424  0.00  0.00    +0.000 OA
ENDBRANCH  16  17
ENDBRANCH   4  16
TORSDOF 4
ENDMDL
MODEL 9
REMARK VINA RESULT:      -7.0      4.899      7.504
REMARK  Name = 
REMARK  4 active torsions:
REMARK  status: ('A' for Active; 'I' for Inactive)
REMARK    1  A    between atoms: S_2  and  C_4
REMARK    2  A    between atoms: S_2  and  N_10
REMARK    3  A    between atoms: N_13  and  C_14
REMARK    4  A    between atoms: C_14  and  C_15
REMARK                            x       y       z     vdW  Elec       q    Type
REMARK                         _______ _______ _______ _____ _____    ______ ____
ROOT
ATOM      1  N   UNL     1       5.092   5.200  18.497  0.00  0.00    +0.000 NA
ATOM      2  C   UNL     1       6.368   4.604  17.979  0.00  0.00    +0.000 C 
ATOM      3  C   UNL     1       7.080   5.472  16.903  0.00  0.00    +0.000 C 
ATOM      4  N   UNL     1       7.128   6.935  17.140  0.00  0.00    +0.000 NA
ATOM      5  C   UNL     1       5.757   7.377  17.485  0.00  0.00    +0.000 C 
ATOM      6  C   UNL     1       5.189   6.669  18.722  0.00  0.00    +0.000 C 
ENDROOT
BRANCH   1   8
ATOM      7  O   UNL     1       3.993   3.716  16.747  0.00  0.00    +0.000 OA
ATOM      8  S   UNL     1       3.645   4.680  17.768  0.00  0.00    +0.000 S 
ATOM      9  O   UNL     1       2.834   5.842  17.468  0.00  0.00    +0.000 OA
BRANCH   8  10
ATOM     10  C   UNL     1       2.823   3.831  19.094  0.00  0.00    +0.000 A 
ATOM     11  C   UNL     1       3.593   3.149  20.044  0.00  0.00    +0.000 A 
ATOM     12  C   UNL     1       2.957   2.517  21.113  0.00  0.00    +0.000 A 
ATOM     13  C   UNL     1       1.567   2.572  21.229  0.00  0.00    +0.000 A 
ATOM     14  C   UNL     1       0.807   3.258  20.279  0.00  0.00    +0.000 A 
ATOM     15  C   UNL     1       1.433   3.891  19.206  0.00  0.00    +0.000 A 
ENDBRANCH   8  10
ENDBRANCH   1   8
BRANCH   4  16
ATOM     16  C   UNL     1       8.136   7.282  18.173  0.00  0.00    +0.000 C 
BRANCH  16  17
ATOM     17  C   UNL     1       8.438   8.752  18.295  0.00  0.00    +0.000 A 
ATOM     18  N   UNL     1       8.041   9.722  17.489  0.00  0.00    +0.000 NA
ATOM     19  C   UNL     1       8.628  10.845  18.014  0.00  0.00    +0.000 A 
ATOM     20  C   UNL     1       8.600  12.176  17.581  0.00  0.00    +0.000 A 
ATOM     21  C   UNL     1       9.316  13.116  18.331  0.00  0.00    +0.000 A 
ATOM     22 CL   UNL     1       9.321  14.764  17.820  0.00  0.00    +0.000 Cl
ATOM     23  C   UNL     1      10.031  12.751  19.478  0.00  0.00    +0.000 A 
ATOM     24  C   UNL     1      10.062  11.421  19.923  0.00  0.00    +0.000 A 
ATOM     25  C   UNL     1       9.348  10.510  19.151  0.00  0.00    +0.000 A 
ATOM     26  O   UNL     1       9.227   9.162  19.342  0.00  0.00    +0.000 OA
ENDBRANCH  16  17
ENDBRANCH   4  16
TORSDOF 4
ENDMDL
