MODEL 1
REMARK VINA RESULT:      -8.3      0.000      0.000
REMARK  Name = 
REMARK  11 active torsions:
REMARK  status: ('A' for Active; 'I' for Inactive)
REMARK    1  A    between atoms: C_1  and  C_2
REMARK    2  A    between atoms: C_2  and  C_3
REMARK    3  A    between atoms: C_2  and  C_4
REMARK    4  A    between atoms: C_4  and  C_5
REMARK    5  A    between atoms: C_8  and  C_9
REMARK    6  A    between atoms: C_9  and  C_10
REMARK    7  A    between atoms: C_9  and  C_11
REMARK    8  A    between atoms: N_13  and  C_14
REMARK    9  A    between atoms: C_14  and  C_15
REMARK   10  A    between atoms: C_15  and  N_16
REMARK   11  A    between atoms: N_19  and  C_20
REMARK                            x       y       z     vdW  Elec       q    Type
REMARK                         _______ _______ _______ _____ _____    ______ ____
ROOT
ATOM      1  C   UNL     1       6.997   5.268  17.200  0.00  0.00    +0.000 C 
ATOM      2  O   UNL     1       7.941   4.529  17.478  0.00  0.00    +0.000 OA
ATOM      3  N   UNL     1       6.983   6.597  17.563  0.00  0.00    +0.000 N 
ATOM      4  H   UNL     1       6.188   7.176  17.316  0.00  0.00    +0.000 HD
ENDROOT
BRANCH   1   5
ATOM      5  C   UNL     1       5.794   4.766  16.389  0.00  0.00    +0.000 C 
ATOM      6  C   UNL     1       5.304   5.884  15.462  0.00  0.00    +0.000 C 
BRANCH   5  10
ATOM      7  C   UNL     1       2.584   2.945  18.710  0.00  0.00    +0.000 A 
ATOM      8  C   UNL     1       3.920   2.819  19.099  0.00  0.00    +0.000 A 
ATOM      9  C   UNL     1       4.931   3.431  18.353  0.00  0.00    +0.000 A 
ATOM     10  C   UNL     1       4.641   4.161  17.186  0.00  0.00    +0.000 A 
ATOM     11  C   UNL     1       3.295   4.297  16.821  0.00  0.00    +0.000 A 
ATOM     12  C   UNL     1       2.283   3.684  17.563  0.00  0.00    +0.000 A 
BRANCH   7  13
ATOM     13  C   UNL     1       1.469   2.393  19.567  0.00  0.00    +0.000 C 
BRANCH  13  15
ATOM     14  C   UNL     1       2.129   2.982  21.954  0.00  0.00    +0.000 C 
ATOM     15  C   UNL     1       1.179   3.285  20.791  0.00  0.00    +0.000 C 
ATOM     16  C   UNL     1       1.280   4.762  20.410  0.00  0.00    +0.000 C 
ENDBRANCH  13  15
ENDBRANCH   7  13
ENDBRANCH   5  10
ENDBRANCH   1   5
BRANCH   3  17
ATOM     17  C   UNL     1       8.042   7.185  18.368  0.00  0.00    +0.000 C 
BRANCH  17  18
ATOM     18  C   UNL     1       8.246   8.671  18.059  0.00  0.00    +0.000 C 
BRANCH  18  19
ATOM     19  N   UNL     1       9.109   9.344  19.017  0.00  0.00    +0.000 N 
ATOM     20  C   UNL     1       9.211  10.707  19.009  0.00  0.00    +0.000 C 
ATOM     21  O   UNL     1       8.567  11.418  18.237  0.00  0.00    +0.000 OA
ATOM     22  N   UNL     1      10.149  11.166  19.910  0.00  0.00    +0.000 N 
ATOM     23  H   UNL     1       9.257   8.888  19.910  0.00  0.00    +0.000 HD
ATOM     24  H   UNL     1      10.960  10.557  19.970  0.00  0.00    +0.000 HD
BRANCH  22  25
ATOM     25  C   UNL     1      10.421  12.554  20.023  0.00  0.00    +0.000 A 
ATOM     26  C   UNL     1      11.161  13.204  19.028  0.00  0.00    +0.000 A 
ATOM     27  C   UNL     1      11.427  14.568  19.139  0.00  0.00    +0.000 A 
ATOM     28 CL   UNL     1      12.328  15.365  17.909  0.00  0.00    +0.000 Cl
ATOM     29  C   UNL     1      10.969  15.293  20.239  0.00  0.00    +0.000 A 
ATOM     30  C   UNL     1      10.235  14.648  21.237  0.00  0.00    +0.000 A 
ATOM     31  C   UNL     1       9.953  13.284  21.124  0.00  0.00    +0.000 A 
ATOM     32 CL   UNL     1       9.100  12.509  22.412  0.00  0.00    +0.000 Cl
ENDBRANCH  22  25
ENDBRANCH  18  19
ENDBRANCH  17  18
ENDBRANCH   3  17
TORSDOF 8
ENDMDL
MODEL 2
REMARK VINA RESULT:      -8.3      3.276      4.353
REMARK  Name = 
REMARK  11 active torsions:
REMARK  status: ('A' for Active; 'I' for Inactive)
REMARK    1  A    between atoms: C_1  and  C_2
REMARK    2  A    between atoms: C_2  and  C_3
REMARK    3  A    between atoms: C_2  and  C_4
REMARK    4  A    between atoms: C_4  and  C_5
REMARK    5  A    between atoms: C_8  and  C_9
REMARK    6  A    between atoms: C_9  and  C_10
REMARK    7  A    between atoms: C_9  and  C_11
REMARK    8  A    between atoms: N_13  and  C_14
REMARK    9  A    between atoms: C_14  and  C_15
REMARK   10  A    between atoms: C_15  and  N_16
REMARK   11  A    between atoms: N_19  and  C_20
REMARK                            x       y       z     vdW  Elec       q    Type
REMARK                         _______ _______ _______ _____ _____    ______ ____
ROOT
ATOM      1  C   UNL     1       5.350   5.687  18.761  0.00  0.00    +0.000 C 
ATOM      2  O   UNL     1       5.981   5.280  19.737  0.00  0.00    +0.000 OA
ATOM      3  N   UNL     1       5.979   6.248  17.671  0.00  0.00    +0.000 N 
ATOM      4  H   UNL     1       5.426   6.571  16.885  0.00  0.00    +0.000 HD
ENDROOT
BRANCH   1   5
ATOM      5  C   UNL     1       3.823   5.552  18.678  0.00  0.00    +0.000 C 
ATOM      6  C   UNL     1       3.454   4.704  17.456  0.00  0.00    +0.000 C 
BRANCH   5  10
ATOM      7  C   UNL     1       1.453   9.206  18.869  0.00  0.00    +0.000 A 
ATOM      8  C   UNL     1       1.506   8.320  19.948  0.00  0.00    +0.000 A 
ATOM      9  C   UNL     1       2.291   7.166  19.873  0.00  0.00    +0.000 A 
ATOM     10  C   UNL     1       3.022   6.851  18.714  0.00  0.00    +0.000 A 
ATOM     11  C   UNL     1       2.976   7.760  17.649  0.00  0.00    +0.000 A 
ATOM     12  C   UNL     1       2.190   8.912  17.720  0.00  0.00    +0.000 A 
BRANCH   7  13
ATOM     13  C   UNL     1       0.707  10.515  18.974  0.00  0.00    +0.000 C 
BRANCH  13  15
ATOM     14  C   UNL     1      -1.491  11.478  19.826  0.00  0.00    +0.000 C 
ATOM     15  C   UNL     1      -0.816  10.310  19.099  0.00  0.00    +0.000 C 
ATOM     16  C   UNL     1      -1.444  10.125  17.718  0.00  0.00    +0.000 C 
ENDBRANCH  13  15
ENDBRANCH   7  13
ENDBRANCH   5  10
ENDBRANCH   1   5
BRANCH   3  17
ATOM     17  C   UNL     1       7.416   6.470  17.644  0.00  0.00    +0.000 C 
BRANCH  17  18
ATOM     18  C   UNL     1       7.769   7.956  17.531  0.00  0.00    +0.000 C 
BRANCH  18  19
ATOM     19  N   UNL     1       8.566   8.443  18.647  0.00  0.00    +0.000 N 
ATOM     20  C   UNL     1       8.741   9.786  18.828  0.00  0.00    +0.000 C 
ATOM     21  O   UNL     1       8.219  10.631  18.100  0.00  0.00    +0.000 OA
ATOM     22  N   UNL     1       9.607  10.064  19.866  0.00  0.00    +0.000 N 
ATOM     23  H   UNL     1       8.597   7.869  19.482  0.00  0.00    +0.000 HD
ATOM     24  H   UNL     1      10.373   9.399  19.921  0.00  0.00    +0.000 HD
BRANCH  22  25
ATOM     25  C   UNL     1       9.941  11.405  20.186  0.00  0.00    +0.000 A 
ATOM     26  C   UNL     1       9.285  12.056  21.238  0.00  0.00    +0.000 A 
ATOM     27  C   UNL     1       9.613  13.373  21.554  0.00  0.00    +0.000 A 
ATOM     28 CL   UNL     1       8.811  14.165  22.854  0.00  0.00    +0.000 Cl
ATOM     29  C   UNL     1      10.586  14.056  20.824  0.00  0.00    +0.000 A 
ATOM     30  C   UNL     1      11.240  13.414  19.771  0.00  0.00    +0.000 A 
ATOM     31  C   UNL     1      10.925  12.088  19.459  0.00  0.00    +0.000 A 
ATOM     32 CL   UNL     1      11.708  11.351  18.105  0.00  0.00    +0.000 Cl
ENDBRANCH  22  25
ENDBRANCH  18  19
ENDBRANCH  17  18
ENDBRANCH   3  17
TORSDOF 8
ENDMDL
MODEL 3
REMARK VINA RESULT:      -8.3      6.249      8.492
REMARK  Name = 
REMARK  11 active torsions:
REMARK  status: ('A' for Active; 'I' for Inactive)
REMARK    1  A    between atoms: C_1  and  C_2
REMARK    2  A    between atoms: C_2  and  C_3
REMARK    3  A    between atoms: C_2  and  C_4
REMARK    4  A    between atoms: C_4  and  C_5
REMARK    5  A    between atoms: C_8  and  C_9
REMARK    6  A    between atoms: C_9  and  C_10
REMARK    7  A    between atoms: C_9  and  C_11
REMARK    8  A    between atoms: N_13  and  C_14
REMARK    9  A    between atoms: C_14  and  C_15
REMARK   10  A    between atoms: C_15  and  N_16
REMARK   11  A    between atoms: N_19  and  C_20
REMARK                            x       y       z     vdW  Elec       q    Type
REMARK                         _______ _______ _______ _____ _____    ______ ____
ROOT
ATOM      1  C   UNL     1       4.970   3.737  19.025  0.00  0.00    +0.000 C 
ATOM      2  O   UNL     1       5.438   2.859  19.749  0.00  0.00    +0.000 OA
ATOM      3  N   UNL     1       3.612   3.953  18.931  0.00  0.00    +0.000 N 
ATOM      4  H   UNL     1       3.263   4.687  18.324  0.00  0.00    +0.000 HD
ENDROOT
BRANCH   1   5
ATOM      5  C   UNL     1       5.873   4.677  18.214  0.00  0.00    +0.000 C 
ATOM      6  C   UNL     1       5.472   6.130  18.491  0.00  0.00    +0.000 C 
BRANCH   5  10
ATOM      7  C   UNL     1       6.212   4.014  13.919  0.00  0.00    +0.000 A 
ATOM      8  C   UNL     1       7.132   4.813  14.604  0.00  0.00    +0.000 A 
ATOM      9  C   UNL     1       7.017   4.993  15.985  0.00  0.00    +0.000 A 
ATOM     10  C   UNL     1       5.970   4.404  16.716  0.00  0.00    +0.000 A 
ATOM     11  C   UNL     1       5.070   3.588  16.019  0.00  0.00    +0.000 A 
ATOM     12  C   UNL     1       5.180   3.409  14.639  0.00  0.00    +0.000 A 
BRANCH   7  13
ATOM     13  C   UNL     1       6.388   3.711  12.450  0.00  0.00    +0.000 C 
BRANCH  13  15
ATOM     14  C   UNL     1       4.264   3.274  11.116  0.00  0.00    +0.000 C 
ATOM     15  C   UNL     1       5.388   2.650  11.950  0.00  0.00    +0.000 C 
ATOM     16  C   UNL     1       6.109   1.580  11.130  0.00  0.00    +0.000 C 
ENDBRANCH  13  15
ENDBRANCH   7  13
ENDBRANCH   5  10
ENDBRANCH   1   5
BRANCH   3  17
ATOM     17  C   UNL     1       2.650   3.106  19.615  0.00  0.00    +0.000 C 
BRANCH  17  18
ATOM     18  C   UNL     1       2.004   3.813  20.810  0.00  0.00    +0.000 C 
BRANCH  18  19
ATOM     19  N   UNL     1       2.414   5.203  20.946  0.00  0.00    +0.000 N 
ATOM     20  C   UNL     1       1.496   6.205  20.803  0.00  0.00    +0.000 C 
ATOM     21  O   UNL     1       0.301   5.989  20.594  0.00  0.00    +0.000 OA
ATOM     22  N   UNL     1       2.076   7.455  20.857  0.00  0.00    +0.000 N 
ATOM     23  H   UNL     1       3.201   5.398  21.554  0.00  0.00    +0.000 HD
ATOM     24  H   UNL     1       2.988   7.481  20.411  0.00  0.00    +0.000 HD
BRANCH  22  25
ATOM     25  C   UNL     1       1.286   8.623  20.695  0.00  0.00    +0.000 A 
ATOM     26  C   UNL     1       0.578   9.144  21.785  0.00  0.00    +0.000 A 
ATOM     27  C   UNL     1      -0.197  10.291  21.626  0.00  0.00    +0.000 A 
ATOM     28 CL   UNL     1      -1.058  10.933  22.971  0.00  0.00    +0.000 Cl
ATOM     29  C   UNL     1      -0.281  10.925  20.386  0.00  0.00    +0.000 A 
ATOM     30  C   UNL     1       0.419  10.407  19.295  0.00  0.00    +0.000 A 
ATOM     31  C   UNL     1       1.210   9.265  19.451  0.00  0.00    +0.000 A 
ATOM     32 CL   UNL     1       2.006   8.616  18.061  0.00  0.00    +0.000 Cl
ENDBRANCH  22  25
ENDBRANCH  18  19
ENDBRANCH  17  18
ENDBRANCH   3  17
TORSDOF 8
ENDMDL
MODEL 4
REMARK VINA RESULT:      -8.2      0.783      1.724
REMARK  Name = 
REMARK  11 active torsions:
REMARK  status: ('A' for Active; 'I' for Inactive)
REMARK    1  A    between atoms: C_1  and  C_2
REMARK    2  A    between atoms: C_2  and  C_3
REMARK    3  A    between atoms: C_2  and  C_4
REMARK    4  A    between atoms: C_4  and  C_5
REMARK    5  A    between atoms: C_8  and  C_9
REMARK    6  A    between atoms: C_9  and  C_10
REMARK    7  A    between atoms: C_9  and  C_11
REMARK    8  A    between atoms: N_13  and  C_14
REMARK    9  A    between atoms: C_14  and  C_15
REMARK   10  A    between atoms: C_15  and  N_16
REMARK   11  A    between atoms: N_19  and  C_20
REMARK                            x       y       z     vdW  Elec       q    Type
REMARK                         _______ _______ _______ _____ _____    ______ ____
ROOT
ATOM      1  C   UNL     1       7.035   5.359  17.150  0.00  0.00    +0.000 C 
ATOM      2  O   UNL     1       7.983   4.612  17.391  0.00  0.00    +0.000 OA
ATOM      3  N   UNL     1       7.026   6.676  17.556  0.00  0.00    +0.000 N 
ATOM      4  H   UNL     1       6.227   7.262  17.338  0.00  0.00    +0.000 HD
ENDROOT
BRANCH   1   5
ATOM      5  C   UNL     1       5.822   4.883  16.339  0.00  0.00    +0.000 C 
ATOM      6  C   UNL     1       5.295   6.041  15.485  0.00  0.00    +0.000 C 
BRANCH   5  10
ATOM      7  C   UNL     1       2.695   2.904  18.644  0.00  0.00    +0.000 A 
ATOM      8  C   UNL     1       4.011   2.964  19.110  0.00  0.00    +0.000 A 
ATOM      9  C   UNL     1       4.992   3.624  18.366  0.00  0.00    +0.000 A 
ATOM     10  C   UNL     1       4.695   4.217  17.125  0.00  0.00    +0.000 A 
ATOM     11  C   UNL     1       3.368   4.169  16.682  0.00  0.00    +0.000 A 
ATOM     12  C   UNL     1       2.386   3.507  17.423  0.00  0.00    +0.000 A 
BRANCH   7  13
ATOM     13  C   UNL     1       1.597   2.301  19.488  0.00  0.00    +0.000 C 
BRANCH  13  15
ATOM     14  C   UNL     1       2.117   2.993  21.883  0.00  0.00    +0.000 C 
ATOM     15  C   UNL     1       1.206   3.210  20.670  0.00  0.00    +0.000 C 
ATOM     16  C   UNL     1       1.244   4.679  20.249  0.00  0.00    +0.000 C 
ENDBRANCH  13  15
ENDBRANCH   7  13
ENDBRANCH   5  10
ENDBRANCH   1   5
BRANCH   3  17
ATOM     17  C   UNL     1       8.095   7.237  18.366  0.00  0.00    +0.000 C 
BRANCH  17  18
ATOM     18  C   UNL     1       8.256   8.744  18.145  0.00  0.00    +0.000 C 
BRANCH  18  19
ATOM     19  N   UNL     1       9.231   9.355  19.037  0.00  0.00    +0.000 N 
ATOM     20  C   UNL     1       9.279  10.714  19.172  0.00  0.00    +0.000 C 
ATOM     21  O   UNL     1       8.498  11.469  18.592  0.00  0.00    +0.000 OA
ATOM     22  N   UNL     1      10.327  11.122  19.971  0.00  0.00    +0.000 N 
ATOM     23  H   UNL     1       9.531   8.813  19.839  0.00  0.00    +0.000 HD
ATOM     24  H   UNL     1      11.159  10.555  19.840  0.00  0.00    +0.000 HD
BRANCH  22  25
ATOM     25  C   UNL     1      10.560  12.502  20.204  0.00  0.00    +0.000 A 
ATOM     26  C   UNL     1       9.914  13.151  21.262  0.00  0.00    +0.000 A 
ATOM     27  C   UNL     1      10.144  14.507  21.491  0.00  0.00    +0.000 A 
ATOM     28 CL   UNL     1       9.355  15.298  22.800  0.00  0.00    +0.000 Cl
ATOM     29  C   UNL     1      11.008  15.228  20.668  0.00  0.00    +0.000 A 
ATOM     30  C   UNL     1      11.652  14.587  19.608  0.00  0.00    +0.000 A 
ATOM     31  C   UNL     1      11.436  13.225  19.382  0.00  0.00    +0.000 A 
ATOM     32 CL   UNL     1      12.198  12.484  18.019  0.00  0.00    +0.000 Cl
ENDBRANCH  22  25
ENDBRANCH  18  19
ENDBRANCH  17  18
ENDBRANCH   3  17
TORSDOF 8
ENDMDL
MODEL 5
REMARK VINA RESULT:      -8.2      3.118      4.257
REMARK  Name = 
REMARK  11 active torsions:
REMARK  status: ('A' for Active; 'I' for Inactive)
REMARK    1  A    between atoms: C_1  and  C_2
REMARK    2  A    between atoms: C_2  and  C_3
REMARK    3  A    between atoms: C_2  and  C_4
REMARK    4  A    between atoms: C_4  and  C_5
REMARK    5  A    between atoms: C_8  and  C_9
REMARK    6  A    between atoms: C_9  and  C_10
REMARK    7  A    between atoms: C_9  and  C_11
REMARK    8  A    between atoms: N_13  and  C_14
REMARK    9  A    between atoms: C_14  and  C_15
REMARK   10  A    between atoms: C_15  and  N_16
REMARK   11  A    between atoms: N_19  and  C_20
REMARK                            x       y       z     vdW  Elec       q    Type
REMARK                         _______ _______ _______ _____ _____    ______ ____
ROOT
ATOM      1  C   UNL     1       5.519   5.502  18.729  0.00  0.00    +0.000 C 
ATOM      2  O   UNL     1       6.143   5.079  19.701  0.00  0.00    +0.000 OA
ATOM      3  N   UNL     1       6.144   6.172  17.699  0.00  0.00    +0.000 N 
ATOM      4  H   UNL     1       5.597   6.506  16.913  0.00  0.00    +0.000 HD
ENDROOT
BRANCH   1   5
ATOM      5  C   UNL     1       4.009   5.271  18.579  0.00  0.00    +0.000 C 
ATOM      6  C   UNL     1       3.713   4.745  17.170  0.00  0.00    +0.000 C 
BRANCH   5  10
ATOM      7  C   UNL     1       1.486   8.702  19.511  0.00  0.00    +0.000 A 
ATOM      8  C   UNL     1       2.145   8.600  18.283  0.00  0.00    +0.000 A 
ATOM      9  C   UNL     1       2.931   7.480  17.997  0.00  0.00    +0.000 A 
ATOM     10  C   UNL     1       3.101   6.445  18.935  0.00  0.00    +0.000 A 
ATOM     11  C   UNL     1       2.416   6.551  20.151  0.00  0.00    +0.000 A 
ATOM     12  C   UNL     1       1.633   7.671  20.442  0.00  0.00    +0.000 A 
BRANCH   7  13
ATOM     13  C   UNL     1       0.539   9.845  19.792  0.00  0.00    +0.000 C 
BRANCH  13  15
ATOM     14  C   UNL     1      -1.300  10.073  18.047  0.00  0.00    +0.000 C 
ATOM     15  C   UNL     1       0.082  10.553  18.502  0.00  0.00    +0.000 C 
ATOM     16  C   UNL     1       0.065  12.069  18.703  0.00  0.00    +0.000 C 
ENDBRANCH  13  15
ENDBRANCH   7  13
ENDBRANCH   5  10
ENDBRANCH   1   5
BRANCH   3  17
ATOM     17  C   UNL     1       7.562   6.491  17.740  0.00  0.00    +0.000 C 
BRANCH  17  18
ATOM     18  C   UNL     1       7.818   7.998  17.654  0.00  0.00    +0.000 C 
BRANCH  18  19
ATOM     19  N   UNL     1       8.612   8.511  18.760  0.00  0.00    +0.000 N 
ATOM     20  C   UNL     1       8.799   9.858  18.903  0.00  0.00    +0.000 C 
ATOM     21  O   UNL     1       8.289  10.685  18.147  0.00  0.00    +0.000 OA
ATOM     22  N   UNL     1       9.660  10.157  19.938  0.00  0.00    +0.000 N 
ATOM     23  H   UNL     1       8.632   7.962  19.612  0.00  0.00    +0.000 HD
ATOM     24  H   UNL     1      10.420   9.488  20.018  0.00  0.00    +0.000 HD
BRANCH  22  25
ATOM     25  C   UNL     1      10.004  11.505  20.222  0.00  0.00    +0.000 A 
ATOM     26  C   UNL     1       9.342  12.194  21.245  0.00  0.00    +0.000 A 
ATOM     27  C   UNL     1       9.681  13.517  21.524  0.00  0.00    +0.000 A 
ATOM     28 CL   UNL     1       8.871  14.356  22.789  0.00  0.00    +0.000 Cl
ATOM     29  C   UNL     1      10.670  14.166  20.786  0.00  0.00    +0.000 A 
ATOM     30  C   UNL     1      11.330  13.486  19.761  0.00  0.00    +0.000 A 
ATOM     31  C   UNL     1      11.005  12.154  19.486  0.00  0.00    +0.000 A 
ATOM     32 CL   UNL     1      11.796  11.368  18.166  0.00  0.00    +0.000 Cl
ENDBRANCH  22  25
ENDBRANCH  18  19
ENDBRANCH  17  18
ENDBRANCH   3  17
TORSDOF 8
ENDMDL
MODEL 6
REMARK VINA RESULT:      -7.8      5.777      7.684
REMARK  Name = 
REMARK  11 active torsions:
REMARK  status: ('A' for Active; 'I' for Inactive)
REMARK    1  A    between atoms: C_1  and  C_2
REMARK    2  A    between atoms: C_2  and  C_3
REMARK    3  A    between atoms: C_2  and  C_4
REMARK    4  A    between atoms: C_4  and  C_5
REMARK    5  A    between atoms: C_8  and  C_9
REMARK    6  A    between atoms: C_9  and  C_10
REMARK    7  A    between atoms: C_9  and  C_11
REMARK    8  A    between atoms: N_13  and  C_14
REMARK    9  A    between atoms: C_14  and  C_15
REMARK   10  A    between atoms: C_15  and  N_16
REMARK   11  A    between atoms: N_19  and  C_20
REMARK                            x       y       z     vdW  Elec       q    Type
REMARK                         _______ _______ _______ _____ _____    ______ ____
ROOT
ATOM      1  C   UNL     1       4.727   5.060  18.891  0.00  0.00    +0.000 C 
ATOM      2  O   UNL     1       4.169   4.219  19.597  0.00  0.00    +0.000 OA
ATOM      3  N   UNL     1       4.159   6.289  18.639  0.00  0.00    +0.000 N 
ATOM      4  H   UNL     1       4.649   6.957  18.053  0.00  0.00    +0.000 HD
ENDROOT
BRANCH   1   5
ATOM      5  C   UNL     1       6.115   4.808  18.286  0.00  0.00    +0.000 C 
ATOM      6  C   UNL     1       7.051   5.961  18.664  0.00  0.00    +0.000 C 
BRANCH   5  10
ATOM      7  C   UNL     1       6.325   4.108  13.988  0.00  0.00    +0.000 A 
ATOM      8  C   UNL     1       7.328   4.816  14.657  0.00  0.00    +0.000 A 
ATOM      9  C   UNL     1       7.251   5.009  16.039  0.00  0.00    +0.000 A 
ATOM     10  C   UNL     1       6.163   4.525  16.786  0.00  0.00    +0.000 A 
ATOM     11  C   UNL     1       5.178   3.798  16.106  0.00  0.00    +0.000 A 
ATOM     12  C   UNL     1       5.250   3.607  14.725  0.00  0.00    +0.000 A 
BRANCH   7  13
ATOM     13  C   UNL     1       6.449   3.787  12.517  0.00  0.00    +0.000 C 
BRANCH  13  15
ATOM     14  C   UNL     1       4.266   3.338  11.287  0.00  0.00    +0.000 C 
ATOM     15  C   UNL     1       5.432   2.720  12.066  0.00  0.00    +0.000 C 
ATOM     16  C   UNL     1       6.120   1.655  11.213  0.00  0.00    +0.000 C 
ENDBRANCH  13  15
ENDBRANCH   7  13
ENDBRANCH   5  10
ENDBRANCH   1   5
BRANCH   3  17
ATOM     17  C   UNL     1       2.831   6.635  19.119  0.00  0.00    +0.000 C 
BRANCH  17  18
ATOM     18  C   UNL     1       2.172   7.722  18.265  0.00  0.00    +0.000 C 
BRANCH  18  19
ATOM     19  N   UNL     1       1.453   8.714  19.050  0.00  0.00    +0.000 N 
ATOM     20  C   UNL     1       1.505  10.034  18.699  0.00  0.00    +0.000 C 
ATOM     21  O   UNL     1       2.115  10.436  17.708  0.00  0.00    +0.000 OA
ATOM     22  N   UNL     1       0.857  10.841  19.611  0.00  0.00    +0.000 N 
ATOM     23  H   UNL     1       0.612   8.409  19.528  0.00  0.00    +0.000 HD
ATOM     24  H   UNL     1       0.979  10.524  20.568  0.00  0.00    +0.000 HD
BRANCH  22  25
ATOM     25  C   UNL     1       0.831  12.249  19.436  0.00  0.00    +0.000 A 
ATOM     26  C   UNL     1       1.848  13.040  19.984  0.00  0.00    +0.000 A 
ATOM     27  C   UNL     1       1.823  14.423  19.811  0.00  0.00    +0.000 A 
ATOM     28 CL   UNL     1       3.081  15.389  20.479  0.00  0.00    +0.000 Cl
ATOM     29  C   UNL     1       0.787  15.030  19.102  0.00  0.00    +0.000 A 
ATOM     30  C   UNL     1      -0.232  14.247  18.557  0.00  0.00    +0.000 A 
ATOM     31  C   UNL     1      -0.205  12.859  18.715  0.00  0.00    +0.000 A 
ATOM     32 CL   UNL     1      -1.520  11.931  18.084  0.00  0.00    +0.000 Cl
ENDBRANCH  22  25
ENDBRANCH  18  19
ENDBRANCH  17  18
ENDBRANCH   3  17
TORSDOF 8
ENDMDL
MODEL 7
REMARK VINA RESULT:      -7.8      5.746      7.296
REMARK  Name = 
REMARK  11 active torsions:
REMARK  status: ('A' for Active; 'I' for Inactive)
REMARK    1  A    between atoms: C_1  and  C_2
REMARK    2  A    between atoms: C_2  and  C_3
REMARK    3  A    between atoms: C_2  and  C_4
REMARK    4  A    between atoms: C_4  and  C_5
REMARK    5  A    between atoms: C_8  and  C_9
REMARK    6  A    between atoms: C_9  and  C_10
REMARK    7  A    between atoms: C_9  and  C_11
REMARK    8  A    between atoms: N_13  and  C_14
REMARK    9  A    between atoms: C_14  and  C_15
REMARK   10  A    between atoms: C_15  and  N_16
REMARK   11  A    between atoms: N_19  and  C_20
REMARK                            x       y       z     vdW  Elec       q    Type
REMARK                         _______ _______ _______ _____ _____    ______ ____
ROOT
ATOM      1  C   UNL     1       1.977   7.018  20.087  0.00  0.00    +0.000 C 
ATOM      2  O   UNL     1       2.253   7.876  19.249  0.00  0.00    +0.000 OA
ATOM      3  N   UNL     1       1.497   7.349  21.336  0.00  0.00    +0.000 N 
ATOM      4  H   UNL     1       1.280   6.615  22.000  0.00  0.00    +0.000 HD
ENDROOT
BRANCH   1   5
ATOM      5  C   UNL     1       2.107   5.520  19.778  0.00  0.00    +0.000 C 
ATOM      6  C   UNL     1       2.123   4.729  21.091  0.00  0.00    +0.000 C 
BRANCH   5  10
ATOM      7  C   UNL     1       5.338   4.249  17.141  0.00  0.00    +0.000 A 
ATOM      8  C   UNL     1       4.003   3.969  16.838  0.00  0.00    +0.000 A 
ATOM      9  C   UNL     1       2.982   4.406  17.686  0.00  0.00    +0.000 A 
ATOM     10  C   UNL     1       3.264   5.110  18.870  0.00  0.00    +0.000 A 
ATOM     11  C   UNL     1       4.605   5.403  19.149  0.00  0.00    +0.000 A 
ATOM     12  C   UNL     1       5.628   4.964  18.305  0.00  0.00    +0.000 A 
BRANCH   7  13
ATOM     13  C   UNL     1       6.446   3.890  16.179  0.00  0.00    +0.000 C 
BRANCH  13  15
ATOM     14  C   UNL     1       5.937   3.955  13.685  0.00  0.00    +0.000 C 
ATOM     15  C   UNL     1       6.412   4.755  14.903  0.00  0.00    +0.000 C 
ATOM     16  C   UNL     1       5.511   5.973  15.107  0.00  0.00    +0.000 C 
ENDBRANCH  13  15
ENDBRANCH   7  13
ENDBRANCH   5  10
ENDBRANCH   1   5
BRANCH   3  17
ATOM     17  C   UNL     1       1.367   8.732  21.767  0.00  0.00    +0.000 C 
BRANCH  17  18
ATOM     18  C   UNL     1       0.086   9.384  21.239  0.00  0.00    +0.000 C 
BRANCH  18  19
ATOM     19  N   UNL     1       0.292  10.151  20.020  0.00  0.00    +0.000 N 
ATOM     20  C   UNL     1       0.921  11.364  20.072  0.00  0.00    +0.000 C 
ATOM     21  O   UNL     1       1.366  11.839  21.116  0.00  0.00    +0.000 OA
ATOM     22  N   UNL     1       0.935  11.996  18.846  0.00  0.00    +0.000 N 
ATOM     23  H   UNL     1       0.387   9.633  19.154  0.00  0.00    +0.000 HD
ATOM     24  H   UNL     1       0.079  11.846  18.321  0.00  0.00    +0.000 HD
BRANCH  22  25
ATOM     25  C   UNL     1       1.516  13.283  18.706  0.00  0.00    +0.000 A 
ATOM     26  C   UNL     1       2.862  13.406  18.340  0.00  0.00    +0.000 A 
ATOM     27  C   UNL     1       3.433  14.669  18.202  0.00  0.00    +0.000 A 
ATOM     28 CL   UNL     1       5.085  14.815  17.743  0.00  0.00    +0.000 Cl
ATOM     29  C   UNL     1       2.677  15.818  18.434  0.00  0.00    +0.000 A 
ATOM     30  C   UNL     1       1.335  15.702  18.804  0.00  0.00    +0.000 A 
ATOM     31  C   UNL     1       0.754  14.438  18.929  0.00  0.00    +0.000 A 
ATOM     32 CL   UNL     1      -0.890  14.335  19.455  0.00  0.00    +0.000 Cl
ENDBRANCH  22  25
ENDBRANCH  18  19
ENDBRANCH  17  18
ENDBRANCH   3  17
TORSDOF 8
ENDMDL
MODEL 8
REMARK VINA RESULT:      -7.7      7.334     10.383
REMARK  Name = 
REMARK  11 active torsions:
REMARK  status: ('A' for Active; 'I' for Inactive)
REMARK    1  A    between atoms: C_1  and  C_2
REMARK    2  A    between atoms: C_2  and  C_3
REMARK    3  A    between atoms: C_2  and  C_4
REMARK    4  A    between atoms: C_4  and  C_5
REMARK    5  A    between atoms: C_8  and  C_9
REMARK    6  A    between atoms: C_9  and  C_10
REMARK    7  A    between atoms: C_9  and  C_11
REMARK    8  A    between atoms: N_13  and  C_14
REMARK    9  A    between atoms: C_14  and  C_15
REMARK   10  A    between atoms: C_15  and  N_16
REMARK   11  A    between atoms: N_19  and  C_20
REMARK                            x       y       z     vdW  Elec       q    Type
REMARK                         _______ _______ _______ _____ _____    ______ ____
ROOT
ATOM      1  C   UNL     1       0.666  11.215  19.541  0.00  0.00    +0.000 C 
ATOM      2  O   UNL     1       1.447  10.650  18.776  0.00  0.00    +0.000 OA
ATOM      3  N   UNL     1       0.527  10.826  20.856  0.00  0.00    +0.000 N 
ATOM      4  H   UNL     1      -0.127  11.316  21.457  0.00  0.00    +0.000 HD
ENDROOT
BRANCH   1   5
ATOM      5  C   UNL     1      -0.171  12.421  19.090  0.00  0.00    +0.000 C 
ATOM      6  C   UNL     1       0.154  13.625  19.981  0.00  0.00    +0.000 C 
BRANCH   5  10
ATOM      7  C   UNL     1      -4.461  11.791  18.645  0.00  0.00    +0.000 A 
ATOM      8  C   UNL     1      -3.557  11.323  17.687  0.00  0.00    +0.000 A 
ATOM      9  C   UNL     1      -2.184  11.517  17.862  0.00  0.00    +0.000 A 
ATOM     10  C   UNL     1      -1.677  12.202  18.981  0.00  0.00    +0.000 A 
ATOM     11  C   UNL     1      -2.594  12.644  19.943  0.00  0.00    +0.000 A 
ATOM     12  C   UNL     1      -3.966  12.456  19.769  0.00  0.00    +0.000 A 
BRANCH   7  13
ATOM     13  C   UNL     1      -5.937  11.488  18.534  0.00  0.00    +0.000 C 
BRANCH  13  15
ATOM     14  C   UNL     1      -7.591  11.511  20.470  0.00  0.00    +0.000 C 
ATOM     15  C   UNL     1      -6.471  10.734  19.769  0.00  0.00    +0.000 C 
ATOM     16  C   UNL     1      -6.973   9.347  19.371  0.00  0.00    +0.000 C 
ENDBRANCH  13  15
ENDBRANCH   7  13
ENDBRANCH   5  10
ENDBRANCH   1   5
BRANCH   3  17
ATOM     17  C   UNL     1       1.231   9.673  21.394  0.00  0.00    +0.000 C 
BRANCH  17  18
ATOM     18  C   UNL     1       0.610   8.351  20.933  0.00  0.00    +0.000 C 
BRANCH  18  19
ATOM     19  N   UNL     1       1.533   7.228  21.004  0.00  0.00    +0.000 N 
ATOM     20  C   UNL     1       2.274   6.879  19.910  0.00  0.00    +0.000 C 
ATOM     21  O   UNL     1       2.229   7.503  18.849  0.00  0.00    +0.000 OA
ATOM     22  N   UNL     1       3.011   5.733  20.123  0.00  0.00    +0.000 N 
ATOM     23  H   UNL     1       1.940   7.017  21.908  0.00  0.00    +0.000 HD
ATOM     24  H   UNL     1       2.514   5.050  20.687  0.00  0.00    +0.000 HD
BRANCH  22  25
ATOM     25  C   UNL     1       3.820   5.194  19.089  0.00  0.00    +0.000 A 
ATOM     26  C   UNL     1       5.208   5.380  19.120  0.00  0.00    +0.000 A 
ATOM     27  C   UNL     1       6.002   4.850  18.105  0.00  0.00    +0.000 A 
ATOM     28 CL   UNL     1       7.708   5.072  18.153  0.00  0.00    +0.000 Cl
ATOM     29  C   UNL     1       5.427   4.142  17.050  0.00  0.00    +0.000 A 
ATOM     30  C   UNL     1       4.044   3.959  17.011  0.00  0.00    +0.000 A 
ATOM     31  C   UNL     1       3.243   4.475  18.034  0.00  0.00    +0.000 A 
ATOM     32 CL   UNL     1       1.529   4.285  17.915  0.00  0.00    +0.000 Cl
ENDBRANCH  22  25
ENDBRANCH  18  19
ENDBRANCH  17  18
ENDBRANCH   3  17
TORSDOF 8
ENDMDL
MODEL 9
REMARK VINA RESULT:      -7.6      5.782      8.957
REMARK  Name = 
REMARK  11 active torsions:
REMARK  status: ('A' for Active; 'I' for Inactive)
REMARK    1  A    between atoms: C_1  and  C_2
REMARK    2  A    between atoms: C_2  and  C_3
REMARK    3  A    between atoms: C_2  and  C_4
REMARK    4  A    between atoms: C_4  and  C_5
REMARK    5  A    between atoms: C_8  and  C_9
REMARK    6  A    between atoms: C_9  and  C_10
REMARK    7  A    between atoms: C_9  and  C_11
REMARK    8  A    between atoms: N_13  and  C_14
REMARK    9  A    between atoms: C_14  and  C_15
REMARK   10  A    between atoms: C_15  and  N_16
REMARK   11  A    between atoms: N_19  and  C_20
REMARK                            x       y       z     vdW  Elec       q    Type
REMARK                         _______ _______ _______ _____ _____    ______ ____
ROOT
ATOM      1  C   UNL     1       2.401   5.636  19.230  0.00  0.00    +0.000 C 
ATOM      2  O   UNL     1       3.161   5.583  20.197  0.00  0.00    +0.000 OA
ATOM      3  N   UNL     1       1.471   4.650  18.982  0.00  0.00    +0.000 N 
ATOM      4  H   UNL     1       0.861   4.729  18.176  0.00  0.00    +0.000 HD
ENDROOT
BRANCH   1   5
ATOM      5  C   UNL     1       2.410   6.830  18.265  0.00  0.00    +0.000 C 
ATOM      6  C   UNL     1       3.831   7.042  17.733  0.00  0.00    +0.000 C 
BRANCH   5  10
ATOM      7  C   UNL     1       0.771  10.619  19.666  0.00  0.00    +0.000 A 
ATOM      8  C   UNL     1       1.137  10.438  18.329  0.00  0.00    +0.000 A 
ATOM      9  C   UNL     1       1.639   9.207  17.898  0.00  0.00    +0.000 A 
ATOM     10  C   UNL     1       1.814   8.134  18.790  0.00  0.00    +0.000 A 
ATOM     11  C   UNL     1       1.421   8.323  20.121  0.00  0.00    +0.000 A 
ATOM     12  C   UNL     1       0.923   9.553  20.556  0.00  0.00    +0.000 A 
BRANCH   7  13
ATOM     13  C   UNL     1       0.117  11.901  20.126  0.00  0.00    +0.000 C 
BRANCH  13  15
ATOM     14  C   UNL     1       2.236  13.292  20.362  0.00  0.00    +0.000 C 
ATOM     15  C   UNL     1       1.019  12.704  21.084  0.00  0.00    +0.000 C 
ATOM     16  C   UNL     1       0.223  13.823  21.755  0.00  0.00    +0.000 C 
ENDBRANCH  13  15
ENDBRANCH   7  13
ENDBRANCH   5  10
ENDBRANCH   1   5
BRANCH   3  17
ATOM     17  C   UNL     1       1.389   3.448  19.796  0.00  0.00    +0.000 C 
BRANCH  17  18
ATOM     18  C   UNL     1       2.229   2.303  19.222  0.00  0.00    +0.000 C 
BRANCH  18  19
ATOM     19  N   UNL     1       3.619   2.668  18.994  0.00  0.00    +0.000 N 
ATOM     20  C   UNL     1       3.994   3.229  17.806  0.00  0.00    +0.000 C 
ATOM     21  O   UNL     1       3.192   3.483  16.907  0.00  0.00    +0.000 OA
ATOM     22  N   UNL     1       5.359   3.412  17.724  0.00  0.00    +0.000 N 
ATOM     23  H   UNL     1       4.172   2.920  19.805  0.00  0.00    +0.000 HD
ATOM     24  H   UNL     1       5.879   2.657  18.160  0.00  0.00    +0.000 HD
BRANCH  22  25
ATOM     25  C   UNL     1       5.944   3.954  16.550  0.00  0.00    +0.000 A 
ATOM     26  C   UNL     1       5.597   3.439  15.295  0.00  0.00    +0.000 A 
ATOM     27  C   UNL     1       6.170   3.971  14.142  0.00  0.00    +0.000 A 
ATOM     28 CL   UNL     1       5.732   3.342  12.601  0.00  0.00    +0.000 Cl
ATOM     29  C   UNL     1       7.096   5.011  14.225  0.00  0.00    +0.000 A 
ATOM     30  C   UNL     1       7.450   5.525  15.474  0.00  0.00    +0.000 A 
ATOM     31  C   UNL     1       6.868   5.004  16.633  0.00  0.00    +0.000 A 
ATOM     32 CL   UNL     1       7.382   5.621  18.164  0.00  0.00    +0.000 Cl
ENDBRANCH  22  25
ENDBRANCH  18  19
ENDBRANCH  17  18
ENDBRANCH   3  17
TORSDOF 8
ENDMDL
