MODEL 1
REMARK VINA RESULT:      -7.4      0.000      0.000
REMARK  Name = 
REMARK  6 active torsions:
REMARK  status: ('A' for Active; 'I' for Inactive)
REMARK    1  A    between atoms: C_1  and  C_2
REMARK    2  A    between atoms: C_7  and  C_8
REMARK    3  A    between atoms: C_8  and  C_9
REMARK    4  A    between atoms: C_8  and  N_16
REMARK    5  A    between atoms: N_22  and  C_23
REMARK    6  A    between atoms: C_23  and  C_24
REMARK                            x       y       z     vdW  Elec       q    Type
REMARK                         _______ _______ _______ _____ _____    ______ ____
ROOT
ATOM      1  N   UNL     1       0.868  11.311  19.676  0.00  0.00    +0.000 NA
ATOM      2  C   UNL     1       1.014  10.365  20.803  0.00  0.00    +0.000 C 
ATOM      3  C   UNL     1       0.653   8.938  20.383  0.00  0.00    +0.000 C 
ATOM      4  N   UNL     1       1.574   8.468  19.366  0.00  0.00    +0.000 N 
ATOM      5  C   UNL     1       2.124   7.249  19.607  0.00  0.00    +0.000 C 
ATOM      6  O   UNL     1       1.859   6.567  20.610  0.00  0.00    +0.000 OA
ATOM      7  N   UNL     1       3.048   6.807  18.722  0.00  0.00    +0.000 N 
ATOM      8  C   UNL     1       1.552   9.301  18.161  0.00  0.00    +0.000 C 
ATOM      9  C   UNL     1       1.678  10.808  18.542  0.00  0.00    +0.000 C 
ATOM     10  H   UNL     1       3.481   7.457  18.116  0.00  0.00    +0.000 HD
ENDROOT
BRANCH   1  11
ATOM     11  C   UNL     1      -0.529  11.822  19.624  0.00  0.00    +0.000 C 
BRANCH  11  18
ATOM     12  C   UNL     1      -2.689  12.587  21.641  0.00  0.00    +0.000 C 
ATOM     13  C   UNL     1      -1.888  13.616  20.875  0.00  0.00    +0.000 A 
ATOM     14  C   UNL     1      -2.249  14.963  21.033  0.00  0.00    +0.000 A 
ATOM     15  C   UNL     1      -1.570  15.970  20.350  0.00  0.00    +0.000 A 
ATOM     16  C   UNL     1      -0.513  15.654  19.510  0.00  0.00    +0.000 A 
ATOM     17  C   UNL     1      -0.144  14.326  19.333  0.00  0.00    +0.000 A 
ATOM     18  C   UNL     1      -0.819  13.281  19.992  0.00  0.00    +0.000 A 
ENDBRANCH  11  18
BRANCH  11  19
ATOM     19  C   UNL     1      -1.473  11.321  18.497  0.00  0.00    +0.000 A 
ATOM     20  C   UNL     1      -2.219  10.143  18.624  0.00  0.00    +0.000 A 
ATOM     21  C   UNL     1      -2.912   9.623  17.525  0.00  0.00    +0.000 A 
ATOM     22  C   UNL     1      -3.026  10.357  16.349  0.00  0.00    +0.000 A 
ATOM     23 CL   UNL     1      -3.899   9.718  15.012  0.00  0.00    +0.000 Cl
ATOM     24  C   UNL     1      -2.439  11.612  16.251  0.00  0.00    +0.000 A 
ATOM     25  C   UNL     1      -1.617  12.051  17.294  0.00  0.00    +0.000 A 
ENDBRANCH  11  19
ENDBRANCH   1  11
BRANCH   7  26
ATOM     26  C   UNL     1       3.693   5.518  18.919  0.00  0.00    +0.000 C 
BRANCH  26  27
ATOM     27  C   UNL     1       3.356   4.536  17.781  0.00  0.00    +0.000 C 
ATOM     28  C   UNL     1       4.099   3.200  17.959  0.00  0.00    +0.000 C 
ATOM     29  C   UNL     1       3.556   2.388  19.134  0.00  0.00    +0.000 C 
ATOM     30  C   UNL     1       2.058   2.144  18.985  0.00  0.00    +0.000 C 
ATOM     31  C   UNL     1       1.288   3.451  18.822  0.00  0.00    +0.000 C 
ATOM     32  C   UNL     1       1.841   4.287  17.668  0.00  0.00    +0.000 C 
ENDBRANCH  26  27
ENDBRANCH   7  26
TORSDOF 5
ENDMDL
MODEL 2
REMARK VINA RESULT:      -7.3      2.911      4.352
REMARK  Name = 
REMARK  6 active torsions:
REMARK  status: ('A' for Active; 'I' for Inactive)
REMARK    1  A    between atoms: C_1  and  C_2
REMARK    2  A    between atoms: C_7  and  C_8
REMARK    3  A    between atoms: C_8  and  C_9
REMARK    4  A    between atoms: C_8  and  N_16
REMARK    5  A    between atoms: N_22  and  C_23
REMARK    6  A    between atoms: C_23  and  C_24
REMARK                            x       y       z     vdW  Elec       q    Type
REMARK                         _______ _______ _______ _____ _____    ______ ____
ROOT
ATOM      1  N   UNL     1      -0.609  10.537  21.577  0.00  0.00    +0.000 NA
ATOM      2  C   UNL     1      -0.336  10.173  20.170  0.00  0.00    +0.000 C 
ATOM      3  C   UNL     1       1.103   9.684  19.990  0.00  0.00    +0.000 C 
ATOM      4  N   UNL     1       1.317   8.467  20.749  0.00  0.00    +0.000 N 
ATOM      5  C   UNL     1       1.883   7.446  20.053  0.00  0.00    +0.000 C 
ATOM      6  O   UNL     1       2.213   7.535  18.859  0.00  0.00    +0.000 OA
ATOM      7  N   UNL     1       2.029   6.267  20.702  0.00  0.00    +0.000 N 
ATOM      8  C   UNL     1       1.092   8.654  22.184  0.00  0.00    +0.000 C 
ATOM      9  C   UNL     1      -0.271   9.373  22.430  0.00  0.00    +0.000 C 
ATOM     10  H   UNL     1       1.498   6.101  21.520  0.00  0.00    +0.000 HD
ENDROOT
BRANCH   1  11
ATOM     11  C   UNL     1      -0.237  11.959  21.811  0.00  0.00    +0.000 C 
BRANCH  11  18
ATOM     12  C   UNL     1      -1.931  13.114  19.549  0.00  0.00    +0.000 C 
ATOM     13  C   UNL     1      -0.424  13.239  19.585  0.00  0.00    +0.000 A 
ATOM     14  C   UNL     1       0.202  13.814  18.468  0.00  0.00    +0.000 A 
ATOM     15  C   UNL     1       1.588  13.951  18.418  0.00  0.00    +0.000 A 
ATOM     16  C   UNL     1       2.371  13.532  19.484  0.00  0.00    +0.000 A 
ATOM     17  C   UNL     1       1.771  12.953  20.595  0.00  0.00    +0.000 A 
ATOM     18  C   UNL     1       0.376  12.781  20.674  0.00  0.00    +0.000 A 
ENDBRANCH  11  18
BRANCH  11  19
ATOM     19  C   UNL     1      -1.141  12.834  22.723  0.00  0.00    +0.000 A 
ATOM     20  C   UNL     1      -2.381  12.383  23.189  0.00  0.00    +0.000 A 
ATOM     21  C   UNL     1      -3.250  13.260  23.850  0.00  0.00    +0.000 A 
ATOM     22  C   UNL     1      -2.825  14.532  24.219  0.00  0.00    +0.000 A 
ATOM     23 CL   UNL     1      -3.892  15.593  25.050  0.00  0.00    +0.000 Cl
ATOM     24  C   UNL     1      -1.533  14.948  23.921  0.00  0.00    +0.000 A 
ATOM     25  C   UNL     1      -0.730  14.128  23.122  0.00  0.00    +0.000 A 
ENDBRANCH  11  19
ENDBRANCH   1  11
BRANCH   7  26
ATOM     26  C   UNL     1       2.613   5.123  20.020  0.00  0.00    +0.000 C 
BRANCH  26  27
ATOM     27  C   UNL     1       1.530   4.188  19.451  0.00  0.00    +0.000 C 
ATOM     28  C   UNL     1       1.527   4.209  17.912  0.00  0.00    +0.000 C 
ATOM     29  C   UNL     1       2.758   3.525  17.321  0.00  0.00    +0.000 C 
ATOM     30  C   UNL     1       2.886   2.092  17.829  0.00  0.00    +0.000 C 
ATOM     31  C   UNL     1       2.908   2.036  19.354  0.00  0.00    +0.000 C 
ATOM     32  C   UNL     1       1.696   2.744  19.959  0.00  0.00    +0.000 C 
ENDBRANCH  26  27
ENDBRANCH   7  26
TORSDOF 5
ENDMDL
MODEL 3
REMARK VINA RESULT:      -7.2      2.874      4.272
REMARK  Name = 
REMARK  6 active torsions:
REMARK  status: ('A' for Active; 'I' for Inactive)
REMARK    1  A    between atoms: C_1  and  C_2
REMARK    2  A    between atoms: C_7  and  C_8
REMARK    3  A    between atoms: C_8  and  C_9
REMARK    4  A    between atoms: C_8  and  N_16
REMARK    5  A    between atoms: N_22  and  C_23
REMARK    6  A    between atoms: C_23  and  C_24
REMARK                            x       y       z     vdW  Elec       q    Type
REMARK                         _______ _______ _______ _____ _____    ______ ____
ROOT
ATOM      1  N   UNL     1      -0.461  10.274  21.483  0.00  0.00    +0.000 NA
ATOM      2  C   UNL     1      -0.252   9.953  20.055  0.00  0.00    +0.000 C 
ATOM      3  C   UNL     1       1.206   9.583  19.774  0.00  0.00    +0.000 C 
ATOM      4  N   UNL     1       1.564   8.376  20.495  0.00  0.00    +0.000 N 
ATOM      5  C   UNL     1       2.163   7.414  19.745  0.00  0.00    +0.000 C 
ATOM      6  O   UNL     1       2.407   7.546  18.535  0.00  0.00    +0.000 OA
ATOM      7  N   UNL     1       2.443   6.242  20.361  0.00  0.00    +0.000 N 
ATOM      8  C   UNL     1       1.419   8.525  21.945  0.00  0.00    +0.000 C 
ATOM      9  C   UNL     1       0.022   9.130  22.290  0.00  0.00    +0.000 C 
ATOM     10  H   UNL     1       1.981   6.023  21.208  0.00  0.00    +0.000 HD
ENDROOT
BRANCH   1  11
ATOM     11  C   UNL     1      -0.189  11.718  21.720  0.00  0.00    +0.000 C 
BRANCH  11  18
ATOM     12  C   UNL     1      -1.932  12.769  19.446  0.00  0.00    +0.000 C 
ATOM     13  C   UNL     1      -0.436  12.989  19.494  0.00  0.00    +0.000 A 
ATOM     14  C   UNL     1       0.162  13.604  18.384  0.00  0.00    +0.000 A 
ATOM     15  C   UNL     1       1.537  13.828  18.346  0.00  0.00    +0.000 A 
ATOM     16  C   UNL     1       2.336  13.456  19.418  0.00  0.00    +0.000 A 
ATOM     17  C   UNL     1       1.764  12.839  20.523  0.00  0.00    +0.000 A 
ATOM     18  C   UNL     1       0.382  12.579  20.589  0.00  0.00    +0.000 A 
ENDBRANCH  11  18
BRANCH  11  19
ATOM     19  C   UNL     1      -1.159  12.531  22.621  0.00  0.00    +0.000 A 
ATOM     20  C   UNL     1      -2.377  12.001  23.064  0.00  0.00    +0.000 A 
ATOM     21  C   UNL     1      -3.309  12.819  23.714  0.00  0.00    +0.000 A 
ATOM     22  C   UNL     1      -2.969  14.113  24.095  0.00  0.00    +0.000 A 
ATOM     23 CL   UNL     1      -4.114  15.102  24.913  0.00  0.00    +0.000 Cl
ATOM     24  C   UNL     1      -1.702  14.611  23.820  0.00  0.00    +0.000 A 
ATOM     25  C   UNL     1      -0.837  13.846  23.032  0.00  0.00    +0.000 A 
ENDBRANCH  11  19
ENDBRANCH   1  11
BRANCH   7  26
ATOM     26  C   UNL     1       3.071   5.158  19.622  0.00  0.00    +0.000 C 
BRANCH  26  27
ATOM     27  C   UNL     1       2.925   3.812  20.356  0.00  0.00    +0.000 C 
ATOM     28  C   UNL     1       1.485   3.605  20.859  0.00  0.00    +0.000 C 
ATOM     29  C   UNL     1       0.503   3.353  19.717  0.00  0.00    +0.000 C 
ATOM     30  C   UNL     1       0.942   2.165  18.868  0.00  0.00    +0.000 C 
ATOM     31  C   UNL     1       2.362   2.344  18.339  0.00  0.00    +0.000 C 
ATOM     32  C   UNL     1       3.350   2.627  19.470  0.00  0.00    +0.000 C 
ENDBRANCH  26  27
ENDBRANCH   7  26
TORSDOF 5
ENDMDL
MODEL 4
REMARK VINA RESULT:      -7.2      0.942      1.049
REMARK  Name = 
REMARK  6 active torsions:
REMARK  status: ('A' for Active; 'I' for Inactive)
REMARK    1  A    between atoms: C_1  and  C_2
REMARK    2  A    between atoms: C_7  and  C_8
REMARK    3  A    between atoms: C_8  and  C_9
REMARK    4  A    between atoms: C_8  and  N_16
REMARK    5  A    between atoms: N_22  and  C_23
REMARK    6  A    between atoms: C_23  and  C_24
REMARK                            x       y       z     vdW  Elec       q    Type
REMARK                         _______ _______ _______ _____ _____    ______ ____
ROOT
ATOM      1  N   UNL     1       0.853  11.007  20.311  0.00  0.00    +0.000 NA
ATOM      2  C   UNL     1       1.073   9.956  21.328  0.00  0.00    +0.000 C 
ATOM      3  C   UNL     1       0.724   8.570  20.782  0.00  0.00    +0.000 C 
ATOM      4  N   UNL     1       1.606   8.229  19.683  0.00  0.00    +0.000 N 
ATOM      5  C   UNL     1       2.194   7.007  19.773  0.00  0.00    +0.000 C 
ATOM      6  O   UNL     1       1.991   6.221  20.713  0.00  0.00    +0.000 OA
ATOM      7  N   UNL     1       3.084   6.681  18.807  0.00  0.00    +0.000 N 
ATOM      8  C   UNL     1       1.509   9.178  18.570  0.00  0.00    +0.000 C 
ATOM      9  C   UNL     1       1.620  10.642  19.096  0.00  0.00    +0.000 C 
ATOM     10  H   UNL     1       3.474   7.400  18.252  0.00  0.00    +0.000 HD
ENDROOT
BRANCH   1  11
ATOM     11  C   UNL     1      -0.556  11.483  20.373  0.00  0.00    +0.000 C 
BRANCH  11  18
ATOM     12  C   UNL     1      -1.908  11.686  23.103  0.00  0.00    +0.000 C 
ATOM     13  C   UNL     1      -1.580  12.901  22.263  0.00  0.00    +0.000 A 
ATOM     14  C   UNL     1      -2.025  14.147  22.730  0.00  0.00    +0.000 A 
ATOM     15  C   UNL     1      -1.776  15.312  22.007  0.00  0.00    +0.000 A 
ATOM     16  C   UNL     1      -1.068  15.256  20.815  0.00  0.00    +0.000 A 
ATOM     17  C   UNL     1      -0.624  14.032  20.333  0.00  0.00    +0.000 A 
ATOM     18  C   UNL     1      -0.873  12.832  21.026  0.00  0.00    +0.000 A 
ENDBRANCH  11  18
BRANCH  11  19
ATOM     19  C   UNL     1      -1.504  11.191  19.178  0.00  0.00    +0.000 A 
ATOM     20  C   UNL     1      -1.203  10.222  18.214  0.00  0.00    +0.000 A 
ATOM     21  C   UNL     1      -1.980  10.114  17.054  0.00  0.00    +0.000 A 
ATOM     22  C   UNL     1      -3.165  10.832  16.927  0.00  0.00    +0.000 A 
ATOM     23 CL   UNL     1      -4.124  10.674  15.509  0.00  0.00    +0.000 Cl
ATOM     24  C   UNL     1      -3.580  11.676  17.949  0.00  0.00    +0.000 A 
ATOM     25  C   UNL     1      -2.719  11.899  19.028  0.00  0.00    +0.000 A 
ENDBRANCH  11  19
ENDBRANCH   1  11
BRANCH   7  26
ATOM     26  C   UNL     1       3.766   5.396  18.843  0.00  0.00    +0.000 C 
BRANCH  26  27
ATOM     27  C   UNL     1       3.360   4.506  17.654  0.00  0.00    +0.000 C 
ATOM     28  C   UNL     1       4.101   3.158  17.688  0.00  0.00    +0.000 C 
ATOM     29  C   UNL     1       3.618   2.260  18.825  0.00  0.00    +0.000 C 
ATOM     30  C   UNL     1       2.112   2.033  18.741  0.00  0.00    +0.000 C 
ATOM     31  C   UNL     1       1.344   3.351  18.721  0.00  0.00    +0.000 C 
ATOM     32  C   UNL     1       1.840   4.271  17.606  0.00  0.00    +0.000 C 
ENDBRANCH  26  27
ENDBRANCH   7  26
TORSDOF 5
ENDMDL
MODEL 5
REMARK VINA RESULT:      -7.1      1.391      2.083
REMARK  Name = 
REMARK  6 active torsions:
REMARK  status: ('A' for Active; 'I' for Inactive)
REMARK    1  A    between atoms: C_1  and  C_2
REMARK    2  A    between atoms: C_7  and  C_8
REMARK    3  A    between atoms: C_8  and  C_9
REMARK    4  A    between atoms: C_8  and  N_16
REMARK    5  A    between atoms: N_22  and  C_23
REMARK    6  A    between atoms: C_23  and  C_24
REMARK                            x       y       z     vdW  Elec       q    Type
REMARK                         _______ _______ _______ _____ _____    ______ ____
ROOT
ATOM      1  N   UNL     1       0.686  10.730  20.965  0.00  0.00    +0.000 NA
ATOM      2  C   UNL     1       0.884   9.575  21.867  0.00  0.00    +0.000 C 
ATOM      3  C   UNL     1       0.578   8.254  21.156  0.00  0.00    +0.000 C 
ATOM      4  N   UNL     1       1.508   8.049  20.061  0.00  0.00    +0.000 N 
ATOM      5  C   UNL     1       2.111   6.831  20.039  0.00  0.00    +0.000 C 
ATOM      6  O   UNL     1       1.885   5.943  20.876  0.00  0.00    +0.000 OA
ATOM      7  N   UNL     1       3.043   6.626  19.079  0.00  0.00    +0.000 N 
ATOM      8  C   UNL     1       1.438   9.115  19.059  0.00  0.00    +0.000 C 
ATOM      9  C   UNL     1       1.505  10.513  19.749  0.00  0.00    +0.000 C 
ATOM     10  H   UNL     1       3.442   7.408  18.624  0.00  0.00    +0.000 HD
ENDROOT
BRANCH   1  11
ATOM     11  C   UNL     1      -0.732  11.180  21.024  0.00  0.00    +0.000 C 
BRANCH  11  18
ATOM     12  C   UNL     1       0.738  13.855  20.974  0.00  0.00    +0.000 C 
ATOM     13  C   UNL     1      -0.368  13.551  21.960  0.00  0.00    +0.000 A 
ATOM     14  C   UNL     1      -0.632  14.510  22.950  0.00  0.00    +0.000 A 
ATOM     15  C   UNL     1      -1.625  14.298  23.904  0.00  0.00    +0.000 A 
ATOM     16  C   UNL     1      -2.381  13.134  23.879  0.00  0.00    +0.000 A 
ATOM     17  C   UNL     1      -2.130  12.169  22.912  0.00  0.00    +0.000 A 
ATOM     18  C   UNL     1      -1.123  12.340  21.944  0.00  0.00    +0.000 A 
ENDBRANCH  11  18
BRANCH  11  19
ATOM     19  C   UNL     1      -1.578  11.175  19.722  0.00  0.00    +0.000 A 
ATOM     20  C   UNL     1      -2.474  12.206  19.417  0.00  0.00    +0.000 A 
ATOM     21  C   UNL     1      -3.354  12.081  18.335  0.00  0.00    +0.000 A 
ATOM     22  C   UNL     1      -3.228  11.025  17.439  0.00  0.00    +0.000 A 
ATOM     23 CL   UNL     1      -4.300  10.893  16.101  0.00  0.00    +0.000 Cl
ATOM     24  C   UNL     1      -2.232  10.074  17.620  0.00  0.00    +0.000 A 
ATOM     25  C   UNL     1      -1.464  10.118  18.788  0.00  0.00    +0.000 A 
ENDBRANCH  11  19
ENDBRANCH   1  11
BRANCH   7  26
ATOM     26  C   UNL     1       3.743   5.354  18.999  0.00  0.00    +0.000 C 
BRANCH  26  27
ATOM     27  C   UNL     1       3.379   4.587  17.714  0.00  0.00    +0.000 C 
ATOM     28  C   UNL     1       4.113   3.236  17.644  0.00  0.00    +0.000 C 
ATOM     29  C   UNL     1       3.583   2.236  18.669  0.00  0.00    +0.000 C 
ATOM     30  C   UNL     1       2.081   2.029  18.508  0.00  0.00    +0.000 C 
ATOM     31  C   UNL     1       1.319   3.349  18.588  0.00  0.00    +0.000 C 
ATOM     32  C   UNL     1       1.861   4.370  17.587  0.00  0.00    +0.000 C 
ENDBRANCH  26  27
ENDBRANCH   7  26
TORSDOF 5
ENDMDL
MODEL 6
REMARK VINA RESULT:      -7.1      4.234      7.880
REMARK  Name = 
REMARK  6 active torsions:
REMARK  status: ('A' for Active; 'I' for Inactive)
REMARK    1  A    between atoms: C_1  and  C_2
REMARK    2  A    between atoms: C_7  and  C_8
REMARK    3  A    between atoms: C_8  and  C_9
REMARK    4  A    between atoms: C_8  and  N_16
REMARK    5  A    between atoms: N_22  and  C_23
REMARK    6  A    between atoms: C_23  and  C_24
REMARK                            x       y       z     vdW  Elec       q    Type
REMARK                         _______ _______ _______ _____ _____    ______ ____
ROOT
ATOM      1  N   UNL     1       4.253   6.285  18.447  0.00  0.00    +0.000 NA
ATOM      2  C   UNL     1       4.858   4.937  18.378  0.00  0.00    +0.000 C 
ATOM      3  C   UNL     1       4.615   4.287  17.013  0.00  0.00    +0.000 C 
ATOM      4  N   UNL     1       5.269   5.054  15.970  0.00  0.00    +0.000 N 
ATOM      5  C   UNL     1       6.045   4.330  15.122  0.00  0.00    +0.000 C 
ATOM      6  O   UNL     1       6.184   3.098  15.210  0.00  0.00    +0.000 OA
ATOM      7  N   UNL     1       6.734   5.017  14.182  0.00  0.00    +0.000 N 
ATOM      8  C   UNL     1       4.776   6.432  15.896  0.00  0.00    +0.000 C 
ATOM      9  C   UNL     1       4.774   7.084  17.313  0.00  0.00    +0.000 C 
ATOM     10  H   UNL     1       6.872   5.989  14.303  0.00  0.00    +0.000 HD
ENDROOT
BRANCH   1  11
ATOM     11  C   UNL     1       2.838   6.181  18.897  0.00  0.00    +0.000 C 
BRANCH  11  18
ATOM     12  C   UNL     1       1.077   4.098  17.526  0.00  0.00    +0.000 C 
ATOM     13  C   UNL     1       1.472   4.000  18.983  0.00  0.00    +0.000 A 
ATOM     14  C   UNL     1       0.902   2.963  19.737  0.00  0.00    +0.000 A 
ATOM     15  C   UNL     1       1.204   2.814  21.089  0.00  0.00    +0.000 A 
ATOM     16  C   UNL     1       2.088   3.685  21.709  0.00  0.00    +0.000 A 
ATOM     17  C   UNL     1       2.657   4.723  20.981  0.00  0.00    +0.000 A 
ATOM     18  C   UNL     1       2.362   4.916  19.619  0.00  0.00    +0.000 A 
ENDBRANCH  11  18
BRANCH  11  19
ATOM     19  C   UNL     1       2.124   7.449  19.439  0.00  0.00    +0.000 A 
ATOM     20  C   UNL     1       1.746   7.570  20.782  0.00  0.00    +0.000 A 
ATOM     21  C   UNL     1       0.942   8.639  21.196  0.00  0.00    +0.000 A 
ATOM     22  C   UNL     1       0.663   9.691  20.331  0.00  0.00    +0.000 A 
ATOM     23 CL   UNL     1      -0.306  11.010  20.857  0.00  0.00    +0.000 Cl
ATOM     24  C   UNL     1       1.172   9.683  19.038  0.00  0.00    +0.000 A 
ATOM     25  C   UNL     1       1.836   8.539  18.585  0.00  0.00    +0.000 A 
ENDBRANCH  11  19
ENDBRANCH   1  11
BRANCH   7  26
ATOM     26  C   UNL     1       7.598   4.313  13.247  0.00  0.00    +0.000 C 
BRANCH  26  27
ATOM     27  C   UNL     1       7.023   4.335  11.818  0.00  0.00    +0.000 C 
ATOM     28  C   UNL     1       7.716   3.292  10.923  0.00  0.00    +0.000 C 
ATOM     29  C   UNL     1       7.341   1.862  11.302  0.00  0.00    +0.000 C 
ATOM     30  C   UNL     1       5.830   1.664  11.269  0.00  0.00    +0.000 C 
ATOM     31  C   UNL     1       5.110   2.672  12.160  0.00  0.00    +0.000 C 
ATOM     32  C   UNL     1       5.500   4.108  11.810  0.00  0.00    +0.000 C 
ENDBRANCH  26  27
ENDBRANCH   7  26
TORSDOF 5
ENDMDL
MODEL 7
REMARK VINA RESULT:      -7.1      2.793      4.244
REMARK  Name = 
REMARK  6 active torsions:
REMARK  status: ('A' for Active; 'I' for Inactive)
REMARK    1  A    between atoms: C_1  and  C_2
REMARK    2  A    between atoms: C_7  and  C_8
REMARK    3  A    between atoms: C_8  and  C_9
REMARK    4  A    between atoms: C_8  and  N_16
REMARK    5  A    between atoms: N_22  and  C_23
REMARK    6  A    between atoms: C_23  and  C_24
REMARK                            x       y       z     vdW  Elec       q    Type
REMARK                         _______ _______ _______ _____ _____    ______ ____
ROOT
ATOM      1  N   UNL     1      -0.496  11.186  20.259  0.00  0.00    +0.000 NA
ATOM      2  C   UNL     1      -0.019  11.109  18.861  0.00  0.00    +0.000 C 
ATOM      3  C   UNL     1       1.412  10.571  18.790  0.00  0.00    +0.000 C 
ATOM      4  N   UNL     1       1.460   9.210  19.287  0.00  0.00    +0.000 N 
ATOM      5  C   UNL     1       2.092   8.322  18.474  0.00  0.00    +0.000 C 
ATOM      6  O   UNL     1       2.609   8.638  17.390  0.00  0.00    +0.000 OA
ATOM      7  N   UNL     1       2.092   7.026  18.864  0.00  0.00    +0.000 N 
ATOM      8  C   UNL     1       1.020   9.105  20.680  0.00  0.00    +0.000 C 
ATOM      9  C   UNL     1      -0.338   9.849  20.876  0.00  0.00    +0.000 C 
ATOM     10  H   UNL     1       1.434   6.729  19.539  0.00  0.00    +0.000 HD
ENDROOT
BRANCH   1  11
ATOM     11  C   UNL     1      -0.115  12.498  20.851  0.00  0.00    +0.000 C 
BRANCH  11  18
ATOM     12  C   UNL     1       2.804  13.387  20.762  0.00  0.00    +0.000 C 
ATOM     13  C   UNL     1       1.715  14.084  19.977  0.00  0.00    +0.000 A 
ATOM     14  C   UNL     1       2.069  15.249  19.277  0.00  0.00    +0.000 A 
ATOM     15  C   UNL     1       1.120  15.956  18.542  0.00  0.00    +0.000 A 
ATOM     16  C   UNL     1      -0.192  15.509  18.479  0.00  0.00    +0.000 A 
ATOM     17  C   UNL     1      -0.564  14.363  19.170  0.00  0.00    +0.000 A 
ATOM     18  C   UNL     1       0.362  13.633  19.939  0.00  0.00    +0.000 A 
ENDBRANCH  11  18
BRANCH  11  19
ATOM     19  C   UNL     1      -0.922  13.042  22.061  0.00  0.00    +0.000 A 
ATOM     20  C   UNL     1      -2.103  12.431  22.499  0.00  0.00    +0.000 A 
ATOM     21  C   UNL     1      -2.902  13.050  23.468  0.00  0.00    +0.000 A 
ATOM     22  C   UNL     1      -2.449  14.178  24.143  0.00  0.00    +0.000 A 
ATOM     23 CL   UNL     1      -3.429  14.917  25.347  0.00  0.00    +0.000 Cl
ATOM     24  C   UNL     1      -1.199  14.710  23.850  0.00  0.00    +0.000 A 
ATOM     25  C   UNL     1      -0.481  14.182  22.773  0.00  0.00    +0.000 A 
ENDBRANCH  11  19
ENDBRANCH   1  11
BRANCH   7  26
ATOM     26  C   UNL     1       2.735   6.014  18.040  0.00  0.00    +0.000 C 
BRANCH  26  27
ATOM     27  C   UNL     1       3.326   4.878  18.897  0.00  0.00    +0.000 C 
ATOM     28  C   UNL     1       2.400   4.530  20.076  0.00  0.00    +0.000 C 
ATOM     29  C   UNL     1       1.119   3.836  19.621  0.00  0.00    +0.000 C 
ATOM     30  C   UNL     1       1.432   2.584  18.809  0.00  0.00    +0.000 C 
ATOM     31  C   UNL     1       2.337   2.895  17.621  0.00  0.00    +0.000 C 
ATOM     32  C   UNL     1       3.610   3.618  18.059  0.00  0.00    +0.000 C 
ENDBRANCH  26  27
ENDBRANCH   7  26
TORSDOF 5
ENDMDL
MODEL 8
REMARK VINA RESULT:      -7.0      2.622      3.794
REMARK  Name = 
REMARK  6 active torsions:
REMARK  status: ('A' for Active; 'I' for Inactive)
REMARK    1  A    between atoms: C_1  and  C_2
REMARK    2  A    between atoms: C_7  and  C_8
REMARK    3  A    between atoms: C_8  and  C_9
REMARK    4  A    between atoms: C_8  and  N_16
REMARK    5  A    between atoms: N_22  and  C_23
REMARK    6  A    between atoms: C_23  and  C_24
REMARK                            x       y       z     vdW  Elec       q    Type
REMARK                         _______ _______ _______ _____ _____    ______ ____
ROOT
ATOM      1  N   UNL     1      -0.936  10.524  20.188  0.00  0.00    +0.000 NA
ATOM      2  C   UNL     1      -0.519  10.130  18.825  0.00  0.00    +0.000 C 
ATOM      3  C   UNL     1       1.000   9.964  18.734  0.00  0.00    +0.000 C 
ATOM      4  N   UNL     1       1.438   8.883  19.596  0.00  0.00    +0.000 N 
ATOM      5  C   UNL     1       2.250   7.967  19.005  0.00  0.00    +0.000 C 
ATOM      6  O   UNL     1       2.613   8.042  17.819  0.00  0.00    +0.000 OA
ATOM      7  N   UNL     1       2.619   6.901  19.752  0.00  0.00    +0.000 N 
ATOM      8  C   UNL     1       1.105   9.118  21.003  0.00  0.00    +0.000 C 
ATOM      9  C   UNL     1      -0.394   9.529  21.144  0.00  0.00    +0.000 C 
ATOM     10  H   UNL     1       2.097   6.680  20.562  0.00  0.00    +0.000 HD
ENDROOT
BRANCH   1  11
ATOM     11  C   UNL     1      -0.899  12.006  20.319  0.00  0.00    +0.000 C 
BRANCH  11  18
ATOM     12  C   UNL     1      -3.860  12.718  20.106  0.00  0.00    +0.000 C 
ATOM     13  C   UNL     1      -3.019  13.084  21.308  0.00  0.00    +0.000 A 
ATOM     14  C   UNL     1      -3.618  13.877  22.298  0.00  0.00    +0.000 A 
ATOM     15  C   UNL     1      -2.905  14.269  23.429  0.00  0.00    +0.000 A 
ATOM     16  C   UNL     1      -1.588  13.866  23.599  0.00  0.00    +0.000 A 
ATOM     17  C   UNL     1      -0.974  13.086  22.627  0.00  0.00    +0.000 A 
ATOM     18  C   UNL     1      -1.657  12.687  21.463  0.00  0.00    +0.000 A 
ENDBRANCH  11  18
BRANCH  11  19
ATOM     19  C   UNL     1       0.415  12.761  19.977  0.00  0.00    +0.000 A 
ATOM     20  C   UNL     1       1.567  12.634  20.762  0.00  0.00    +0.000 A 
ATOM     21  C   UNL     1       2.670  13.466  20.538  0.00  0.00    +0.000 A 
ATOM     22  C   UNL     1       2.714  14.296  19.422  0.00  0.00    +0.000 A 
ATOM     23 CL   UNL     1       4.084  15.297  19.144  0.00  0.00    +0.000 Cl
ATOM     24  C   UNL     1       1.653  14.316  18.526  0.00  0.00    +0.000 A 
ATOM     25  C   UNL     1       0.492  13.604  18.844  0.00  0.00    +0.000 A 
ENDBRANCH  11  19
ENDBRANCH   1  11
BRANCH   7  26
ATOM     26  C   UNL     1       3.475   5.871  19.185  0.00  0.00    +0.000 C 
BRANCH  26  27
ATOM     27  C   UNL     1       3.192   4.492  19.809  0.00  0.00    +0.000 C 
ATOM     28  C   UNL     1       1.732   4.064  19.577  0.00  0.00    +0.000 C 
ATOM     29  C   UNL     1       1.456   3.719  18.115  0.00  0.00    +0.000 C 
ATOM     30  C   UNL     1       2.408   2.636  17.618  0.00  0.00    +0.000 C 
ATOM     31  C   UNL     1       3.867   3.035  17.819  0.00  0.00    +0.000 C 
ATOM     32  C   UNL     1       4.150   3.413  19.273  0.00  0.00    +0.000 C 
ENDBRANCH  26  27
ENDBRANCH   7  26
TORSDOF 5
ENDMDL
MODEL 9
REMARK VINA RESULT:      -7.0      1.293      1.478
REMARK  Name = 
REMARK  6 active torsions:
REMARK  status: ('A' for Active; 'I' for Inactive)
REMARK    1  A    between atoms: C_1  and  C_2
REMARK    2  A    between atoms: C_7  and  C_8
REMARK    3  A    between atoms: C_8  and  C_9
REMARK    4  A    between atoms: C_8  and  N_16
REMARK    5  A    between atoms: N_22  and  C_23
REMARK    6  A    between atoms: C_23  and  C_24
REMARK                            x       y       z     vdW  Elec       q    Type
REMARK                         _______ _______ _______ _____ _____    ______ ____
ROOT
ATOM      1  N   UNL     1       0.981  11.109  20.409  0.00  0.00    +0.000 NA
ATOM      2  C   UNL     1       1.347  10.076  21.402  0.00  0.00    +0.000 C 
ATOM      3  C   UNL     1       0.902   8.684  20.949  0.00  0.00    +0.000 C 
ATOM      4  N   UNL     1       1.596   8.308  19.732  0.00  0.00    +0.000 N 
ATOM      5  C   UNL     1       2.178   7.080  19.756  0.00  0.00    +0.000 C 
ATOM      6  O   UNL     1       2.118   6.316  20.734  0.00  0.00    +0.000 OA
ATOM      7  N   UNL     1       2.901   6.722  18.670  0.00  0.00    +0.000 N 
ATOM      8  C   UNL     1       1.334   9.235  18.628  0.00  0.00    +0.000 C 
ATOM      9  C   UNL     1       1.542  10.709  19.097  0.00  0.00    +0.000 C 
ATOM     10  H   UNL     1       3.206   7.425  18.044  0.00  0.00    +0.000 HD
ENDROOT
BRANCH   1  11
ATOM     11  C   UNL     1      -0.396  11.605  20.682  0.00  0.00    +0.000 C 
BRANCH  11  18
ATOM     12  C   UNL     1      -1.908  11.392  23.325  0.00  0.00    +0.000 C 
ATOM     13  C   UNL     1      -1.380  12.705  22.792  0.00  0.00    +0.000 A 
ATOM     14  C   UNL     1      -1.708  13.869  23.504  0.00  0.00    +0.000 A 
ATOM     15  C   UNL     1      -1.273  15.119  23.069  0.00  0.00    +0.000 A 
ATOM     16  C   UNL     1      -0.492  15.229  21.928  0.00  0.00    +0.000 A 
ATOM     17  C   UNL     1      -0.161  14.090  21.205  0.00  0.00    +0.000 A 
ATOM     18  C   UNL     1      -0.599  12.813  21.603  0.00  0.00    +0.000 A 
ENDBRANCH  11  18
BRANCH  11  19
ATOM     19  C   UNL     1      -1.448  11.577  19.539  0.00  0.00    +0.000 A 
ATOM     20  C   UNL     1      -2.709  12.170  19.679  0.00  0.00    +0.000 A 
ATOM     21  C   UNL     1      -3.696  11.966  18.707  0.00  0.00    +0.000 A 
ATOM     22  C   UNL     1      -3.388  11.335  17.507  0.00  0.00    +0.000 A 
ATOM     23 CL   UNL     1      -4.603  11.110  16.311  0.00  0.00    +0.000 Cl
ATOM     24  C   UNL     1      -2.095  10.887  17.267  0.00  0.00    +0.000 A 
ATOM     25  C   UNL     1      -1.159  10.951  18.304  0.00  0.00    +0.000 A 
ENDBRANCH  11  19
ENDBRANCH   1  11
BRANCH   7  26
ATOM     26  C   UNL     1       3.566   5.429  18.627  0.00  0.00    +0.000 C 
BRANCH  26  27
ATOM     27  C   UNL     1       2.991   4.533  17.514  0.00  0.00    +0.000 C 
ATOM     28  C   UNL     1       3.762   3.205  17.414  0.00  0.00    +0.000 C 
ATOM     29  C   UNL     1       3.499   2.291  18.608  0.00  0.00    +0.000 C 
ATOM     30  C   UNL     1       2.007   2.023  18.775  0.00  0.00    +0.000 C 
ATOM     31  C   UNL     1       1.212   3.320  18.894  0.00  0.00    +0.000 C 
ATOM     32  C   UNL     1       1.491   4.258  17.719  0.00  0.00    +0.000 C 
ENDBRANCH  26  27
ENDBRANCH   7  26
TORSDOF 5
ENDMDL
