MODEL 1
REMARK VINA RESULT:      -8.4      0.000      0.000
REMARK  Name = 
REMARK  6 active torsions:
REMARK  status: ('A' for Active; 'I' for Inactive)
REMARK    1  A    between atoms: C_1  and  C_2
REMARK    2  A    between atoms: C_7  and  C_8
REMARK    3  A    between atoms: C_9  and  C_10
REMARK    4  A    between atoms: N_12  and  C_13
REMARK    5  A    between atoms: C_13  and  N_14
REMARK    6  A    between atoms: N_14  and  C_15
REMARK                            x       y       z     vdW  Elec       q    Type
REMARK                         _______ _______ _______ _____ _____    ______ ____
ROOT
ATOM      1  C   UNL     1       4.418   4.783  18.841  0.00  0.00    +0.000 A 
ATOM      2  N   UNL     1       3.752   5.833  19.224  0.00  0.00    +0.000 NA
ATOM      3  N   UNL     1       2.873   5.317  20.166  0.00  0.00    +0.000 N 
ATOM      4  C   UNL     1       3.067   3.966  20.291  0.00  0.00    +0.000 A 
ATOM      5  S   UNL     1       2.304   2.802  21.176  0.00  0.00    +0.000 S 
ATOM      6  O   UNL     1       4.077   3.616  19.458  0.00  0.00    +0.000 OA
ENDROOT
BRANCH   1  15
ATOM      7  C   UNL     1       7.048   3.778  12.083  0.00  0.00    +0.000 C 
ATOM      8  C   UNL     1       6.251   3.998  13.344  0.00  0.00    +0.000 C 
ATOM      9  O   UNL     1       5.027   4.018  13.310  0.00  0.00    +0.000 OA
ATOM     10  N   UNL     1       7.057   4.170  14.449  0.00  0.00    +0.000 N 
ATOM     11  C   UNL     1       6.634   4.393  15.735  0.00  0.00    +0.000 A 
ATOM     12  N   UNL     1       7.456   4.829  16.657  0.00  0.00    +0.000 NA
ATOM     13  C   UNL     1       6.771   5.049  17.849  0.00  0.00    +0.000 A 
ATOM     14  C   UNL     1       7.527   5.659  18.973  0.00  0.00    +0.000 C 
ATOM     15  C   UNL     1       5.430   4.685  17.826  0.00  0.00    +0.000 A 
ATOM     16  S   UNL     1       5.049   4.084  16.257  0.00  0.00    +0.000 S 
ATOM     17  H   UNL     1       8.050   4.309  14.324  0.00  0.00    +0.000 HD
ENDBRANCH   1  15
BRANCH   3  18
ATOM     18  C   UNL     1       1.791   6.099  20.739  0.00  0.00    +0.000 C 
BRANCH  18  19
ATOM     19  N   UNL     1       2.125   7.498  20.627  0.00  0.00    +0.000 N 
ATOM     20  H   UNL     1       2.999   7.753  21.069  0.00  0.00    +0.000 HD
BRANCH  19  21
ATOM     21  C   UNL     1       1.368   8.501  20.059  0.00  0.00    +0.000 A 
ATOM     22  C   UNL     1       0.334   9.185  20.714  0.00  0.00    +0.000 A 
ATOM     23  C   UNL     1      -0.398  10.196  20.072  0.00  0.00    +0.000 A 
ATOM     24  C   UNL     1      -0.115  10.517  18.751  0.00  0.00    +0.000 A 
ATOM     25  F   UNL     1      -0.809  11.485  18.138  0.00  0.00    +0.000 F 
ATOM     26  C   UNL     1       0.876   9.840  18.063  0.00  0.00    +0.000 A 
ATOM     27  C   UNL     1       1.607   8.839  18.714  0.00  0.00    +0.000 A 
ENDBRANCH  19  21
ENDBRANCH  18  19
ENDBRANCH   3  18
TORSDOF 4
ENDMDL
MODEL 2
REMARK VINA RESULT:      -8.3      0.958      1.479
REMARK  Name = 
REMARK  6 active torsions:
REMARK  status: ('A' for Active; 'I' for Inactive)
REMARK    1  A    between atoms: C_1  and  C_2
REMARK    2  A    between atoms: C_7  and  C_8
REMARK    3  A    between atoms: C_9  and  C_10
REMARK    4  A    between atoms: N_12  and  C_13
REMARK    5  A    between atoms: C_13  and  N_14
REMARK    6  A    between atoms: N_14  and  C_15
REMARK                            x       y       z     vdW  Elec       q    Type
REMARK                         _______ _______ _______ _____ _____    ______ ____
ROOT
ATOM      1  C   UNL     1       4.421   4.819  18.866  0.00  0.00    +0.000 A 
ATOM      2  N   UNL     1       3.713   5.856  19.210  0.00  0.00    +0.000 NA
ATOM      3  N   UNL     1       2.853   5.340  20.169  0.00  0.00    +0.000 N 
ATOM      4  C   UNL     1       3.099   4.003  20.343  0.00  0.00    +0.000 A 
ATOM      5  S   UNL     1       2.380   2.843  21.268  0.00  0.00    +0.000 S 
ATOM      6  O   UNL     1       4.125   3.663  19.524  0.00  0.00    +0.000 OA
ENDROOT
BRANCH   1  15
ATOM      7  C   UNL     1       7.095   3.795  12.129  0.00  0.00    +0.000 C 
ATOM      8  C   UNL     1       6.289   4.015  13.384  0.00  0.00    +0.000 C 
ATOM      9  O   UNL     1       5.065   4.021  13.343  0.00  0.00    +0.000 OA
ATOM     10  N   UNL     1       7.088   4.203  14.491  0.00  0.00    +0.000 N 
ATOM     11  C   UNL     1       6.656   4.431  15.773  0.00  0.00    +0.000 A 
ATOM     12  N   UNL     1       7.469   4.882  16.697  0.00  0.00    +0.000 NA
ATOM     13  C   UNL     1       6.776   5.104  17.883  0.00  0.00    +0.000 A 
ATOM     14  C   UNL     1       7.520   5.730  19.006  0.00  0.00    +0.000 C 
ATOM     15  C   UNL     1       5.439   4.725  17.857  0.00  0.00    +0.000 A 
ATOM     16  S   UNL     1       5.072   4.109  16.290  0.00  0.00    +0.000 S 
ATOM     17  H   UNL     1       8.080   4.353  14.370  0.00  0.00    +0.000 HD
ENDBRANCH   1  15
BRANCH   3  18
ATOM     18  C   UNL     1       1.739   6.098  20.711  0.00  0.00    +0.000 C 
BRANCH  18  19
ATOM     19  N   UNL     1       2.055   7.503  20.627  0.00  0.00    +0.000 N 
ATOM     20  H   UNL     1       3.030   7.700  20.444  0.00  0.00    +0.000 HD
BRANCH  19  21
ATOM     21  C   UNL     1       1.205   8.570  20.831  0.00  0.00    +0.000 A 
ATOM     22  C   UNL     1       0.779   9.451  19.827  0.00  0.00    +0.000 A 
ATOM     23  C   UNL     1      -0.087  10.520  20.108  0.00  0.00    +0.000 A 
ATOM     24  C   UNL     1      -0.518  10.732  21.410  0.00  0.00    +0.000 A 
ATOM     25  F   UNL     1      -1.348  11.748  21.681  0.00  0.00    +0.000 F 
ATOM     26  C   UNL     1      -0.092   9.902  22.433  0.00  0.00    +0.000 A 
ATOM     27  C   UNL     1       0.765   8.833  22.142  0.00  0.00    +0.000 A 
ENDBRANCH  19  21
ENDBRANCH  18  19
ENDBRANCH   3  18
TORSDOF 4
ENDMDL
MODEL 3
REMARK VINA RESULT:      -8.3      3.549      8.205
REMARK  Name = 
REMARK  6 active torsions:
REMARK  status: ('A' for Active; 'I' for Inactive)
REMARK    1  A    between atoms: C_1  and  C_2
REMARK    2  A    between atoms: C_7  and  C_8
REMARK    3  A    between atoms: C_9  and  C_10
REMARK    4  A    between atoms: N_12  and  C_13
REMARK    5  A    between atoms: C_13  and  N_14
REMARK    6  A    between atoms: N_14  and  C_15
REMARK                            x       y       z     vdW  Elec       q    Type
REMARK                         _______ _______ _______ _____ _____    ______ ____
ROOT
ATOM      1  C   UNL     1       2.233   6.414  19.987  0.00  0.00    +0.000 A 
ATOM      2  N   UNL     1       3.280   5.988  19.341  0.00  0.00    +0.000 NA
ATOM      3  N   UNL     1       3.410   4.681  19.789  0.00  0.00    +0.000 N 
ATOM      4  C   UNL     1       2.419   4.398  20.692  0.00  0.00    +0.000 A 
ATOM      5  S   UNL     1       2.085   3.069  21.609  0.00  0.00    +0.000 S 
ATOM      6  O   UNL     1       1.641   5.502  20.809  0.00  0.00    +0.000 OA
ENDROOT
BRANCH   1  15
ATOM      7  C   UNL     1      -1.100  12.274  22.840  0.00  0.00    +0.000 C 
ATOM      8  C   UNL     1      -0.382  10.986  22.526  0.00  0.00    +0.000 C 
ATOM      9  O   UNL     1      -0.108  10.194  23.420  0.00  0.00    +0.000 OA
ATOM     10  N   UNL     1      -0.097  10.860  21.184  0.00  0.00    +0.000 N 
ATOM     11  C   UNL     1       0.550   9.808  20.587  0.00  0.00    +0.000 A 
ATOM     12  N   UNL     1       1.030   9.904  19.371  0.00  0.00    +0.000 NA
ATOM     13  C   UNL     1       1.706   8.736  19.027  0.00  0.00    +0.000 A 
ATOM     14  C   UNL     1       2.418   8.715  17.723  0.00  0.00    +0.000 C 
ATOM     15  C   UNL     1       1.648   7.726  19.980  0.00  0.00    +0.000 A 
ATOM     16  S   UNL     1       0.744   8.295  21.331  0.00  0.00    +0.000 S 
ATOM     17  H   UNL     1      -0.215  11.657  20.573  0.00  0.00    +0.000 HD
ENDBRANCH   1  15
BRANCH   3  18
ATOM     18  C   UNL     1       4.567   3.859  19.478  0.00  0.00    +0.000 C 
BRANCH  18  19
ATOM     19  N   UNL     1       5.544   4.676  18.801  0.00  0.00    +0.000 N 
ATOM     20  H   UNL     1       5.963   5.390  19.382  0.00  0.00    +0.000 HD
BRANCH  19  21
ATOM     21  C   UNL     1       5.903   4.628  17.471  0.00  0.00    +0.000 A 
ATOM     22  C   UNL     1       7.177   4.948  16.979  0.00  0.00    +0.000 A 
ATOM     23  C   UNL     1       7.473   4.879  15.608  0.00  0.00    +0.000 A 
ATOM     24  C   UNL     1       6.482   4.511  14.708  0.00  0.00    +0.000 A 
ATOM     25  F   UNL     1       6.763   4.440  13.401  0.00  0.00    +0.000 F 
ATOM     26  C   UNL     1       5.204   4.220  15.154  0.00  0.00    +0.000 A 
ATOM     27  C   UNL     1       4.921   4.282  16.524  0.00  0.00    +0.000 A 
ENDBRANCH  19  21
ENDBRANCH  18  19
ENDBRANCH   3  18
TORSDOF 4
ENDMDL
MODEL 4
REMARK VINA RESULT:      -8.1      3.583      7.786
REMARK  Name = 
REMARK  6 active torsions:
REMARK  status: ('A' for Active; 'I' for Inactive)
REMARK    1  A    between atoms: C_1  and  C_2
REMARK    2  A    between atoms: C_7  and  C_8
REMARK    3  A    between atoms: C_9  and  C_10
REMARK    4  A    between atoms: N_12  and  C_13
REMARK    5  A    between atoms: C_13  and  N_14
REMARK    6  A    between atoms: N_14  and  C_15
REMARK                            x       y       z     vdW  Elec       q    Type
REMARK                         _______ _______ _______ _____ _____    ______ ____
ROOT
ATOM      1  C   UNL     1       2.256   6.175  20.014  0.00  0.00    +0.000 A 
ATOM      2  N   UNL     1       3.352   5.735  19.467  0.00  0.00    +0.000 NA
ATOM      3  N   UNL     1       3.404   4.414  19.892  0.00  0.00    +0.000 N 
ATOM      4  C   UNL     1       2.319   4.139  20.683  0.00  0.00    +0.000 A 
ATOM      5  S   UNL     1       1.860   2.799  21.527  0.00  0.00    +0.000 S 
ATOM      6  O   UNL     1       1.561   5.261  20.748  0.00  0.00    +0.000 OA
ENDROOT
BRANCH   1  15
ATOM      7  C   UNL     1      -0.937  12.169  22.745  0.00  0.00    +0.000 C 
ATOM      8  C   UNL     1      -0.251  10.857  22.458  0.00  0.00    +0.000 C 
ATOM      9  O   UNL     1      -0.008  10.072  23.366  0.00  0.00    +0.000 OA
ATOM     10  N   UNL     1       0.041  10.702  21.121  0.00  0.00    +0.000 N 
ATOM     11  C   UNL     1       0.664   9.623  20.546  0.00  0.00    +0.000 A 
ATOM     12  N   UNL     1       1.157   9.686  19.333  0.00  0.00    +0.000 NA
ATOM     13  C   UNL     1       1.803   8.495  19.013  0.00  0.00    +0.000 A 
ATOM     14  C   UNL     1       2.525   8.433  17.717  0.00  0.00    +0.000 C 
ATOM     15  C   UNL     1       1.709   7.502  19.981  0.00  0.00    +0.000 A 
ATOM     16  S   UNL     1       0.809   8.117  21.315  0.00  0.00    +0.000 S 
ATOM     17  H   UNL     1      -0.049  11.492  20.496  0.00  0.00    +0.000 HD
ENDBRANCH   1  15
BRANCH   3  18
ATOM     18  C   UNL     1       4.564   3.568  19.679  0.00  0.00    +0.000 C 
BRANCH  18  19
ATOM     19  N   UNL     1       5.197   3.957  18.442  0.00  0.00    +0.000 N 
ATOM     20  H   UNL     1       5.045   3.313  17.677  0.00  0.00    +0.000 HD
BRANCH  19  21
ATOM     21  C   UNL     1       6.015   5.045  18.222  0.00  0.00    +0.000 A 
ATOM     22  C   UNL     1       7.107   5.396  19.030  0.00  0.00    +0.000 A 
ATOM     23  C   UNL     1       7.897   6.521  18.746  0.00  0.00    +0.000 A 
ATOM     24  C   UNL     1       7.585   7.324  17.657  0.00  0.00    +0.000 A 
ATOM     25  F   UNL     1       8.340   8.395  17.381  0.00  0.00    +0.000 F 
ATOM     26  C   UNL     1       6.496   7.026  16.857  0.00  0.00    +0.000 A 
ATOM     27  C   UNL     1       5.718   5.897  17.142  0.00  0.00    +0.000 A 
ENDBRANCH  19  21
ENDBRANCH  18  19
ENDBRANCH   3  18
TORSDOF 4
ENDMDL
MODEL 5
REMARK VINA RESULT:      -7.9      3.610      7.815
REMARK  Name = 
REMARK  6 active torsions:
REMARK  status: ('A' for Active; 'I' for Inactive)
REMARK    1  A    between atoms: C_1  and  C_2
REMARK    2  A    between atoms: C_7  and  C_8
REMARK    3  A    between atoms: C_9  and  C_10
REMARK    4  A    between atoms: N_12  and  C_13
REMARK    5  A    between atoms: C_13  and  N_14
REMARK    6  A    between atoms: N_14  and  C_15
REMARK                            x       y       z     vdW  Elec       q    Type
REMARK                         _______ _______ _______ _____ _____    ______ ____
ROOT
ATOM      1  C   UNL     1       2.188   6.109  19.802  0.00  0.00    +0.000 A 
ATOM      2  N   UNL     1       2.962   5.574  18.902  0.00  0.00    +0.000 NA
ATOM      3  N   UNL     1       3.175   4.295  19.397  0.00  0.00    +0.000 N 
ATOM      4  C   UNL     1       2.507   4.139  20.583  0.00  0.00    +0.000 A 
ATOM      5  S   UNL     1       2.426   2.899  21.668  0.00  0.00    +0.000 S 
ATOM      6  O   UNL     1       1.849   5.295  20.841  0.00  0.00    +0.000 OA
ENDROOT
BRANCH   1  15
ATOM      7  C   UNL     1      -0.960  11.939  22.916  0.00  0.00    +0.000 C 
ATOM      8  C   UNL     1      -0.300  10.635  22.542  0.00  0.00    +0.000 C 
ATOM      9  O   UNL     1      -0.127   9.763  23.385  0.00  0.00    +0.000 OA
ATOM     10  N   UNL     1       0.056  10.592  21.212  0.00  0.00    +0.000 N 
ATOM     11  C   UNL     1       0.675   9.548  20.572  0.00  0.00    +0.000 A 
ATOM     12  N   UNL     1       1.231   9.704  19.395  0.00  0.00    +0.000 NA
ATOM     13  C   UNL     1       1.857   8.525  18.999  0.00  0.00    +0.000 A 
ATOM     14  C   UNL     1       2.643   8.556  17.738  0.00  0.00    +0.000 C 
ATOM     15  C   UNL     1       1.683   7.452  19.865  0.00  0.00    +0.000 A 
ATOM     16  S   UNL     1       0.735   7.975  21.205  0.00  0.00    +0.000 S 
ATOM     17  H   UNL     1       0.022  11.438  20.659  0.00  0.00    +0.000 HD
ENDBRANCH   1  15
BRANCH   3  18
ATOM     18  C   UNL     1       4.141   3.381  18.814  0.00  0.00    +0.000 C 
BRANCH  18  19
ATOM     19  N   UNL     1       5.468   3.852  19.129  0.00  0.00    +0.000 N 
ATOM     20  H   UNL     1       5.924   3.342  19.874  0.00  0.00    +0.000 HD
BRANCH  19  21
ATOM     21  C   UNL     1       6.130   4.931  18.582  0.00  0.00    +0.000 A 
ATOM     22  C   UNL     1       5.880   5.454  17.305  0.00  0.00    +0.000 A 
ATOM     23  C   UNL     1       6.595   6.556  16.812  0.00  0.00    +0.000 A 
ATOM     24  C   UNL     1       7.591   7.134  17.588  0.00  0.00    +0.000 A 
ATOM     25  F   UNL     1       8.272   8.189  17.121  0.00  0.00    +0.000 F 
ATOM     26  C   UNL     1       7.888   6.624  18.840  0.00  0.00    +0.000 A 
ATOM     27  C   UNL     1       7.163   5.530  19.328  0.00  0.00    +0.000 A 
ENDBRANCH  19  21
ENDBRANCH  18  19
ENDBRANCH   3  18
TORSDOF 4
ENDMDL
MODEL 6
REMARK VINA RESULT:      -7.8      3.227      4.679
REMARK  Name = 
REMARK  6 active torsions:
REMARK  status: ('A' for Active; 'I' for Inactive)
REMARK    1  A    between atoms: C_1  and  C_2
REMARK    2  A    between atoms: C_7  and  C_8
REMARK    3  A    between atoms: C_9  and  C_10
REMARK    4  A    between atoms: N_12  and  C_13
REMARK    5  A    between atoms: C_13  and  N_14
REMARK    6  A    between atoms: N_14  and  C_15
REMARK                            x       y       z     vdW  Elec       q    Type
REMARK                         _______ _______ _______ _____ _____    ______ ____
ROOT
ATOM      1  C   UNL     1       1.850   8.145  19.570  0.00  0.00    +0.000 A 
ATOM      2  N   UNL     1       1.519   9.254  18.975  0.00  0.00    +0.000 NA
ATOM      3  N   UNL     1       0.879   9.967  19.979  0.00  0.00    +0.000 N 
ATOM      4  C   UNL     1       0.863   9.229  21.134  0.00  0.00    +0.000 A 
ATOM      5  S   UNL     1       0.202   9.492  22.622  0.00  0.00    +0.000 S 
ATOM      6  O   UNL     1       1.507   8.062  20.887  0.00  0.00    +0.000 OA
ENDROOT
BRANCH   1  15
ATOM      7  C   UNL     1       6.492   4.479  15.257  0.00  0.00    +0.000 C 
ATOM      8  C   UNL     1       5.688   5.464  16.067  0.00  0.00    +0.000 C 
ATOM      9  O   UNL     1       5.903   6.667  15.973  0.00  0.00    +0.000 OA
ATOM     10  N   UNL     1       4.756   4.844  16.870  0.00  0.00    +0.000 N 
ATOM     11  C   UNL     1       3.879   5.465  17.723  0.00  0.00    +0.000 A 
ATOM     12  N   UNL     1       3.239   4.794  18.650  0.00  0.00    +0.000 NA
ATOM     13  C   UNL     1       2.476   5.659  19.430  0.00  0.00    +0.000 A 
ATOM     14  C   UNL     1       1.775   5.084  20.606  0.00  0.00    +0.000 C 
ATOM     15  C   UNL     1       2.487   6.985  19.013  0.00  0.00    +0.000 A 
ATOM     16  S   UNL     1       3.506   7.118  17.630  0.00  0.00    +0.000 S 
ATOM     17  H   UNL     1       4.792   3.842  16.993  0.00  0.00    +0.000 HD
ENDBRANCH   1  15
BRANCH   3  18
ATOM     18  C   UNL     1       0.166  11.206  19.727  0.00  0.00    +0.000 C 
BRANCH  18  19
ATOM     19  N   UNL     1      -1.240  10.911  19.600  0.00  0.00    +0.000 N 
ATOM     20  H   UNL     1      -1.712  10.751  20.481  0.00  0.00    +0.000 HD
BRANCH  19  21
ATOM     21  C   UNL     1      -1.968  10.763  18.438  0.00  0.00    +0.000 A 
ATOM     22  C   UNL     1      -1.587   9.952  17.360  0.00  0.00    +0.000 A 
ATOM     23  C   UNL     1      -2.378   9.850  16.204  0.00  0.00    +0.000 A 
ATOM     24  C   UNL     1      -3.553  10.583  16.107  0.00  0.00    +0.000 A 
ATOM     25  F   UNL     1      -4.311  10.484  15.008  0.00  0.00    +0.000 F 
ATOM     26  C   UNL     1      -3.943  11.420  17.139  0.00  0.00    +0.000 A 
ATOM     27  C   UNL     1      -3.153  11.508  18.291  0.00  0.00    +0.000 A 
ENDBRANCH  19  21
ENDBRANCH  18  19
ENDBRANCH   3  18
TORSDOF 4
ENDMDL
MODEL 7
REMARK VINA RESULT:      -7.7      1.849      2.239
REMARK  Name = 
REMARK  6 active torsions:
REMARK  status: ('A' for Active; 'I' for Inactive)
REMARK    1  A    between atoms: C_1  and  C_2
REMARK    2  A    between atoms: C_7  and  C_8
REMARK    3  A    between atoms: C_9  and  C_10
REMARK    4  A    between atoms: N_12  and  C_13
REMARK    5  A    between atoms: C_13  and  N_14
REMARK    6  A    between atoms: N_14  and  C_15
REMARK                            x       y       z     vdW  Elec       q    Type
REMARK                         _______ _______ _______ _____ _____    ______ ____
ROOT
ATOM      1  C   UNL     1       4.380   6.160  17.735  0.00  0.00    +0.000 A 
ATOM      2  N   UNL     1       3.742   7.293  17.788  0.00  0.00    +0.000 NA
ATOM      3  N   UNL     1       2.847   7.098  18.830  0.00  0.00    +0.000 N 
ATOM      4  C   UNL     1       3.002   5.839  19.346  0.00  0.00    +0.000 A 
ATOM      5  S   UNL     1       2.204   5.004  20.523  0.00  0.00    +0.000 S 
ATOM      6  O   UNL     1       4.004   5.234  18.662  0.00  0.00    +0.000 OA
ENDROOT
BRANCH   1  15
ATOM      7  C   UNL     1       7.010   3.033  11.661  0.00  0.00    +0.000 C 
ATOM      8  C   UNL     1       6.213   3.646  12.784  0.00  0.00    +0.000 C 
ATOM      9  O   UNL     1       4.988   3.648  12.748  0.00  0.00    +0.000 OA
ATOM     10  N   UNL     1       7.018   4.170  13.772  0.00  0.00    +0.000 N 
ATOM     11  C   UNL     1       6.595   4.795  14.917  0.00  0.00    +0.000 A 
ATOM     12  N   UNL     1       7.416   5.510  15.647  0.00  0.00    +0.000 NA
ATOM     13  C   UNL     1       6.730   6.101  16.705  0.00  0.00    +0.000 A 
ATOM     14  C   UNL     1       7.484   7.045  17.569  0.00  0.00    +0.000 C 
ATOM     15  C   UNL     1       5.391   5.743  16.805  0.00  0.00    +0.000 A 
ATOM     16  S   UNL     1       5.012   4.665  15.515  0.00  0.00    +0.000 S 
ATOM     17  H   UNL     1       8.011   4.266  13.606  0.00  0.00    +0.000 HD
ENDBRANCH   1  15
BRANCH   3  18
ATOM     18  C   UNL     1       1.786   8.041  19.137  0.00  0.00    +0.000 C 
BRANCH  18  19
ATOM     19  N   UNL     1       1.794   8.298  20.556  0.00  0.00    +0.000 N 
ATOM     20  H   UNL     1       2.491   7.774  21.069  0.00  0.00    +0.000 HD
BRANCH  19  21
ATOM     21  C   UNL     1       0.934   9.105  21.270  0.00  0.00    +0.000 A 
ATOM     22  C   UNL     1       0.647   8.951  22.635  0.00  0.00    +0.000 A 
ATOM     23  C   UNL     1      -0.243   9.811  23.298  0.00  0.00    +0.000 A 
ATOM     24  C   UNL     1      -0.877  10.823  22.592  0.00  0.00    +0.000 A 
ATOM     25  F   UNL     1      -1.723  11.648  23.223  0.00  0.00    +0.000 F 
ATOM     26  C   UNL     1      -0.643  10.985  21.237  0.00  0.00    +0.000 A 
ATOM     27  C   UNL     1       0.253  10.128  20.585  0.00  0.00    +0.000 A 
ENDBRANCH  19  21
ENDBRANCH  18  19
ENDBRANCH   3  18
TORSDOF 4
ENDMDL
MODEL 8
REMARK VINA RESULT:      -7.6      1.067      1.469
REMARK  Name = 
REMARK  6 active torsions:
REMARK  status: ('A' for Active; 'I' for Inactive)
REMARK    1  A    between atoms: C_1  and  C_2
REMARK    2  A    between atoms: C_7  and  C_8
REMARK    3  A    between atoms: C_9  and  C_10
REMARK    4  A    between atoms: N_12  and  C_13
REMARK    5  A    between atoms: C_13  and  N_14
REMARK    6  A    between atoms: N_14  and  C_15
REMARK                            x       y       z     vdW  Elec       q    Type
REMARK                         _______ _______ _______ _____ _____    ______ ____
ROOT
ATOM      1  C   UNL     1       4.532   5.569  18.225  0.00  0.00    +0.000 A 
ATOM      2  N   UNL     1       3.877   6.647  18.549  0.00  0.00    +0.000 NA
ATOM      3  N   UNL     1       3.042   6.209  19.567  0.00  0.00    +0.000 N 
ATOM      4  C   UNL     1       3.247   4.873  19.795  0.00  0.00    +0.000 A 
ATOM      5  S   UNL     1       2.528   3.785  20.804  0.00  0.00    +0.000 S 
ATOM      6  O   UNL     1       4.223   4.457  18.950  0.00  0.00    +0.000 OA
ENDROOT
BRANCH   1  15
ATOM      7  C   UNL     1       6.992   3.413  11.677  0.00  0.00    +0.000 C 
ATOM      8  C   UNL     1       6.226   3.801  12.916  0.00  0.00    +0.000 C 
ATOM      9  O   UNL     1       5.015   3.626  12.977  0.00  0.00    +0.000 OA
ATOM     10  N   UNL     1       7.040   4.346  13.885  0.00  0.00    +0.000 N 
ATOM     11  C   UNL     1       6.643   4.799  15.117  0.00  0.00    +0.000 A 
ATOM     12  N   UNL     1       7.422   5.558  15.849  0.00  0.00    +0.000 NA
ATOM     13  C   UNL     1       6.762   5.946  17.012  0.00  0.00    +0.000 A 
ATOM     14  C   UNL     1       7.456   6.910  17.905  0.00  0.00    +0.000 C 
ATOM     15  C   UNL     1       5.500   5.389  17.181  0.00  0.00    +0.000 A 
ATOM     16  S   UNL     1       5.155   4.386  15.823  0.00  0.00    +0.000 S 
ATOM     17  H   UNL     1       7.990   4.601  13.652  0.00  0.00    +0.000 HD
ENDBRANCH   1  15
BRANCH   3  18
ATOM     18  C   UNL     1       1.981   7.034  20.119  0.00  0.00    +0.000 C 
BRANCH  18  19
ATOM     19  N   UNL     1       1.918   8.264  19.369  0.00  0.00    +0.000 N 
ATOM     20  H   UNL     1       2.667   8.381  18.699  0.00  0.00    +0.000 HD
BRANCH  19  21
ATOM     21  C   UNL     1       1.012   9.293  19.516  0.00  0.00    +0.000 A 
ATOM     22  C   UNL     1       0.600  10.144  18.480  0.00  0.00    +0.000 A 
ATOM     23  C   UNL     1      -0.327  11.175  18.702  0.00  0.00    +0.000 A 
ATOM     24  C   UNL     1      -0.835  11.379  19.978  0.00  0.00    +0.000 A 
ATOM     25  F   UNL     1      -1.723  12.359  20.192  0.00  0.00    +0.000 F 
ATOM     26  C   UNL     1      -0.427  10.580  21.031  0.00  0.00    +0.000 A 
ATOM     27  C   UNL     1       0.491   9.549  20.798  0.00  0.00    +0.000 A 
ENDBRANCH  19  21
ENDBRANCH  18  19
ENDBRANCH   3  18
TORSDOF 4
ENDMDL
MODEL 9
REMARK VINA RESULT:      -7.5      1.227      1.358
REMARK  Name = 
REMARK  6 active torsions:
REMARK  status: ('A' for Active; 'I' for Inactive)
REMARK    1  A    between atoms: C_1  and  C_2
REMARK    2  A    between atoms: C_7  and  C_8
REMARK    3  A    between atoms: C_9  and  C_10
REMARK    4  A    between atoms: N_12  and  C_13
REMARK    5  A    between atoms: C_13  and  N_14
REMARK    6  A    between atoms: N_14  and  C_15
REMARK                            x       y       z     vdW  Elec       q    Type
REMARK                         _______ _______ _______ _____ _____    ______ ____
ROOT
ATOM      1  C   UNL     1       4.503   5.791  18.123  0.00  0.00    +0.000 A 
ATOM      2  N   UNL     1       3.882   6.895  18.421  0.00  0.00    +0.000 NA
ATOM      3  N   UNL     1       3.027   6.506  19.442  0.00  0.00    +0.000 N 
ATOM      4  C   UNL     1       3.187   5.170  19.698  0.00  0.00    +0.000 A 
ATOM      5  S   UNL     1       2.427   4.126  20.725  0.00  0.00    +0.000 S 
ATOM      6  O   UNL     1       4.154   4.704  18.869  0.00  0.00    +0.000 OA
ENDROOT
BRANCH   1  15
ATOM      7  C   UNL     1       6.959   3.307  11.690  0.00  0.00    +0.000 C 
ATOM      8  C   UNL     1       6.194   3.757  12.909  0.00  0.00    +0.000 C 
ATOM      9  O   UNL     1       4.982   3.587  12.979  0.00  0.00    +0.000 OA
ATOM     10  N   UNL     1       7.008   4.350  13.848  0.00  0.00    +0.000 N 
ATOM     11  C   UNL     1       6.612   4.864  15.057  0.00  0.00    +0.000 A 
ATOM     12  N   UNL     1       7.392   5.658  15.749  0.00  0.00    +0.000 NA
ATOM     13  C   UNL     1       6.733   6.105  16.891  0.00  0.00    +0.000 A 
ATOM     14  C   UNL     1       7.427   7.112  17.734  0.00  0.00    +0.000 C 
ATOM     15  C   UNL     1       5.471   5.558  17.088  0.00  0.00    +0.000 A 
ATOM     16  S   UNL     1       5.124   4.488  15.783  0.00  0.00    +0.000 S 
ATOM     17  H   UNL     1       7.958   4.591  13.602  0.00  0.00    +0.000 HD
ENDBRANCH   1  15
BRANCH   3  18
ATOM     18  C   UNL     1       1.991   7.376  19.970  0.00  0.00    +0.000 C 
BRANCH  18  19
ATOM     19  N   UNL     1       1.823   8.491  19.070  0.00  0.00    +0.000 N 
ATOM     20  H   UNL     1       2.508   8.531  18.327  0.00  0.00    +0.000 HD
BRANCH  19  21
ATOM     21  C   UNL     1       0.898   9.510  19.157  0.00  0.00    +0.000 A 
ATOM     22  C   UNL     1       0.746  10.354  20.266  0.00  0.00    +0.000 A 
ATOM     23  C   UNL     1      -0.221  11.372  20.285  0.00  0.00    +0.000 A 
ATOM     24  C   UNL     1      -1.065  11.540  19.196  0.00  0.00    +0.000 A 
ATOM     25  F   UNL     1      -1.985  12.513  19.211  0.00  0.00    +0.000 F 
ATOM     26  C   UNL     1      -0.966  10.704  18.097  0.00  0.00    +0.000 A 
ATOM     27  C   UNL     1       0.008   9.698  18.083  0.00  0.00    +0.000 A 
ENDBRANCH  19  21
ENDBRANCH  18  19
ENDBRANCH   3  18
TORSDOF 4
ENDMDL
