MODEL 1
REMARK VINA RESULT:      -5.8      0.000      0.000
REMARK  Name = 
REMARK  8 active torsions:
REMARK  status: ('A' for Active; 'I' for Inactive)
REMARK    1  A    between atoms: C_1  and  C_2
REMARK    2  A    between atoms: C_2  and  O_3
REMARK    3  A    between atoms: O_3  and  C_4
REMARK    4  A    between atoms: C_4  and  C_6
REMARK    5  A    between atoms: C_6  and  S_7
REMARK    6  A    between atoms: S_7  and  C_8
REMARK    7  A    between atoms: C_10  and  N_11
REMARK    8  A    between atoms: C_10  and  N_12
REMARK                            x       y       z     vdW  Elec       q    Type
REMARK                         _______ _______ _______ _____ _____    ______ ____
ROOT
ATOM      1  C   UNL     1       4.234   4.057  17.817  0.00  0.00    +0.000 C 
ATOM      2  C   UNL     1       3.653   2.918  18.291  0.00  0.00    +0.000 C 
ENDROOT
BRANCH   2   3
ATOM      3  N   UNL     1       2.718   2.834  19.307  0.00  0.00    +0.000 N 
ATOM      4  C   UNL     1       1.349   3.342  19.219  0.00  0.00    +0.000 C 
ATOM      5  C   UNL     1       1.099   4.017  20.556  0.00  0.00    +0.000 C 
ATOM      6  C   UNL     1       1.915   3.185  21.529  0.00  0.00    +0.000 C 
ATOM      7  C   UNL     1       3.109   2.682  20.715  0.00  0.00    +0.000 C 
ENDBRANCH   2   3
BRANCH   2   8
ATOM      8  N   UNL     1       3.944   1.679  17.748  0.00  0.00    +0.000 N 
ATOM      9  H   UNL     1       4.394   1.718  16.841  0.00  0.00    +0.000 HD
ATOM     10  H   UNL     1       3.116   1.091  17.777  0.00  0.00    +0.000 HD
ENDBRANCH   2   8
BRANCH   1  11
ATOM     11  C   UNL     1       4.060   5.365  18.537  0.00  0.00    +0.000 C 
ATOM     12  O   UNL     1       4.599   5.645  19.603  0.00  0.00    +0.000 OA
BRANCH  11  13
ATOM     13  O   UNL     1       3.263   6.226  17.846  0.00  0.00    +0.000 OA
BRANCH  13  15
ATOM     14  C   UNL     1       2.140   8.414  17.861  0.00  0.00    +0.000 C 
ATOM     15  C   UNL     1       2.536   7.173  18.647  0.00  0.00    +0.000 C 
ENDBRANCH  13  15
ENDBRANCH  11  13
ENDBRANCH   1  11
BRANCH   1  16
ATOM     16  S   UNL     1       5.185   4.019  16.344  0.00  0.00    +0.000 S 
BRANCH  16  17
ATOM     17  C   UNL     1       6.709   4.387  16.970  0.00  0.00    +0.000 C 
ATOM     18  N   UNL     1       7.756   4.672  17.378  0.00  0.00    +0.000 NA
ENDBRANCH  16  17
ENDBRANCH   1  16
TORSDOF 7
ENDMDL
MODEL 2
REMARK VINA RESULT:      -5.7      2.567      3.815
REMARK  Name = 
REMARK  8 active torsions:
REMARK  status: ('A' for Active; 'I' for Inactive)
REMARK    1  A    between atoms: C_1  and  C_2
REMARK    2  A    between atoms: C_2  and  O_3
REMARK    3  A    between atoms: O_3  and  C_4
REMARK    4  A    between atoms: C_4  and  C_6
REMARK    5  A    between atoms: C_6  and  S_7
REMARK    6  A    between atoms: S_7  and  C_8
REMARK    7  A    between atoms: C_10  and  N_11
REMARK    8  A    between atoms: C_10  and  N_12
REMARK                            x       y       z     vdW  Elec       q    Type
REMARK                         _______ _______ _______ _____ _____    ______ ____
ROOT
ATOM      1  C   UNL     1       5.825   4.901  17.192  0.00  0.00    +0.000 C 
ATOM      2  C   UNL     1       4.965   4.316  18.074  0.00  0.00    +0.000 C 
ENDROOT
BRANCH   2   3
ATOM      3  N   UNL     1       3.699   3.835  17.792  0.00  0.00    +0.000 N 
ATOM      4  C   UNL     1       2.479   4.643  17.822  0.00  0.00    +0.000 C 
ATOM      5  C   UNL     1       1.448   3.763  18.507  0.00  0.00    +0.000 C 
ATOM      6  C   UNL     1       1.842   2.361  18.081  0.00  0.00    +0.000 C 
ATOM      7  C   UNL     1       3.362   2.411  17.912  0.00  0.00    +0.000 C 
ENDBRANCH   2   3
BRANCH   2   8
ATOM      8  N   UNL     1       5.314   4.116  19.398  0.00  0.00    +0.000 N 
ATOM      9  H   UNL     1       4.523   4.014  20.025  0.00  0.00    +0.000 HD
ATOM     10  H   UNL     1       5.984   4.822  19.686  0.00  0.00    +0.000 HD
ENDBRANCH   2   8
BRANCH   1  11
ATOM     11  C   UNL     1       5.366   5.287  15.814  0.00  0.00    +0.000 C 
ATOM     12  O   UNL     1       5.122   6.437  15.463  0.00  0.00    +0.000 OA
BRANCH  11  13
ATOM     13  O   UNL     1       5.292   4.213  14.981  0.00  0.00    +0.000 OA
BRANCH  13  15
ATOM     14  C   UNL     1       6.018   3.569  12.721  0.00  0.00    +0.000 C 
ATOM     15  C   UNL     1       6.425   4.023  14.115  0.00  0.00    +0.000 C 
ENDBRANCH  13  15
ENDBRANCH  11  13
ENDBRANCH   1  11
BRANCH   1  16
ATOM     16  S   UNL     1       7.492   5.200  17.647  0.00  0.00    +0.000 S 
BRANCH  16  17
ATOM     17  C   UNL     1       7.550   6.876  17.462  0.00  0.00    +0.000 C 
ATOM     18  N   UNL     1       7.629   8.026  17.334  0.00  0.00    +0.000 NA
ENDBRANCH  16  17
ENDBRANCH   1  16
TORSDOF 7
ENDMDL
MODEL 3
REMARK VINA RESULT:      -5.6      1.955      2.793
REMARK  Name = 
REMARK  8 active torsions:
REMARK  status: ('A' for Active; 'I' for Inactive)
REMARK    1  A    between atoms: C_1  and  C_2
REMARK    2  A    between atoms: C_2  and  O_3
REMARK    3  A    between atoms: O_3  and  C_4
REMARK    4  A    between atoms: C_4  and  C_6
REMARK    5  A    between atoms: C_6  and  S_7
REMARK    6  A    between atoms: S_7  and  C_8
REMARK    7  A    between atoms: C_10  and  N_11
REMARK    8  A    between atoms: C_10  and  N_12
REMARK                            x       y       z     vdW  Elec       q    Type
REMARK                         _______ _______ _______ _____ _____    ______ ____
ROOT
ATOM      1  C   UNL     1       4.908   4.101  17.809  0.00  0.00    +0.000 C 
ATOM      2  C   UNL     1       3.716   3.518  18.125  0.00  0.00    +0.000 C 
ENDROOT
BRANCH   2   3
ATOM      3  N   UNL     1       3.000   3.693  19.296  0.00  0.00    +0.000 N 
ATOM      4  C   UNL     1       2.989   2.745  20.411  0.00  0.00    +0.000 C 
ATOM      5  C   UNL     1       1.535   2.674  20.844  0.00  0.00    +0.000 C 
ATOM      6  C   UNL     1       1.017   4.074  20.570  0.00  0.00    +0.000 C 
ATOM      7  C   UNL     1       1.821   4.565  19.365  0.00  0.00    +0.000 C 
ENDBRANCH   2   3
BRANCH   2   8
ATOM      8  N   UNL     1       3.067   2.675  17.241  0.00  0.00    +0.000 N 
ATOM      9  H   UNL     1       2.873   1.752  17.613  0.00  0.00    +0.000 HD
ATOM     10  H   UNL     1       3.556   2.670  16.351  0.00  0.00    +0.000 HD
ENDBRANCH   2   8
BRANCH   1  11
ATOM     11  C   UNL     1       5.693   4.854  18.845  0.00  0.00    +0.000 C 
ATOM     12  O   UNL     1       5.191   5.519  19.745  0.00  0.00    +0.000 OA
BRANCH  11  13
ATOM     13  O   UNL     1       7.035   4.680  18.694  0.00  0.00    +0.000 OA
BRANCH  13  15
ATOM     14  C   UNL     1       7.817   6.945  18.138  0.00  0.00    +0.000 C 
ATOM     15  C   UNL     1       7.853   5.784  19.121  0.00  0.00    +0.000 C 
ENDBRANCH  13  15
ENDBRANCH  11  13
ENDBRANCH   1  11
BRANCH   1  16
ATOM     16  S   UNL     1       5.540   3.993  16.177  0.00  0.00    +0.000 S 
BRANCH  16  17
ATOM     17  C   UNL     1       5.393   5.604  15.698  0.00  0.00    +0.000 C 
ATOM     18  N   UNL     1       5.254   6.704  15.359  0.00  0.00    +0.000 NA
ENDBRANCH  16  17
ENDBRANCH   1  16
TORSDOF 7
ENDMDL
MODEL 4
REMARK VINA RESULT:      -5.5      2.260      4.510
REMARK  Name = 
REMARK  8 active torsions:
REMARK  status: ('A' for Active; 'I' for Inactive)
REMARK    1  A    between atoms: C_1  and  C_2
REMARK    2  A    between atoms: C_2  and  O_3
REMARK    3  A    between atoms: O_3  and  C_4
REMARK    4  A    between atoms: C_4  and  C_6
REMARK    5  A    between atoms: C_6  and  S_7
REMARK    6  A    between atoms: S_7  and  C_8
REMARK    7  A    between atoms: C_10  and  N_11
REMARK    8  A    between atoms: C_10  and  N_12
REMARK                            x       y       z     vdW  Elec       q    Type
REMARK                         _______ _______ _______ _____ _____    ______ ____
ROOT
ATOM      1  C   UNL     1       3.274   4.069  19.507  0.00  0.00    +0.000 C 
ATOM      2  C   UNL     1       4.562   3.758  19.186  0.00  0.00    +0.000 C 
ENDROOT
BRANCH   2   3
ATOM      3  N   UNL     1       5.490   4.601  18.601  0.00  0.00    +0.000 N 
ATOM      4  C   UNL     1       5.991   4.461  17.232  0.00  0.00    +0.000 C 
ATOM      5  C   UNL     1       7.485   4.712  17.339  0.00  0.00    +0.000 C 
ATOM      6  C   UNL     1       7.593   5.725  18.464  0.00  0.00    +0.000 C 
ATOM      7  C   UNL     1       6.425   5.406  19.398  0.00  0.00    +0.000 C 
ENDBRANCH   2   3
BRANCH   2   8
ATOM      8  N   UNL     1       5.094   2.510  19.459  0.00  0.00    +0.000 N 
ATOM      9  H   UNL     1       6.025   2.365  19.085  0.00  0.00    +0.000 HD
ATOM     10  H   UNL     1       4.426   1.790  19.202  0.00  0.00    +0.000 HD
ENDBRANCH   2   8
BRANCH   1  11
ATOM     11  C   UNL     1       2.653   5.353  19.033  0.00  0.00    +0.000 C 
ATOM     12  O   UNL     1       2.579   5.693  17.856  0.00  0.00    +0.000 OA
BRANCH  11  13
ATOM     13  O   UNL     1       2.142   6.083  20.062  0.00  0.00    +0.000 OA
BRANCH  13  15
ATOM     14  C   UNL     1       1.355   8.232  20.963  0.00  0.00    +0.000 C 
ATOM     15  C   UNL     1       2.082   7.503  19.842  0.00  0.00    +0.000 C 
ENDBRANCH  13  15
ENDBRANCH  11  13
ENDBRANCH   1  11
BRANCH   1  16
ATOM     16  S   UNL     1       2.320   2.978  20.494  0.00  0.00    +0.000 S 
BRANCH  16  17
ATOM     17  C   UNL     1       1.169   2.488  19.361  0.00  0.00    +0.000 C 
ATOM     18  N   UNL     1       0.360   2.184  18.588  0.00  0.00    +0.000 NA
ENDBRANCH  16  17
ENDBRANCH   1  16
TORSDOF 7
ENDMDL
MODEL 5
REMARK VINA RESULT:      -5.5      0.632      1.181
REMARK  Name = 
REMARK  8 active torsions:
REMARK  status: ('A' for Active; 'I' for Inactive)
REMARK    1  A    between atoms: C_1  and  C_2
REMARK    2  A    between atoms: C_2  and  O_3
REMARK    3  A    between atoms: O_3  and  C_4
REMARK    4  A    between atoms: C_4  and  C_6
REMARK    5  A    between atoms: C_6  and  S_7
REMARK    6  A    between atoms: S_7  and  C_8
REMARK    7  A    between atoms: C_10  and  N_11
REMARK    8  A    between atoms: C_10  and  N_12
REMARK                            x       y       z     vdW  Elec       q    Type
REMARK                         _______ _______ _______ _____ _____    ______ ____
ROOT
ATOM      1  C   UNL     1       4.474   4.301  17.741  0.00  0.00    +0.000 C 
ATOM      2  C   UNL     1       3.616   3.375  18.254  0.00  0.00    +0.000 C 
ENDROOT
BRANCH   2   3
ATOM      3  N   UNL     1       2.805   3.531  19.364  0.00  0.00    +0.000 N 
ATOM      4  C   UNL     1       3.088   2.963  20.684  0.00  0.00    +0.000 C 
ATOM      5  C   UNL     1       1.753   2.426  21.169  0.00  0.00    +0.000 C 
ATOM      6  C   UNL     1       0.745   3.387  20.564  0.00  0.00    +0.000 C 
ATOM      7  C   UNL     1       1.376   3.846  19.248  0.00  0.00    +0.000 C 
ENDBRANCH   2   3
BRANCH   2   8
ATOM      8  N   UNL     1       3.448   2.137  17.660  0.00  0.00    +0.000 N 
ATOM      9  H   UNL     1       2.616   1.642  17.959  0.00  0.00    +0.000 HD
ATOM     10  H   UNL     1       4.305   1.598  17.743  0.00  0.00    +0.000 HD
ENDBRANCH   2   8
BRANCH   1  11
ATOM     11  C   UNL     1       4.791   5.559  18.500  0.00  0.00    +0.000 C 
ATOM     12  O   UNL     1       5.476   5.600  19.517  0.00  0.00    +0.000 OA
BRANCH  11  13
ATOM     13  O   UNL     1       4.261   6.662  17.904  0.00  0.00    +0.000 OA
BRANCH  13  15
ATOM     14  C   UNL     1       2.496   8.371  17.771  0.00  0.00    +0.000 C 
ATOM     15  C   UNL     1       2.956   7.049  18.369  0.00  0.00    +0.000 C 
ENDBRANCH  13  15
ENDBRANCH  11  13
ENDBRANCH   1  11
BRANCH   1  16
ATOM     16  S   UNL     1       5.217   4.047  16.173  0.00  0.00    +0.000 S 
BRANCH  16  17
ATOM     17  C   UNL     1       6.834   4.332  16.564  0.00  0.00    +0.000 C 
ATOM     18  N   UNL     1       7.938   4.566  16.827  0.00  0.00    +0.000 NA
ENDBRANCH  16  17
ENDBRANCH   1  16
TORSDOF 7
ENDMDL
MODEL 6
REMARK VINA RESULT:      -5.5      2.104      4.306
REMARK  Name = 
REMARK  8 active torsions:
REMARK  status: ('A' for Active; 'I' for Inactive)
REMARK    1  A    between atoms: C_1  and  C_2
REMARK    2  A    between atoms: C_2  and  O_3
REMARK    3  A    between atoms: O_3  and  C_4
REMARK    4  A    between atoms: C_4  and  C_6
REMARK    5  A    between atoms: C_6  and  S_7
REMARK    6  A    between atoms: S_7  and  C_8
REMARK    7  A    between atoms: C_10  and  N_11
REMARK    8  A    between atoms: C_10  and  N_12
REMARK                            x       y       z     vdW  Elec       q    Type
REMARK                         _______ _______ _______ _____ _____    ______ ____
ROOT
ATOM      1  C   UNL     1       2.839   3.497  18.831  0.00  0.00    +0.000 C 
ATOM      2  C   UNL     1       4.197   3.381  18.804  0.00  0.00    +0.000 C 
ENDROOT
BRANCH   2   3
ATOM      3  N   UNL     1       5.096   4.337  18.364  0.00  0.00    +0.000 N 
ATOM      4  C   UNL     1       5.732   4.334  17.046  0.00  0.00    +0.000 C 
ATOM      5  C   UNL     1       7.181   4.702  17.315  0.00  0.00    +0.000 C 
ATOM      6  C   UNL     1       7.091   5.642  18.504  0.00  0.00    +0.000 C 
ATOM      7  C   UNL     1       5.875   5.161  19.297  0.00  0.00    +0.000 C 
ENDBRANCH   2   3
BRANCH   2   8
ATOM      8  N   UNL     1       4.835   2.243  19.265  0.00  0.00    +0.000 N 
ATOM      9  H   UNL     1       4.473   1.892  20.145  0.00  0.00    +0.000 HD
ATOM     10  H   UNL     1       5.840   2.387  19.256  0.00  0.00    +0.000 HD
ENDBRANCH   2   8
BRANCH   1  11
ATOM     11  C   UNL     1       2.153   4.649  18.153  0.00  0.00    +0.000 C 
ATOM     12  O   UNL     1       1.420   4.540  17.176  0.00  0.00    +0.000 OA
BRANCH  11  13
ATOM     13  O   UNL     1       2.407   5.833  18.777  0.00  0.00    +0.000 OA
BRANCH  13  15
ATOM     14  C   UNL     1       2.067   8.158  18.049  0.00  0.00    +0.000 C 
ATOM     15  C   UNL     1       2.894   6.887  17.926  0.00  0.00    +0.000 C 
ENDBRANCH  13  15
ENDBRANCH  11  13
ENDBRANCH   1  11
BRANCH   1  16
ATOM     16  S   UNL     1       1.866   2.307  19.675  0.00  0.00    +0.000 S 
BRANCH  16  17
ATOM     17  C   UNL     1       2.071   2.835  21.265  0.00  0.00    +0.000 C 
ATOM     18  N   UNL     1       2.186   3.171  22.369  0.00  0.00    +0.000 NA
ENDBRANCH  16  17
ENDBRANCH   1  16
TORSDOF 7
ENDMDL
MODEL 7
REMARK VINA RESULT:      -5.5      2.020      4.613
REMARK  Name = 
REMARK  8 active torsions:
REMARK  status: ('A' for Active; 'I' for Inactive)
REMARK    1  A    between atoms: C_1  and  C_2
REMARK    2  A    between atoms: C_2  and  O_3
REMARK    3  A    between atoms: O_3  and  C_4
REMARK    4  A    between atoms: C_4  and  C_6
REMARK    5  A    between atoms: C_6  and  S_7
REMARK    6  A    between atoms: S_7  and  C_8
REMARK    7  A    between atoms: C_10  and  N_11
REMARK    8  A    between atoms: C_10  and  N_12
REMARK                            x       y       z     vdW  Elec       q    Type
REMARK                         _______ _______ _______ _____ _____    ______ ____
ROOT
ATOM      1  C   UNL     1       3.437   4.695  17.957  0.00  0.00    +0.000 C 
ATOM      2  C   UNL     1       4.641   4.983  17.385  0.00  0.00    +0.000 C 
ENDROOT
BRANCH   2   3
ATOM      3  N   UNL     1       5.615   5.822  17.897  0.00  0.00    +0.000 N 
ATOM      4  C   UNL     1       6.063   7.060  17.258  0.00  0.00    +0.000 C 
ATOM      5  C   UNL     1       7.574   7.047  17.404  0.00  0.00    +0.000 C 
ATOM      6  C   UNL     1       7.795   6.335  18.727  0.00  0.00    +0.000 C 
ATOM      7  C   UNL     1       6.633   5.347  18.843  0.00  0.00    +0.000 C 
ENDBRANCH   2   3
BRANCH   2   8
ATOM      8  N   UNL     1       5.028   4.409  16.188  0.00  0.00    +0.000 N 
ATOM      9  H   UNL     1       5.996   4.110  16.164  0.00  0.00    +0.000 HD
ATOM     10  H   UNL     1       4.760   5.012  15.416  0.00  0.00    +0.000 HD
ENDBRANCH   2   8
BRANCH   1  11
ATOM     11  C   UNL     1       2.949   5.469  19.149  0.00  0.00    +0.000 C 
ATOM     12  O   UNL     1       2.466   6.595  19.094  0.00  0.00    +0.000 OA
BRANCH  11  13
ATOM     13  O   UNL     1       3.066   4.755  20.303  0.00  0.00    +0.000 OA
BRANCH  13  15
ATOM     14  C   UNL     1       1.529   3.060  21.206  0.00  0.00    +0.000 C 
ATOM     15  C   UNL     1       1.840   4.539  21.023  0.00  0.00    +0.000 C 
ENDBRANCH  13  15
ENDBRANCH  11  13
ENDBRANCH   1  11
BRANCH   1  16
ATOM     16  S   UNL     1       2.441   3.402  17.318  0.00  0.00    +0.000 S 
BRANCH  16  17
ATOM     17  C   UNL     1       3.179   2.073  18.051  0.00  0.00    +0.000 C 
ATOM     18  N   UNL     1       3.710   1.185  18.575  0.00  0.00    +0.000 NA
ENDBRANCH  16  17
ENDBRANCH   1  16
TORSDOF 7
ENDMDL
MODEL 8
REMARK VINA RESULT:      -5.4      2.061      4.877
REMARK  Name = 
REMARK  8 active torsions:
REMARK  status: ('A' for Active; 'I' for Inactive)
REMARK    1  A    between atoms: C_1  and  C_2
REMARK    2  A    between atoms: C_2  and  O_3
REMARK    3  A    between atoms: O_3  and  C_4
REMARK    4  A    between atoms: C_4  and  C_6
REMARK    5  A    between atoms: C_6  and  S_7
REMARK    6  A    between atoms: S_7  and  C_8
REMARK    7  A    between atoms: C_10  and  N_11
REMARK    8  A    between atoms: C_10  and  N_12
REMARK                            x       y       z     vdW  Elec       q    Type
REMARK                         _______ _______ _______ _____ _____    ______ ____
ROOT
ATOM      1  C   UNL     1       4.067   3.826  18.248  0.00  0.00    +0.000 C 
ATOM      2  C   UNL     1       5.224   4.271  17.679  0.00  0.00    +0.000 C 
ENDROOT
BRANCH   2   3
ATOM      3  N   UNL     1       5.903   5.433  17.997  0.00  0.00    +0.000 N 
ATOM      4  C   UNL     1       5.913   6.641  17.172  0.00  0.00    +0.000 C 
ATOM      5  C   UNL     1       7.357   7.113  17.192  0.00  0.00    +0.000 C 
ATOM      6  C   UNL     1       7.841   6.705  18.572  0.00  0.00    +0.000 C 
ATOM      7  C   UNL     1       7.055   5.437  18.909  0.00  0.00    +0.000 C 
ENDBRANCH   2   3
BRANCH   2   8
ATOM      8  N   UNL     1       5.872   3.544  16.696  0.00  0.00    +0.000 N 
ATOM      9  H   UNL     1       6.868   3.433  16.850  0.00  0.00    +0.000 HD
ATOM     10  H   UNL     1       5.631   3.914  15.782  0.00  0.00    +0.000 HD
ENDBRANCH   2   8
BRANCH   1  11
ATOM     11  C   UNL     1       3.275   4.711  19.168  0.00  0.00    +0.000 C 
ATOM     12  O   UNL     1       2.566   5.640  18.795  0.00  0.00    +0.000 OA
BRANCH  11  13
ATOM     13  O   UNL     1       3.402   4.337  20.471  0.00  0.00    +0.000 OA
BRANCH  13  15
ATOM     14  C   UNL     1       1.850   2.920  21.750  0.00  0.00    +0.000 C 
ATOM     15  C   UNL     1       2.179   4.311  21.228  0.00  0.00    +0.000 C 
ENDBRANCH  13  15
ENDBRANCH  11  13
ENDBRANCH   1  11
BRANCH   1  16
ATOM     16  S   UNL     1       3.490   2.203  17.926  0.00  0.00    +0.000 S 
BRANCH  16  17
ATOM     17  C   UNL     1       1.833   2.430  18.156  0.00  0.00    +0.000 C 
ATOM     18  N   UNL     1       0.690   2.547  18.312  0.00  0.00    +0.000 NA
ENDBRANCH  16  17
ENDBRANCH   1  16
TORSDOF 7
ENDMDL
MODEL 9
REMARK VINA RESULT:      -5.4      1.978      4.196
REMARK  Name = 
REMARK  8 active torsions:
REMARK  status: ('A' for Active; 'I' for Inactive)
REMARK    1  A    between atoms: C_1  and  C_2
REMARK    2  A    between atoms: C_2  and  O_3
REMARK    3  A    between atoms: O_3  and  C_4
REMARK    4  A    between atoms: C_4  and  C_6
REMARK    5  A    between atoms: C_6  and  S_7
REMARK    6  A    between atoms: S_7  and  C_8
REMARK    7  A    between atoms: C_10  and  N_11
REMARK    8  A    between atoms: C_10  and  N_12
REMARK                            x       y       z     vdW  Elec       q    Type
REMARK                         _______ _______ _______ _____ _____    ______ ____
ROOT
ATOM      1  C   UNL     1       2.876   4.225  18.886  0.00  0.00    +0.000 C 
ATOM      2  C   UNL     1       4.096   3.859  18.400  0.00  0.00    +0.000 C 
ENDROOT
BRANCH   2   3
ATOM      3  N   UNL     1       5.194   4.683  18.229  0.00  0.00    +0.000 N 
ATOM      4  C   UNL     1       5.940   4.822  16.977  0.00  0.00    +0.000 C 
ATOM      5  C   UNL     1       7.400   4.828  17.394  0.00  0.00    +0.000 C 
ATOM      6  C   UNL     1       7.376   5.501  18.754  0.00  0.00    +0.000 C 
ATOM      7  C   UNL     1       6.022   5.124  19.358  0.00  0.00    +0.000 C 
ENDBRANCH   2   3
BRANCH   2   8
ATOM      8  N   UNL     1       4.369   2.551  18.042  0.00  0.00    +0.000 N 
ATOM      9  H   UNL     1       4.919   2.039  18.723  0.00  0.00    +0.000 HD
ATOM     10  H   UNL     1       4.746   2.526  17.099  0.00  0.00    +0.000 HD
ENDBRANCH   2   8
BRANCH   1  11
ATOM     11  C   UNL     1       2.533   5.674  19.087  0.00  0.00    +0.000 C 
ATOM     12  O   UNL     1       2.445   6.219  20.182  0.00  0.00    +0.000 OA
BRANCH  11  13
ATOM     13  O   UNL     1       2.369   6.328  17.904  0.00  0.00    +0.000 OA
BRANCH  13  15
ATOM     14  C   UNL     1       2.102   8.771  17.796  0.00  0.00    +0.000 C 
ATOM     15  C   UNL     1       3.057   7.586  17.793  0.00  0.00    +0.000 C 
ENDBRANCH  13  15
ENDBRANCH  11  13
ENDBRANCH   1  11
BRANCH   1  16
ATOM     16  S   UNL     1       1.687   3.005  19.301  0.00  0.00    +0.000 S 
BRANCH  16  17
ATOM     17  C   UNL     1       2.028   2.809  20.942  0.00  0.00    +0.000 C 
ATOM     18  N   UNL     1       2.299   2.686  22.063  0.00  0.00    +0.000 NA
ENDBRANCH  16  17
ENDBRANCH   1  16
TORSDOF 7
ENDMDL
