MODEL 1
REMARK VINA RESULT:      -8.0      0.000      0.000
REMARK  Name = 
REMARK  5 active torsions:
REMARK  status: ('A' for Active; 'I' for Inactive)
REMARK    1  A    between atoms: C_1  and  C_2
REMARK    2  A    between atoms: C_2  and  N_3
REMARK    3  A    between atoms: C_4  and  C_6
REMARK    4  A    between atoms: C_19  and  C_20
REMARK    5  A    between atoms: C_19  and  C_21
REMARK                            x       y       z     vdW  Elec       q    Type
REMARK                         _______ _______ _______ _____ _____    ______ ____
ROOT
ATOM      1  C   UNL     1       4.719   6.924  17.285  0.00  0.00    +0.000 C 
ATOM      2  C   UNL     1       3.451   6.373  17.900  0.00  0.00    +0.000 C 
ATOM      3  C   UNL     1       3.107   5.077  17.705  0.00  0.00    +0.000 C 
ATOM      4  C   UNL     1       4.012   4.101  16.980  0.00  0.00    +0.000 C 
ATOM      5  O   UNL     1       4.913   4.366  16.202  0.00  0.00    +0.000 OA
ATOM      6  C   UNL     1       3.615   2.698  17.380  0.00  0.00    +0.000 C 
ATOM      7  C   UNL     1       2.243   2.848  17.986  0.00  0.00    +0.000 C 
ATOM      8  C   UNL     1       1.918   4.331  18.200  0.00  0.00    +0.000 C 
ATOM      9  C   UNL     1       1.941   3.378  19.374  0.00  0.00    +0.000 C 
ATOM     10  C   UNL     1       3.022   3.502  20.416  0.00  0.00    +0.000 C 
ATOM     11  C   UNL     1       0.609   2.952  19.951  0.00  0.00    +0.000 C 
ENDROOT
BRANCH   2  12
ATOM     12  N   UNL     1       2.646   7.182  18.706  0.00  0.00    +0.000 N 
ATOM     13  C   UNL     1       2.067   8.407  18.396  0.00  0.00    +0.000 C 
ATOM     14  O   UNL     1       2.104   8.956  17.300  0.00  0.00    +0.000 OA
ATOM     15  H   UNL     1       2.503   6.851  19.658  0.00  0.00    +0.000 HD
BRANCH  13  16
ATOM     16  C   UNL     1       1.337   9.133  19.478  0.00  0.00    +0.000 A 
ATOM     17  C   UNL     1       0.889  10.440  19.206  0.00  0.00    +0.000 A 
ATOM     18  C   UNL     1       0.201  11.182  20.171  0.00  0.00    +0.000 A 
ATOM     19  C   UNL     1      -0.048  10.626  21.421  0.00  0.00    +0.000 A 
ATOM     20  C   UNL     1       0.393   9.334  21.706  0.00  0.00    +0.000 A 
ATOM     21  C   UNL     1       1.081   8.597  20.738  0.00  0.00    +0.000 A 
ATOM     22  F   UNL     1       1.488   7.359  21.058  0.00  0.00    +0.000 F 
ENDBRANCH  13  16
ENDBRANCH   2  12
TORSDOF 2
ENDMDL
MODEL 2
REMARK VINA RESULT:      -8.0      1.038      1.445
REMARK  Name = 
REMARK  5 active torsions:
REMARK  status: ('A' for Active; 'I' for Inactive)
REMARK    1  A    between atoms: C_1  and  C_2
REMARK    2  A    between atoms: C_2  and  N_3
REMARK    3  A    between atoms: C_4  and  C_6
REMARK    4  A    between atoms: C_19  and  C_20
REMARK    5  A    between atoms: C_19  and  C_21
REMARK                            x       y       z     vdW  Elec       q    Type
REMARK                         _______ _______ _______ _____ _____    ______ ____
ROOT
ATOM      1  C   UNL     1       4.709   6.842  17.366  0.00  0.00    +0.000 C 
ATOM      2  C   UNL     1       3.434   6.251  17.927  0.00  0.00    +0.000 C 
ATOM      3  C   UNL     1       3.121   4.955  17.687  0.00  0.00    +0.000 C 
ATOM      4  C   UNL     1       4.066   4.016  16.963  0.00  0.00    +0.000 C 
ATOM      5  O   UNL     1       4.984   4.320  16.220  0.00  0.00    +0.000 OA
ATOM      6  C   UNL     1       3.684   2.596  17.313  0.00  0.00    +0.000 C 
ATOM      7  C   UNL     1       2.292   2.704  17.881  0.00  0.00    +0.000 C 
ATOM      8  C   UNL     1       1.933   4.174  18.125  0.00  0.00    +0.000 C 
ATOM      9  C   UNL     1       1.939   3.190  19.273  0.00  0.00    +0.000 C 
ATOM     10  C   UNL     1       2.986   3.305  20.351  0.00  0.00    +0.000 C 
ATOM     11  C   UNL     1       0.599   2.724  19.798  0.00  0.00    +0.000 C 
ENDROOT
BRANCH   2  12
ATOM     12  N   UNL     1       2.590   7.023  18.729  0.00  0.00    +0.000 N 
ATOM     13  C   UNL     1       2.065   8.284  18.470  0.00  0.00    +0.000 C 
ATOM     14  O   UNL     1       2.197   8.909  17.424  0.00  0.00    +0.000 OA
ATOM     15  H   UNL     1       2.368   6.628  19.641  0.00  0.00    +0.000 HD
BRANCH  13  16
ATOM     16  C   UNL     1       1.273   8.951  19.546  0.00  0.00    +0.000 A 
ATOM     17  C   UNL     1       1.460   8.509  20.869  0.00  0.00    +0.000 A 
ATOM     18  C   UNL     1       0.752   9.085  21.929  0.00  0.00    +0.000 A 
ATOM     19  C   UNL     1      -0.154  10.110  21.678  0.00  0.00    +0.000 A 
ATOM     20  C   UNL     1      -0.353  10.554  20.371  0.00  0.00    +0.000 A 
ATOM     21  C   UNL     1       0.357   9.976  19.316  0.00  0.00    +0.000 A 
ATOM     22  F   UNL     1       0.131  10.435  18.075  0.00  0.00    +0.000 F 
ENDBRANCH  13  16
ENDBRANCH   2  12
TORSDOF 2
ENDMDL
MODEL 3
REMARK VINA RESULT:      -7.3      1.843      3.566
REMARK  Name = 
REMARK  5 active torsions:
REMARK  status: ('A' for Active; 'I' for Inactive)
REMARK    1  A    between atoms: C_1  and  C_2
REMARK    2  A    between atoms: C_2  and  N_3
REMARK    3  A    between atoms: C_4  and  C_6
REMARK    4  A    between atoms: C_19  and  C_20
REMARK    5  A    between atoms: C_19  and  C_21
REMARK                            x       y       z     vdW  Elec       q    Type
REMARK                         _______ _______ _______ _____ _____    ______ ____
ROOT
ATOM      1  C   UNL     1       1.589   4.178  17.891  0.00  0.00    +0.000 C 
ATOM      2  C   UNL     1       2.674   5.204  18.133  0.00  0.00    +0.000 C 
ATOM      3  C   UNL     1       3.973   4.885  17.918  0.00  0.00    +0.000 C 
ATOM      4  C   UNL     1       4.391   3.555  17.321  0.00  0.00    +0.000 C 
ATOM      5  O   UNL     1       3.746   2.520  17.299  0.00  0.00    +0.000 OA
ATOM      6  C   UNL     1       5.776   3.710  16.737  0.00  0.00    +0.000 C 
ATOM      7  C   UNL     1       6.313   4.974  17.359  0.00  0.00    +0.000 C 
ATOM      8  C   UNL     1       5.193   5.719  18.094  0.00  0.00    +0.000 C 
ATOM      9  C   UNL     1       5.937   6.387  16.960  0.00  0.00    +0.000 C 
ATOM     10  C   UNL     1       5.224   6.670  15.662  0.00  0.00    +0.000 C 
ATOM     11  C   UNL     1       6.949   7.451  17.322  0.00  0.00    +0.000 C 
ENDROOT
BRANCH   2  12
ATOM     12  N   UNL     1       2.346   6.498  18.542  0.00  0.00    +0.000 N 
ATOM     13  C   UNL     1       1.918   6.928  19.794  0.00  0.00    +0.000 C 
ATOM     14  O   UNL     1       1.836   6.228  20.796  0.00  0.00    +0.000 OA
ATOM     15  H   UNL     1       2.381   7.211  17.816  0.00  0.00    +0.000 HD
BRANCH  13  16
ATOM     16  C   UNL     1       1.518   8.358  19.947  0.00  0.00    +0.000 A 
ATOM     17  C   UNL     1       1.182   8.813  21.236  0.00  0.00    +0.000 A 
ATOM     18  C   UNL     1       0.796  10.138  21.456  0.00  0.00    +0.000 A 
ATOM     19  C   UNL     1       0.739  11.027  20.388  0.00  0.00    +0.000 A 
ATOM     20  C   UNL     1       1.065  10.590  19.105  0.00  0.00    +0.000 A 
ATOM     21  C   UNL     1       1.450   9.265  18.890  0.00  0.00    +0.000 A 
ATOM     22  F   UNL     1       1.752   8.889  17.638  0.00  0.00    +0.000 F 
ENDBRANCH  13  16
ENDBRANCH   2  12
TORSDOF 2
ENDMDL
MODEL 4
REMARK VINA RESULT:      -7.2      3.974      7.171
REMARK  Name = 
REMARK  5 active torsions:
REMARK  status: ('A' for Active; 'I' for Inactive)
REMARK    1  A    between atoms: C_1  and  C_2
REMARK    2  A    between atoms: C_2  and  N_3
REMARK    3  A    between atoms: C_4  and  C_6
REMARK    4  A    between atoms: C_19  and  C_20
REMARK    5  A    between atoms: C_19  and  C_21
REMARK                            x       y       z     vdW  Elec       q    Type
REMARK                         _______ _______ _______ _____ _____    ______ ____
ROOT
ATOM      1  C   UNL     1       4.041   7.370  17.134  0.00  0.00    +0.000 C 
ATOM      2  C   UNL     1       4.379   5.895  17.109  0.00  0.00    +0.000 C 
ATOM      3  C   UNL     1       4.184   5.132  18.211  0.00  0.00    +0.000 C 
ATOM      4  C   UNL     1       3.518   5.674  19.461  0.00  0.00    +0.000 C 
ATOM      5  O   UNL     1       3.411   6.842  19.795  0.00  0.00    +0.000 OA
ATOM      6  C   UNL     1       2.987   4.506  20.260  0.00  0.00    +0.000 C 
ATOM      7  C   UNL     1       3.703   3.303  19.700  0.00  0.00    +0.000 C 
ATOM      8  C   UNL     1       4.449   3.682  18.415  0.00  0.00    +0.000 C 
ATOM      9  C   UNL     1       3.382   2.611  18.390  0.00  0.00    +0.000 C 
ATOM     10  C   UNL     1       2.084   2.867  17.668  0.00  0.00    +0.000 C 
ATOM     11  C   UNL     1       3.841   1.174  18.290  0.00  0.00    +0.000 C 
ENDROOT
BRANCH   2  12
ATOM     12  N   UNL     1       4.858   5.300  15.940  0.00  0.00    +0.000 N 
ATOM     13  C   UNL     1       6.154   5.303  15.436  0.00  0.00    +0.000 C 
ATOM     14  O   UNL     1       7.136   5.776  15.997  0.00  0.00    +0.000 OA
ATOM     15  H   UNL     1       4.157   4.843  15.360  0.00  0.00    +0.000 HD
BRANCH  13  16
ATOM     16  C   UNL     1       6.389   4.685  14.097  0.00  0.00    +0.000 A 
ATOM     17  C   UNL     1       5.458   3.734  13.638  0.00  0.00    +0.000 A 
ATOM     18  C   UNL     1       5.614   3.112  12.396  0.00  0.00    +0.000 A 
ATOM     19  C   UNL     1       6.705   3.433  11.595  0.00  0.00    +0.000 A 
ATOM     20  C   UNL     1       7.638   4.370  12.038  0.00  0.00    +0.000 A 
ATOM     21  C   UNL     1       7.478   4.989  13.280  0.00  0.00    +0.000 A 
ATOM     22  F   UNL     1       8.402   5.882  13.665  0.00  0.00    +0.000 F 
ENDBRANCH  13  16
ENDBRANCH   2  12
TORSDOF 2
ENDMDL
MODEL 5
REMARK VINA RESULT:      -7.2      1.689      3.375
REMARK  Name = 
REMARK  5 active torsions:
REMARK  status: ('A' for Active; 'I' for Inactive)
REMARK    1  A    between atoms: C_1  and  C_2
REMARK    2  A    between atoms: C_2  and  N_3
REMARK    3  A    between atoms: C_4  and  C_6
REMARK    4  A    between atoms: C_19  and  C_20
REMARK    5  A    between atoms: C_19  and  C_21
REMARK                            x       y       z     vdW  Elec       q    Type
REMARK                         _______ _______ _______ _____ _____    ______ ____
ROOT
ATOM      1  C   UNL     1       1.538   4.256  17.890  0.00  0.00    +0.000 C 
ATOM      2  C   UNL     1       2.637   5.271  18.116  0.00  0.00    +0.000 C 
ATOM      3  C   UNL     1       3.933   4.924  17.929  0.00  0.00    +0.000 C 
ATOM      4  C   UNL     1       4.336   3.570  17.380  0.00  0.00    +0.000 C 
ATOM      5  O   UNL     1       3.675   2.546  17.381  0.00  0.00    +0.000 OA
ATOM      6  C   UNL     1       5.732   3.684  16.812  0.00  0.00    +0.000 C 
ATOM      7  C   UNL     1       6.281   4.958  17.402  0.00  0.00    +0.000 C 
ATOM      8  C   UNL     1       5.164   5.744  18.097  0.00  0.00    +0.000 C 
ATOM      9  C   UNL     1       5.935   6.364  16.954  0.00  0.00    +0.000 C 
ATOM     10  C   UNL     1       5.245   6.618  15.638  0.00  0.00    +0.000 C 
ATOM     11  C   UNL     1       6.960   7.422  17.298  0.00  0.00    +0.000 C 
ENDROOT
BRANCH   2  12
ATOM     12  N   UNL     1       2.324   6.583  18.480  0.00  0.00    +0.000 N 
ATOM     13  C   UNL     1       1.899   7.060  19.715  0.00  0.00    +0.000 C 
ATOM     14  O   UNL     1       1.805   6.396  20.740  0.00  0.00    +0.000 OA
ATOM     15  H   UNL     1       2.371   7.271  17.730  0.00  0.00    +0.000 HD
BRANCH  13  16
ATOM     16  C   UNL     1       1.517   8.500  19.818  0.00  0.00    +0.000 A 
ATOM     17  C   UNL     1       1.564   9.279  18.647  0.00  0.00    +0.000 A 
ATOM     18  C   UNL     1       1.223  10.635  18.667  0.00  0.00    +0.000 A 
ATOM     19  C   UNL     1       0.831  11.230  19.862  0.00  0.00    +0.000 A 
ATOM     20  C   UNL     1       0.783  10.472  21.031  0.00  0.00    +0.000 A 
ATOM     21  C   UNL     1       1.125   9.117  21.005  0.00  0.00    +0.000 A 
ATOM     22  F   UNL     1       1.067   8.429  22.156  0.00  0.00    +0.000 F 
ENDBRANCH  13  16
ENDBRANCH   2  12
TORSDOF 2
ENDMDL
MODEL 6
REMARK VINA RESULT:      -7.2      3.476      6.755
REMARK  Name = 
REMARK  5 active torsions:
REMARK  status: ('A' for Active; 'I' for Inactive)
REMARK    1  A    between atoms: C_1  and  C_2
REMARK    2  A    between atoms: C_2  and  N_3
REMARK    3  A    between atoms: C_4  and  C_6
REMARK    4  A    between atoms: C_19  and  C_20
REMARK    5  A    between atoms: C_19  and  C_21
REMARK                            x       y       z     vdW  Elec       q    Type
REMARK                         _______ _______ _______ _____ _____    ______ ____
ROOT
ATOM      1  C   UNL     1       3.609   7.601  17.490  0.00  0.00    +0.000 C 
ATOM      2  C   UNL     1       4.030   6.147  17.462  0.00  0.00    +0.000 C 
ATOM      3  C   UNL     1       3.785   5.347  18.527  0.00  0.00    +0.000 C 
ATOM      4  C   UNL     1       2.988   5.819  19.727  0.00  0.00    +0.000 C 
ATOM      5  O   UNL     1       2.789   6.970  20.075  0.00  0.00    +0.000 OA
ATOM      6  C   UNL     1       2.457   4.603  20.452  0.00  0.00    +0.000 C 
ATOM      7  C   UNL     1       3.283   3.456  19.929  0.00  0.00    +0.000 C 
ATOM      8  C   UNL     1       4.112   3.908  18.721  0.00  0.00    +0.000 C 
ATOM      9  C   UNL     1       3.112   2.783  18.582  0.00  0.00    +0.000 C 
ATOM     10  C   UNL     1       1.867   2.987  17.758  0.00  0.00    +0.000 C 
ATOM     11  C   UNL     1       3.657   1.374  18.491  0.00  0.00    +0.000 C 
ENDROOT
BRANCH   2  12
ATOM     12  N   UNL     1       4.638   5.609  16.325  0.00  0.00    +0.000 N 
ATOM     13  C   UNL     1       5.992   5.549  16.015  0.00  0.00    +0.000 C 
ATOM     14  O   UNL     1       6.907   5.898  16.751  0.00  0.00    +0.000 OA
ATOM     15  H   UNL     1       4.003   5.256  15.612  0.00  0.00    +0.000 HD
BRANCH  13  16
ATOM     16  C   UNL     1       6.383   5.021  14.674  0.00  0.00    +0.000 A 
ATOM     17  C   UNL     1       7.523   5.570  14.058  0.00  0.00    +0.000 A 
ATOM     18  C   UNL     1       7.949   5.127  12.802  0.00  0.00    +0.000 A 
ATOM     19  C   UNL     1       7.238   4.129  12.144  0.00  0.00    +0.000 A 
ATOM     20  C   UNL     1       6.103   3.579  12.741  0.00  0.00    +0.000 A 
ATOM     21  C   UNL     1       5.683   4.024  13.996  0.00  0.00    +0.000 A 
ATOM     22  F   UNL     1       4.584   3.467  14.529  0.00  0.00    +0.000 F 
ENDBRANCH  13  16
ENDBRANCH   2  12
TORSDOF 2
ENDMDL
MODEL 7
REMARK VINA RESULT:      -7.2      1.412      1.765
REMARK  Name = 
REMARK  5 active torsions:
REMARK  status: ('A' for Active; 'I' for Inactive)
REMARK    1  A    between atoms: C_1  and  C_2
REMARK    2  A    between atoms: C_2  and  N_3
REMARK    3  A    between atoms: C_4  and  C_6
REMARK    4  A    between atoms: C_19  and  C_20
REMARK    5  A    between atoms: C_19  and  C_21
REMARK                            x       y       z     vdW  Elec       q    Type
REMARK                         _______ _______ _______ _____ _____    ______ ____
ROOT
ATOM      1  C   UNL     1       5.155   6.382  16.979  0.00  0.00    +0.000 C 
ATOM      2  C   UNL     1       3.772   6.020  17.475  0.00  0.00    +0.000 C 
ATOM      3  C   UNL     1       3.355   4.731  17.450  0.00  0.00    +0.000 C 
ATOM      4  C   UNL     1       4.271   3.593  17.046  0.00  0.00    +0.000 C 
ATOM      5  O   UNL     1       5.292   3.665  16.382  0.00  0.00    +0.000 OA
ATOM      6  C   UNL     1       3.709   2.308  17.610  0.00  0.00    +0.000 C 
ATOM      7  C   UNL     1       2.282   2.639  17.965  0.00  0.00    +0.000 C 
ATOM      8  C   UNL     1       2.051   4.152  17.875  0.00  0.00    +0.000 C 
ATOM      9  C   UNL     1       1.830   3.423  19.181  0.00  0.00    +0.000 C 
ATOM     10  C   UNL     1       2.760   3.671  20.341  0.00  0.00    +0.000 C 
ATOM     11  C   UNL     1       0.400   3.181  19.610  0.00  0.00    +0.000 C 
ENDROOT
BRANCH   2  12
ATOM     12  N   UNL     1       2.929   7.002  18.001  0.00  0.00    +0.000 N 
ATOM     13  C   UNL     1       2.586   7.227  19.329  0.00  0.00    +0.000 C 
ATOM     14  O   UNL     1       3.047   6.630  20.295  0.00  0.00    +0.000 OA
ATOM     15  H   UNL     1       2.473   7.602  17.317  0.00  0.00    +0.000 HD
BRANCH  13  16
ATOM     16  C   UNL     1       1.568   8.280  19.624  0.00  0.00    +0.000 A 
ATOM     17  C   UNL     1       0.933   8.247  20.880  0.00  0.00    +0.000 A 
ATOM     18  C   UNL     1      -0.031   9.198  21.226  0.00  0.00    +0.000 A 
ATOM     19  C   UNL     1      -0.375  10.194  20.318  0.00  0.00    +0.000 A 
ATOM     20  C   UNL     1       0.242  10.236  19.068  0.00  0.00    +0.000 A 
ATOM     21  C   UNL     1       1.206   9.284  18.728  0.00  0.00    +0.000 A 
ATOM     22  F   UNL     1       1.771   9.362  17.513  0.00  0.00    +0.000 F 
ENDBRANCH  13  16
ENDBRANCH   2  12
TORSDOF 2
ENDMDL
MODEL 8
REMARK VINA RESULT:      -7.2      3.495      6.931
REMARK  Name = 
REMARK  5 active torsions:
REMARK  status: ('A' for Active; 'I' for Inactive)
REMARK    1  A    between atoms: C_1  and  C_2
REMARK    2  A    between atoms: C_2  and  N_3
REMARK    3  A    between atoms: C_4  and  C_6
REMARK    4  A    between atoms: C_19  and  C_20
REMARK    5  A    between atoms: C_19  and  C_21
REMARK                            x       y       z     vdW  Elec       q    Type
REMARK                         _______ _______ _______ _____ _____    ______ ____
ROOT
ATOM      1  C   UNL     1       3.685   1.363  18.459  0.00  0.00    +0.000 C 
ATOM      2  C   UNL     1       3.566   2.738  17.839  0.00  0.00    +0.000 C 
ATOM      3  C   UNL     1       2.743   3.664  18.386  0.00  0.00    +0.000 C 
ATOM      4  C   UNL     1       2.005   3.420  19.688  0.00  0.00    +0.000 C 
ATOM      5  O   UNL     1       1.747   2.344  20.201  0.00  0.00    +0.000 OA
ATOM      6  C   UNL     1       1.624   4.759  20.276  0.00  0.00    +0.000 C 
ATOM      7  C   UNL     1       1.761   5.731  19.132  0.00  0.00    +0.000 C 
ATOM      8  C   UNL     1       2.466   5.059  17.948  0.00  0.00    +0.000 C 
ATOM      9  C   UNL     1       3.064   6.287  18.594  0.00  0.00    +0.000 C 
ATOM     10  C   UNL     1       4.347   6.170  19.376  0.00  0.00    +0.000 C 
ATOM     11  C   UNL     1       2.946   7.596  17.844  0.00  0.00    +0.000 C 
ENDROOT
BRANCH   2  12
ATOM     12  N   UNL     1       4.333   3.079  16.722  0.00  0.00    +0.000 N 
ATOM     13  C   UNL     1       5.529   3.788  16.677  0.00  0.00    +0.000 C 
ATOM     14  O   UNL     1       6.166   4.172  17.651  0.00  0.00    +0.000 OA
ATOM     15  H   UNL     1       3.942   2.811  15.821  0.00  0.00    +0.000 HD
BRANCH  13  16
ATOM     16  C   UNL     1       6.098   4.123  15.338  0.00  0.00    +0.000 A 
ATOM     17  C   UNL     1       5.639   3.391  14.226  0.00  0.00    +0.000 A 
ATOM     18  C   UNL     1       6.127   3.647  12.942  0.00  0.00    +0.000 A 
ATOM     19  C   UNL     1       7.083   4.640  12.752  0.00  0.00    +0.000 A 
ATOM     20  C   UNL     1       7.550   5.371  13.844  0.00  0.00    +0.000 A 
ATOM     21  C   UNL     1       7.058   5.111  15.126  0.00  0.00    +0.000 A 
ATOM     22  F   UNL     1       7.539   5.838  16.146  0.00  0.00    +0.000 F 
ENDBRANCH  13  16
ENDBRANCH   2  12
TORSDOF 2
ENDMDL
MODEL 9
REMARK VINA RESULT:      -7.2      1.123      1.250
REMARK  Name = 
REMARK  5 active torsions:
REMARK  status: ('A' for Active; 'I' for Inactive)
REMARK    1  A    between atoms: C_1  and  C_2
REMARK    2  A    between atoms: C_2  and  N_3
REMARK    3  A    between atoms: C_4  and  C_6
REMARK    4  A    between atoms: C_19  and  C_20
REMARK    5  A    between atoms: C_19  and  C_21
REMARK                            x       y       z     vdW  Elec       q    Type
REMARK                         _______ _______ _______ _____ _____    ______ ____
ROOT
ATOM      1  C   UNL     1       5.102   6.384  16.902  0.00  0.00    +0.000 C 
ATOM      2  C   UNL     1       3.713   6.042  17.397  0.00  0.00    +0.000 C 
ATOM      3  C   UNL     1       3.314   4.749  17.465  0.00  0.00    +0.000 C 
ATOM      4  C   UNL     1       4.254   3.596  17.172  0.00  0.00    +0.000 C 
ATOM      5  O   UNL     1       5.288   3.632  16.526  0.00  0.00    +0.000 OA
ATOM      6  C   UNL     1       3.698   2.352  17.824  0.00  0.00    +0.000 C 
ATOM      7  C   UNL     1       2.259   2.688  18.122  0.00  0.00    +0.000 C 
ATOM      8  C   UNL     1       2.010   4.185  17.907  0.00  0.00    +0.000 C 
ATOM      9  C   UNL     1       1.770   3.559  19.262  0.00  0.00    +0.000 C 
ATOM     10  C   UNL     1       2.670   3.912  20.418  0.00  0.00    +0.000 C 
ATOM     11  C   UNL     1       0.334   3.330  19.679  0.00  0.00    +0.000 C 
ENDROOT
BRANCH   2  12
ATOM     12  N   UNL     1       2.846   7.050  17.825  0.00  0.00    +0.000 N 
ATOM     13  C   UNL     1       2.515   7.411  19.126  0.00  0.00    +0.000 C 
ATOM     14  O   UNL     1       3.011   6.941  20.144  0.00  0.00    +0.000 OA
ATOM     15  H   UNL     1       2.360   7.555  17.087  0.00  0.00    +0.000 HD
BRANCH  13  16
ATOM     16  C   UNL     1       1.467   8.457  19.321  0.00  0.00    +0.000 A 
ATOM     17  C   UNL     1       1.080   9.217  18.200  0.00  0.00    +0.000 A 
ATOM     18  C   UNL     1       0.107  10.214  18.306  0.00  0.00    +0.000 A 
ATOM     19  C   UNL     1      -0.492  10.467  19.536  0.00  0.00    +0.000 A 
ATOM     20  C   UNL     1      -0.116   9.725  20.655  0.00  0.00    +0.000 A 
ATOM     21  C   UNL     1       0.857   8.729  20.544  0.00  0.00    +0.000 A 
ATOM     22  F   UNL     1       1.189   8.043  21.649  0.00  0.00    +0.000 F 
ENDBRANCH  13  16
ENDBRANCH   2  12
TORSDOF 2
ENDMDL
