MODEL 1
REMARK VINA RESULT:      -7.8      0.000      0.000
REMARK  Name = 
REMARK  7 active torsions:
REMARK  status: ('A' for Active; 'I' for Inactive)
REMARK    1  A    between atoms: C_1  and  O_2
REMARK    2  A    between atoms: O_2  and  C_3
REMARK    3  A    between atoms: C_6  and  S_7
REMARK    4  A    between atoms: S_7  and  N_10
REMARK    5  A    between atoms: C_14  and  C_16
REMARK    6  A    between atoms: C_18  and  C_19
REMARK    7  A    between atoms: C_22  and  C_23
REMARK                            x       y       z     vdW  Elec       q    Type
REMARK                         _______ _______ _______ _____ _____    ______ ____
ROOT
ATOM      1  N   UNL     1       3.600   4.573  19.607  0.00  0.00    +0.000 NA
ATOM      2  C   UNL     1       4.147   5.946  19.499  0.00  0.00    +0.000 C 
ATOM      3  C   UNL     1       3.040   6.980  19.305  0.00  0.00    +0.000 C 
ATOM      4  N   UNL     1       1.941   6.884  20.272  0.00  0.00    +0.000 N 
ATOM      5  C   UNL     1       1.024   7.945  20.467  0.00  0.00    +0.000 C 
ATOM      6  O   UNL     1       0.119   7.861  21.300  0.00  0.00    +0.000 OA
ATOM      7  C   UNL     1       1.475   5.536  20.596  0.00  0.00    +0.000 C 
ATOM      8  C   UNL     1       2.587   4.479  20.696  0.00  0.00    +0.000 C 
ENDROOT
BRANCH   5   9
ATOM      9  C   UNL     1       1.188   9.178  19.656  0.00  0.00    +0.000 A 
ATOM     10  C   UNL     1       1.258  10.520  20.126  0.00  0.00    +0.000 A 
ATOM     11  C   UNL     1       1.413  11.315  19.004  0.00  0.00    +0.000 A 
ATOM     12  N   UNL     1       1.432  10.433  17.961  0.00  0.00    +0.000 N 
ATOM     13  N   UNL     1       1.244   9.163  18.311  0.00  0.00    +0.000 NA
ATOM     14  H   UNL     1       1.573  10.638  16.978  0.00  0.00    +0.000 HD
BRANCH  11  15
ATOM     15  C   UNL     1       1.550  12.754  18.810  0.00  0.00    +0.000 A 
ATOM     16  C   UNL     1       2.730  13.300  18.298  0.00  0.00    +0.000 A 
ATOM     17  C   UNL     1       2.853  14.682  18.119  0.00  0.00    +0.000 A 
ATOM     18  C   UNL     1       1.798  15.540  18.451  0.00  0.00    +0.000 A 
ATOM     19  C   UNL     1       1.917  17.023  18.281  0.00  0.00    +0.000 C 
ATOM     20  C   UNL     1       0.614  14.996  18.955  0.00  0.00    +0.000 A 
ATOM     21  C   UNL     1       0.492  13.618  19.134  0.00  0.00    +0.000 A 
ENDBRANCH  11  15
ENDBRANCH   5   9
BRANCH   1  22
ATOM     22  S   UNL     1       3.300   3.739  18.162  0.00  0.00    +0.000 S 
ATOM     23  O   UNL     1       2.124   4.307  17.539  0.00  0.00    +0.000 OA
ATOM     24  O   UNL     1       3.412   2.321  18.412  0.00  0.00    +0.000 OA
BRANCH  22  28
ATOM     25  C   UNL     1       6.908   4.898  15.577  0.00  0.00    +0.000 A 
ATOM     26  C   UNL     1       5.628   4.796  15.020  0.00  0.00    +0.000 A 
ATOM     27  C   UNL     1       4.530   4.455  15.813  0.00  0.00    +0.000 A 
ATOM     28  C   UNL     1       4.719   4.194  17.173  0.00  0.00    +0.000 A 
ATOM     29  C   UNL     1       5.993   4.294  17.743  0.00  0.00    +0.000 A 
ATOM     30  C   UNL     1       7.086   4.648  16.940  0.00  0.00    +0.000 A 
BRANCH  25  32
ATOM     31  C   UNL     1       7.555   5.140  13.305  0.00  0.00    +0.000 C 
ATOM     32  O   UNL     1       7.893   5.221  14.684  0.00  0.00    +0.000 OA
ENDBRANCH  25  32
ENDBRANCH  22  28
ENDBRANCH   1  22
TORSDOF 5
ENDMDL
MODEL 2
REMARK VINA RESULT:      -7.8      4.341      9.440
REMARK  Name = 
REMARK  7 active torsions:
REMARK  status: ('A' for Active; 'I' for Inactive)
REMARK    1  A    between atoms: C_1  and  O_2
REMARK    2  A    between atoms: O_2  and  C_3
REMARK    3  A    between atoms: C_6  and  S_7
REMARK    4  A    between atoms: S_7  and  N_10
REMARK    5  A    between atoms: C_14  and  C_16
REMARK    6  A    between atoms: C_18  and  C_19
REMARK    7  A    between atoms: C_22  and  C_23
REMARK                            x       y       z     vdW  Elec       q    Type
REMARK                         _______ _______ _______ _____ _____    ______ ____
ROOT
ATOM      1  N   UNL     1       1.843  14.539  19.133  0.00  0.00    +0.000 NA
ATOM      2  C   UNL     1       2.535  13.476  18.367  0.00  0.00    +0.000 C 
ATOM      3  C   UNL     1       2.111  12.083  18.825  0.00  0.00    +0.000 C 
ATOM      4  N   UNL     1       0.659  11.879  18.888  0.00  0.00    +0.000 N 
ATOM      5  C   UNL     1       0.089  10.584  18.950  0.00  0.00    +0.000 C 
ATOM      6  O   UNL     1      -1.133  10.426  18.978  0.00  0.00    +0.000 OA
ATOM      7  C   UNL     1      -0.129  12.978  19.446  0.00  0.00    +0.000 C 
ATOM      8  C   UNL     1       0.363  14.382  19.058  0.00  0.00    +0.000 C 
ENDROOT
BRANCH   5   9
ATOM      9  C   UNL     1       1.001   9.412  18.958  0.00  0.00    +0.000 A 
ATOM     10  C   UNL     1       1.636   8.801  17.840  0.00  0.00    +0.000 A 
ATOM     11  C   UNL     1       2.382   7.751  18.345  0.00  0.00    +0.000 A 
ATOM     12  N   UNL     1       2.163   7.794  19.693  0.00  0.00    +0.000 N 
ATOM     13  N   UNL     1       1.304   8.733  20.081  0.00  0.00    +0.000 NA
ATOM     14  H   UNL     1       2.578   7.206  20.407  0.00  0.00    +0.000 HD
BRANCH  11  15
ATOM     15  C   UNL     1       3.252   6.756  17.728  0.00  0.00    +0.000 A 
ATOM     16  C   UNL     1       3.009   5.389  17.891  0.00  0.00    +0.000 A 
ATOM     17  C   UNL     1       3.851   4.443  17.298  0.00  0.00    +0.000 A 
ATOM     18  C   UNL     1       4.951   4.849  16.534  0.00  0.00    +0.000 A 
ATOM     19  C   UNL     1       5.872   3.849  15.904  0.00  0.00    +0.000 C 
ATOM     20  C   UNL     1       5.192   6.213  16.362  0.00  0.00    +0.000 A 
ATOM     21  C   UNL     1       4.352   7.157  16.954  0.00  0.00    +0.000 A 
ENDBRANCH  11  15
ENDBRANCH   5   9
BRANCH   1  22
ATOM     22  S   UNL     1       2.523  14.998  20.617  0.00  0.00    +0.000 S 
ATOM     23  O   UNL     1       2.664  13.819  21.443  0.00  0.00    +0.000 OA
ATOM     24  O   UNL     1       1.841  16.178  21.094  0.00  0.00    +0.000 OA
BRANCH  22  28
ATOM     25  C   UNL     1       6.746  16.309  19.394  0.00  0.00    +0.000 A 
ATOM     26  C   UNL     1       6.552  15.228  20.261  0.00  0.00    +0.000 A 
ATOM     27  C   UNL     1       5.264  14.824  20.621  0.00  0.00    +0.000 A 
ATOM     28  C   UNL     1       4.160  15.523  20.124  0.00  0.00    +0.000 A 
ATOM     29  C   UNL     1       4.340  16.605  19.255  0.00  0.00    +0.000 A 
ATOM     30  C   UNL     1       5.636  16.994  18.891  0.00  0.00    +0.000 A 
BRANCH  25  32
ATOM     31  C   UNL     1       9.025  15.972  19.965  0.00  0.00    +0.000 C 
ATOM     32  O   UNL     1       8.056  16.607  19.141  0.00  0.00    +0.000 OA
ENDBRANCH  25  32
ENDBRANCH  22  28
ENDBRANCH   1  22
TORSDOF 5
ENDMDL
MODEL 3
REMARK VINA RESULT:      -7.8      4.845      9.530
REMARK  Name = 
REMARK  7 active torsions:
REMARK  status: ('A' for Active; 'I' for Inactive)
REMARK    1  A    between atoms: C_1  and  O_2
REMARK    2  A    between atoms: O_2  and  C_3
REMARK    3  A    between atoms: C_6  and  S_7
REMARK    4  A    between atoms: S_7  and  N_10
REMARK    5  A    between atoms: C_14  and  C_16
REMARK    6  A    between atoms: C_18  and  C_19
REMARK    7  A    between atoms: C_22  and  C_23
REMARK                            x       y       z     vdW  Elec       q    Type
REMARK                         _______ _______ _______ _____ _____    ______ ____
ROOT
ATOM      1  N   UNL     1       1.866  15.193  20.626  0.00  0.00    +0.000 NA
ATOM      2  C   UNL     1       2.147  13.972  19.835  0.00  0.00    +0.000 C 
ATOM      3  C   UNL     1       1.778  12.705  20.602  0.00  0.00    +0.000 C 
ATOM      4  N   UNL     1       0.425  12.710  21.171  0.00  0.00    +0.000 N 
ATOM      5  C   UNL     1      -0.208  11.519  21.603  0.00  0.00    +0.000 C 
ATOM      6  O   UNL     1      -1.354  11.534  22.056  0.00  0.00    +0.000 OA
ATOM      7  C   UNL     1      -0.014  13.959  21.795  0.00  0.00    +0.000 C 
ATOM      8  C   UNL     1       0.444  15.234  21.069  0.00  0.00    +0.000 C 
ENDROOT
BRANCH   5   9
ATOM      9  C   UNL     1       0.535  10.240  21.477  0.00  0.00    +0.000 A 
ATOM     10  C   UNL     1       0.640   9.409  20.326  0.00  0.00    +0.000 A 
ATOM     11  C   UNL     1       1.432   8.335  20.695  0.00  0.00    +0.000 A 
ATOM     12  N   UNL     1       1.749   8.579  22.000  0.00  0.00    +0.000 N 
ATOM     13  N   UNL     1       1.187   9.671  22.510  0.00  0.00    +0.000 NA
ATOM     14  H   UNL     1       2.355   8.032  22.603  0.00  0.00    +0.000 HD
BRANCH  11  15
ATOM     15  C   UNL     1       1.912   7.158  19.982  0.00  0.00    +0.000 A 
ATOM     16  C   UNL     1       2.516   7.275  18.727  0.00  0.00    +0.000 A 
ATOM     17  C   UNL     1       2.972   6.138  18.049  0.00  0.00    +0.000 A 
ATOM     18  C   UNL     1       2.827   4.867  18.616  0.00  0.00    +0.000 A 
ATOM     19  C   UNL     1       3.294   3.637  17.898  0.00  0.00    +0.000 C 
ATOM     20  C   UNL     1       2.232   4.747  19.873  0.00  0.00    +0.000 A 
ATOM     21  C   UNL     1       1.778   5.880  20.549  0.00  0.00    +0.000 A 
ENDBRANCH  11  15
ENDBRANCH   5   9
BRANCH   1  22
ATOM     22  S   UNL     1       3.057  15.704  21.719  0.00  0.00    +0.000 S 
ATOM     23  O   UNL     1       3.345  14.616  22.628  0.00  0.00    +0.000 OA
ATOM     24  O   UNL     1       2.711  17.020  22.201  0.00  0.00    +0.000 OA
BRANCH  22  28
ATOM     25  C   UNL     1       6.722  16.203  19.004  0.00  0.00    +0.000 A 
ATOM     26  C   UNL     1       6.692  15.217  19.996  0.00  0.00    +0.000 A 
ATOM     27  C   UNL     1       5.569  15.059  20.812  0.00  0.00    +0.000 A 
ATOM     28  C   UNL     1       4.474  15.912  20.647  0.00  0.00    +0.000 A 
ATOM     29  C   UNL     1       4.491  16.902  19.658  0.00  0.00    +0.000 A 
ATOM     30  C   UNL     1       5.618  17.043  18.837  0.00  0.00    +0.000 A 
BRANCH  25  32
ATOM     31  C   UNL     1       8.571  15.027  18.091  0.00  0.00    +0.000 C 
ATOM     32  O   UNL     1       7.888  16.258  18.291  0.00  0.00    +0.000 OA
ENDBRANCH  25  32
ENDBRANCH  22  28
ENDBRANCH   1  22
TORSDOF 5
ENDMDL
MODEL 4
REMARK VINA RESULT:      -7.8      4.542      9.471
REMARK  Name = 
REMARK  7 active torsions:
REMARK  status: ('A' for Active; 'I' for Inactive)
REMARK    1  A    between atoms: C_1  and  O_2
REMARK    2  A    between atoms: O_2  and  C_3
REMARK    3  A    between atoms: C_6  and  S_7
REMARK    4  A    between atoms: S_7  and  N_10
REMARK    5  A    between atoms: C_14  and  C_16
REMARK    6  A    between atoms: C_18  and  C_19
REMARK    7  A    between atoms: C_22  and  C_23
REMARK                            x       y       z     vdW  Elec       q    Type
REMARK                         _______ _______ _______ _____ _____    ______ ____
ROOT
ATOM      1  N   UNL     1       2.194  14.984  19.166  0.00  0.00    +0.000 NA
ATOM      2  C   UNL     1       2.813  13.833  18.469  0.00  0.00    +0.000 C 
ATOM      3  C   UNL     1       2.212  12.506  18.926  0.00  0.00    +0.000 C 
ATOM      4  N   UNL     1       0.746  12.461  18.900  0.00  0.00    +0.000 N 
ATOM      5  C   UNL     1       0.036  11.236  18.950  0.00  0.00    +0.000 C 
ATOM      6  O   UNL     1      -1.195  11.210  18.903  0.00  0.00    +0.000 OA
ATOM      7  C   UNL     1       0.048  13.652  19.383  0.00  0.00    +0.000 C 
ATOM      8  C   UNL     1       0.713  14.984  18.999  0.00  0.00    +0.000 C 
ENDROOT
BRANCH   5   9
ATOM      9  C   UNL     1       0.813   9.974  19.042  0.00  0.00    +0.000 A 
ATOM     10  C   UNL     1       1.450   9.270  17.981  0.00  0.00    +0.000 A 
ATOM     11  C   UNL     1       2.043   8.159  18.554  0.00  0.00    +0.000 A 
ATOM     12  N   UNL     1       1.744   8.261  19.883  0.00  0.00    +0.000 N 
ATOM     13  N   UNL     1       0.968   9.295  20.195  0.00  0.00    +0.000 NA
ATOM     14  H   UNL     1       2.045   7.649  20.634  0.00  0.00    +0.000 HD
BRANCH  11  15
ATOM     15  C   UNL     1       2.839   7.062  18.015  0.00  0.00    +0.000 A 
ATOM     16  C   UNL     1       2.449   5.733  18.204  0.00  0.00    +0.000 A 
ATOM     17  C   UNL     1       3.221   4.687  17.685  0.00  0.00    +0.000 A 
ATOM     18  C   UNL     1       4.395   4.955  16.973  0.00  0.00    +0.000 A 
ATOM     19  C   UNL     1       5.242   3.847  16.425  0.00  0.00    +0.000 C 
ATOM     20  C   UNL     1       4.783   6.282  16.776  0.00  0.00    +0.000 A 
ATOM     21  C   UNL     1       4.014   7.324  17.293  0.00  0.00    +0.000 A 
ENDBRANCH  11  15
ENDBRANCH   5   9
BRANCH   1  22
ATOM     22  S   UNL     1       2.826  15.409  20.681  0.00  0.00    +0.000 S 
ATOM     23  O   UNL     1       2.776  14.247  21.542  0.00  0.00    +0.000 OA
ATOM     24  O   UNL     1       2.256  16.673  21.084  0.00  0.00    +0.000 OA
BRANCH  22  28
ATOM     25  C   UNL     1       7.209  16.260  19.628  0.00  0.00    +0.000 A 
ATOM     26  C   UNL     1       6.174  17.004  19.052  0.00  0.00    +0.000 A 
ATOM     27  C   UNL     1       4.841  16.751  19.385  0.00  0.00    +0.000 A 
ATOM     28  C   UNL     1       4.541  15.727  20.287  0.00  0.00    +0.000 A 
ATOM     29  C   UNL     1       5.566  14.975  20.872  0.00  0.00    +0.000 A 
ATOM     30  C   UNL     1       6.901  15.247  20.540  0.00  0.00    +0.000 A 
BRANCH  25  32
ATOM     31  C   UNL     1       8.801  16.239  17.867  0.00  0.00    +0.000 C 
ATOM     32  O   UNL     1       8.462  16.601  19.200  0.00  0.00    +0.000 OA
ENDBRANCH  25  32
ENDBRANCH  22  28
ENDBRANCH   1  22
TORSDOF 5
ENDMDL
MODEL 5
REMARK VINA RESULT:      -7.7      4.480      9.428
REMARK  Name = 
REMARK  7 active torsions:
REMARK  status: ('A' for Active; 'I' for Inactive)
REMARK    1  A    between atoms: C_1  and  O_2
REMARK    2  A    between atoms: O_2  and  C_3
REMARK    3  A    between atoms: C_6  and  S_7
REMARK    4  A    between atoms: S_7  and  N_10
REMARK    5  A    between atoms: C_14  and  C_16
REMARK    6  A    between atoms: C_18  and  C_19
REMARK    7  A    between atoms: C_22  and  C_23
REMARK                            x       y       z     vdW  Elec       q    Type
REMARK                         _______ _______ _______ _____ _____    ______ ____
ROOT
ATOM      1  N   UNL     1       1.988  14.971  18.919  0.00  0.00    +0.000 NA
ATOM      2  C   UNL     1       2.631  13.835  18.218  0.00  0.00    +0.000 C 
ATOM      3  C   UNL     1       2.115  12.492  18.728  0.00  0.00    +0.000 C 
ATOM      4  N   UNL     1       0.652  12.377  18.767  0.00  0.00    +0.000 N 
ATOM      5  C   UNL     1       0.005  11.122  18.873  0.00  0.00    +0.000 C 
ATOM      6  O   UNL     1      -1.225  11.038  18.881  0.00  0.00    +0.000 OA
ATOM      7  C   UNL     1      -0.080  13.545  19.257  0.00  0.00    +0.000 C 
ATOM      8  C   UNL     1       0.503  14.898  18.818  0.00  0.00    +0.000 C 
ENDROOT
BRANCH   5   9
ATOM      9  C   UNL     1       0.844   9.900  18.955  0.00  0.00    +0.000 A 
ATOM     10  C   UNL     1       1.520   9.241  17.890  0.00  0.00    +0.000 A 
ATOM     11  C   UNL     1       2.166   8.156  18.455  0.00  0.00    +0.000 A 
ATOM     12  N   UNL     1       1.856   8.227  19.783  0.00  0.00    +0.000 N 
ATOM     13  N   UNL     1       1.027   9.218  20.103  0.00  0.00    +0.000 NA
ATOM     14  H   UNL     1       2.184   7.624  20.529  0.00  0.00    +0.000 HD
BRANCH  11  15
ATOM     15  C   UNL     1       3.019   7.106  17.909  0.00  0.00    +0.000 A 
ATOM     16  C   UNL     1       4.154   7.421  17.157  0.00  0.00    +0.000 A 
ATOM     17  C   UNL     1       4.964   6.406  16.635  0.00  0.00    +0.000 A 
ATOM     18  C   UNL     1       4.649   5.061  16.855  0.00  0.00    +0.000 A 
ATOM     19  C   UNL     1       5.495   3.961  16.290  0.00  0.00    +0.000 C 
ATOM     20  C   UNL     1       3.520   4.742  17.613  0.00  0.00    +0.000 A 
ATOM     21  C   UNL     1       2.712   5.754  18.133  0.00  0.00    +0.000 A 
ENDBRANCH  11  15
ENDBRANCH   5   9
BRANCH   1  22
ATOM     22  S   UNL     1       2.664  15.458  20.396  0.00  0.00    +0.000 S 
ATOM     23  O   UNL     1       2.650  14.330  21.301  0.00  0.00    +0.000 OA
ATOM     24  O   UNL     1       2.098  16.733  20.768  0.00  0.00    +0.000 OA
BRANCH  22  28
ATOM     25  C   UNL     1       7.041  16.223  19.254  0.00  0.00    +0.000 A 
ATOM     26  C   UNL     1       6.681  15.100  20.007  0.00  0.00    +0.000 A 
ATOM     27  C   UNL     1       5.345  14.864  20.342  0.00  0.00    +0.000 A 
ATOM     28  C   UNL     1       4.364  15.772  19.936  0.00  0.00    +0.000 A 
ATOM     29  C   UNL     1       4.710  16.898  19.181  0.00  0.00    +0.000 A 
ATOM     30  C   UNL     1       6.052  17.119  18.840  0.00  0.00    +0.000 A 
BRANCH  25  32
ATOM     31  C   UNL     1       9.208  15.281  19.479  0.00  0.00    +0.000 C 
ATOM     32  O   UNL     1       8.382  16.341  19.014  0.00  0.00    +0.000 OA
ENDBRANCH  25  32
ENDBRANCH  22  28
ENDBRANCH   1  22
TORSDOF 5
ENDMDL
MODEL 6
REMARK VINA RESULT:      -7.6      4.670      9.206
REMARK  Name = 
REMARK  7 active torsions:
REMARK  status: ('A' for Active; 'I' for Inactive)
REMARK    1  A    between atoms: C_1  and  O_2
REMARK    2  A    between atoms: O_2  and  C_3
REMARK    3  A    between atoms: C_6  and  S_7
REMARK    4  A    between atoms: S_7  and  N_10
REMARK    5  A    between atoms: C_14  and  C_16
REMARK    6  A    between atoms: C_18  and  C_19
REMARK    7  A    between atoms: C_22  and  C_23
REMARK                            x       y       z     vdW  Elec       q    Type
REMARK                         _______ _______ _______ _____ _____    ______ ____
ROOT
ATOM      1  N   UNL     1       1.764  15.041  20.414  0.00  0.00    +0.000 NA
ATOM      2  C   UNL     1       1.968  13.795  19.639  0.00  0.00    +0.000 C 
ATOM      3  C   UNL     1       1.697  12.553  20.484  0.00  0.00    +0.000 C 
ATOM      4  N   UNL     1       0.414  12.571  21.197  0.00  0.00    +0.000 N 
ATOM      5  C   UNL     1      -0.157  11.392  21.736  0.00  0.00    +0.000 C 
ATOM      6  O   UNL     1      -1.246  11.417  22.311  0.00  0.00    +0.000 OA
ATOM      7  C   UNL     1       0.034  13.838  21.823  0.00  0.00    +0.000 C 
ATOM      8  C   UNL     1       0.398  15.090  21.008  0.00  0.00    +0.000 C 
ENDROOT
BRANCH   5   9
ATOM      9  C   UNL     1       0.580  10.113  21.573  0.00  0.00    +0.000 A 
ATOM     10  C   UNL     1       0.672   9.311  20.401  0.00  0.00    +0.000 A 
ATOM     11  C   UNL     1       1.462   8.225  20.736  0.00  0.00    +0.000 A 
ATOM     12  N   UNL     1       1.792   8.435  22.045  0.00  0.00    +0.000 N 
ATOM     13  N   UNL     1       1.238   9.517  22.586  0.00  0.00    +0.000 NA
ATOM     14  H   UNL     1       2.399   7.871  22.629  0.00  0.00    +0.000 HD
BRANCH  11  15
ATOM     15  C   UNL     1       1.932   7.063  19.991  0.00  0.00    +0.000 A 
ATOM     16  C   UNL     1       1.816   5.775  20.521  0.00  0.00    +0.000 A 
ATOM     17  C   UNL     1       2.272   4.667  19.799  0.00  0.00    +0.000 A 
ATOM     18  C   UNL     1       2.854   4.831  18.537  0.00  0.00    +0.000 A 
ATOM     19  C   UNL     1       3.363   3.658  17.756  0.00  0.00    +0.000 C 
ATOM     20  C   UNL     1       2.964   6.116  18.001  0.00  0.00    +0.000 A 
ATOM     21  C   UNL     1       2.509   7.220  18.720  0.00  0.00    +0.000 A 
ENDBRANCH  11  15
ENDBRANCH   5   9
BRANCH   1  22
ATOM     22  S   UNL     1       3.062  15.596  21.351  0.00  0.00    +0.000 S 
ATOM     23  O   UNL     1       3.240  14.696  22.469  0.00  0.00    +0.000 OA
ATOM     24  O   UNL     1       2.921  17.021  21.543  0.00  0.00    +0.000 OA
BRANCH  22  28
ATOM     25  C   UNL     1       6.641  15.013  18.541  0.00  0.00    +0.000 A 
ATOM     26  C   UNL     1       6.787  14.881  19.926  0.00  0.00    +0.000 A 
ATOM     27  C   UNL     1       5.692  15.047  20.778  0.00  0.00    +0.000 A 
ATOM     28  C   UNL     1       4.444  15.369  20.238  0.00  0.00    +0.000 A 
ATOM     29  C   UNL     1       4.284  15.502  18.854  0.00  0.00    +0.000 A 
ATOM     30  C   UNL     1       5.387  15.322  18.008  0.00  0.00    +0.000 A 
BRANCH  25  32
ATOM     31  C   UNL     1       8.650  13.783  18.242  0.00  0.00    +0.000 C 
ATOM     32  O   UNL     1       7.796  14.843  17.828  0.00  0.00    +0.000 OA
ENDBRANCH  25  32
ENDBRANCH  22  28
ENDBRANCH   1  22
TORSDOF 5
ENDMDL
MODEL 7
REMARK VINA RESULT:      -7.6      4.298      6.972
REMARK  Name = 
REMARK  7 active torsions:
REMARK  status: ('A' for Active; 'I' for Inactive)
REMARK    1  A    between atoms: C_1  and  O_2
REMARK    2  A    between atoms: O_2  and  C_3
REMARK    3  A    between atoms: C_6  and  S_7
REMARK    4  A    between atoms: S_7  and  N_10
REMARK    5  A    between atoms: C_14  and  C_16
REMARK    6  A    between atoms: C_18  and  C_19
REMARK    7  A    between atoms: C_22  and  C_23
REMARK                            x       y       z     vdW  Elec       q    Type
REMARK                         _______ _______ _______ _____ _____    ______ ____
ROOT
ATOM      1  N   UNL     1       3.088   4.332  18.341  0.00  0.00    +0.000 NA
ATOM      2  C   UNL     1       3.539   5.432  17.457  0.00  0.00    +0.000 C 
ATOM      3  C   UNL     1       4.886   5.997  17.902  0.00  0.00    +0.000 C 
ATOM      4  N   UNL     1       5.927   4.986  18.122  0.00  0.00    +0.000 N 
ATOM      5  C   UNL     1       7.299   5.331  18.194  0.00  0.00    +0.000 C 
ATOM      6  O   UNL     1       8.165   4.469  18.355  0.00  0.00    +0.000 OA
ATOM      7  C   UNL     1       5.513   3.764  18.812  0.00  0.00    +0.000 C 
ATOM      8  C   UNL     1       4.114   3.254  18.430  0.00  0.00    +0.000 C 
ENDROOT
BRANCH   5   9
ATOM      9  C   UNL     1       7.676   6.760  18.049  0.00  0.00    +0.000 A 
ATOM     10  C   UNL     1       8.390   7.566  18.980  0.00  0.00    +0.000 A 
ATOM     11  C   UNL     1       8.498   8.819  18.404  0.00  0.00    +0.000 A 
ATOM     12  N   UNL     1       7.869   8.695  17.198  0.00  0.00    +0.000 N 
ATOM     13  N   UNL     1       7.321   7.502  16.982  0.00  0.00    +0.000 NA
ATOM     14  H   UNL     1       7.781   9.396  16.470  0.00  0.00    +0.000 HD
BRANCH  11  15
ATOM     15  C   UNL     1       9.112  10.068  18.839  0.00  0.00    +0.000 A 
ATOM     16  C   UNL     1       9.523  11.028  17.910  0.00  0.00    +0.000 A 
ATOM     17  C   UNL     1      10.113  12.222  18.336  0.00  0.00    +0.000 A 
ATOM     18  C   UNL     1      10.305  12.474  19.700  0.00  0.00    +0.000 A 
ATOM     19  C   UNL     1      10.950  13.740  20.174  0.00  0.00    +0.000 C 
ATOM     20  C   UNL     1       9.888  11.521  20.631  0.00  0.00    +0.000 A 
ATOM     21  C   UNL     1       9.299  10.330  20.206  0.00  0.00    +0.000 A 
ENDBRANCH  11  15
ENDBRANCH   5   9
BRANCH   1  22
ATOM     22  S   UNL     1       2.257   4.760  19.755  0.00  0.00    +0.000 S 
ATOM     23  O   UNL     1       3.160   4.628  20.877  0.00  0.00    +0.000 OA
ATOM     24  O   UNL     1       0.963   4.117  19.746  0.00  0.00    +0.000 OA
BRANCH  22  28
ATOM     25  C   UNL     1       1.475   9.238  19.136  0.00  0.00    +0.000 A 
ATOM     26  C   UNL     1       1.489   8.682  20.420  0.00  0.00    +0.000 A 
ATOM     27  C   UNL     1       1.740   7.320  20.605  0.00  0.00    +0.000 A 
ATOM     28  C   UNL     1       1.958   6.504  19.492  0.00  0.00    +0.000 A 
ATOM     29  C   UNL     1       1.948   7.047  18.203  0.00  0.00    +0.000 A 
ATOM     30  C   UNL     1       1.707   8.417  18.029  0.00  0.00    +0.000 A 
BRANCH  25  32
ATOM     31  C   UNL     1       0.146  11.034  19.939  0.00  0.00    +0.000 C 
ATOM     32  O   UNL     1       1.199  10.577  19.099  0.00  0.00    +0.000 OA
ENDBRANCH  25  32
ENDBRANCH  22  28
ENDBRANCH   1  22
TORSDOF 5
ENDMDL
MODEL 8
REMARK VINA RESULT:      -7.5      3.439      9.751
REMARK  Name = 
REMARK  7 active torsions:
REMARK  status: ('A' for Active; 'I' for Inactive)
REMARK    1  A    between atoms: C_1  and  O_2
REMARK    2  A    between atoms: O_2  and  C_3
REMARK    3  A    between atoms: C_6  and  S_7
REMARK    4  A    between atoms: S_7  and  N_10
REMARK    5  A    between atoms: C_14  and  C_16
REMARK    6  A    between atoms: C_18  and  C_19
REMARK    7  A    between atoms: C_22  and  C_23
REMARK                            x       y       z     vdW  Elec       q    Type
REMARK                         _______ _______ _______ _____ _____    ______ ____
ROOT
ATOM      1  N   UNL     1       0.483  12.267  19.579  0.00  0.00    +0.000 NA
ATOM      2  C   UNL     1       0.476  11.118  18.643  0.00  0.00    +0.000 C 
ATOM      3  C   UNL     1       1.144   9.888  19.254  0.00  0.00    +0.000 C 
ATOM      4  N   UNL     1       0.654   9.531  20.590  0.00  0.00    +0.000 N 
ATOM      5  C   UNL     1       0.893   8.255  21.156  0.00  0.00    +0.000 C 
ATOM      6  O   UNL     1       0.456   7.959  22.270  0.00  0.00    +0.000 OA
ATOM      7  C   UNL     1       0.433  10.639  21.520  0.00  0.00    +0.000 C 
ATOM      8  C   UNL     1      -0.150  11.908  20.879  0.00  0.00    +0.000 C 
ENDROOT
BRANCH   5   9
ATOM      9  C   UNL     1       1.669   7.267  20.366  0.00  0.00    +0.000 A 
ATOM     10  C   UNL     1       2.417   7.503  19.177  0.00  0.00    +0.000 A 
ATOM     11  C   UNL     1       2.961   6.285  18.813  0.00  0.00    +0.000 A 
ATOM     12  N   UNL     1       2.527   5.417  19.774  0.00  0.00    +0.000 N 
ATOM     13  N   UNL     1       1.713   5.957  20.678  0.00  0.00    +0.000 NA
ATOM     14  H   UNL     1       2.756   4.433  19.870  0.00  0.00    +0.000 HD
BRANCH  11  15
ATOM     15  C   UNL     1       3.817   5.863  17.711  0.00  0.00    +0.000 A 
ATOM     16  C   UNL     1       4.505   6.801  16.936  0.00  0.00    +0.000 A 
ATOM     17  C   UNL     1       5.322   6.386  15.879  0.00  0.00    +0.000 A 
ATOM     18  C   UNL     1       5.462   5.026  15.579  0.00  0.00    +0.000 A 
ATOM     19  C   UNL     1       6.320   4.565  14.441  0.00  0.00    +0.000 C 
ATOM     20  C   UNL     1       4.783   4.086  16.356  0.00  0.00    +0.000 A 
ATOM     21  C   UNL     1       3.968   4.499  17.410  0.00  0.00    +0.000 A 
ENDBRANCH  11  15
ENDBRANCH   5   9
BRANCH   1  22
ATOM     22  S   UNL     1       1.872  13.238  19.609  0.00  0.00    +0.000 S 
ATOM     23  O   UNL     1       2.638  12.983  18.408  0.00  0.00    +0.000 OA
ATOM     24  O   UNL     1       2.471  13.152  20.920  0.00  0.00    +0.000 OA
BRANCH  22  28
ATOM     25  C   UNL     1       0.055  17.433  19.223  0.00  0.00    +0.000 A 
ATOM     26  C   UNL     1      -0.446  16.362  18.475  0.00  0.00    +0.000 A 
ATOM     27  C   UNL     1       0.102  15.083  18.605  0.00  0.00    +0.000 A 
ATOM     28  C   UNL     1       1.175  14.880  19.476  0.00  0.00    +0.000 A 
ATOM     29  C   UNL     1       1.685  15.943  20.231  0.00  0.00    +0.000 A 
ATOM     30  C   UNL     1       1.120  17.219  20.102  0.00  0.00    +0.000 A 
BRANCH  25  32
ATOM     31  C   UNL     1      -1.683  18.607  18.109  0.00  0.00    +0.000 C 
ATOM     32  O   UNL     1      -0.562  18.631  18.984  0.00  0.00    +0.000 OA
ENDBRANCH  25  32
ENDBRANCH  22  28
ENDBRANCH   1  22
TORSDOF 5
ENDMDL
MODEL 9
REMARK VINA RESULT:      -7.4      4.299     10.357
REMARK  Name = 
REMARK  7 active torsions:
REMARK  status: ('A' for Active; 'I' for Inactive)
REMARK    1  A    between atoms: C_1  and  O_2
REMARK    2  A    between atoms: O_2  and  C_3
REMARK    3  A    between atoms: C_6  and  S_7
REMARK    4  A    between atoms: S_7  and  N_10
REMARK    5  A    between atoms: C_14  and  C_16
REMARK    6  A    between atoms: C_18  and  C_19
REMARK    7  A    between atoms: C_22  and  C_23
REMARK                            x       y       z     vdW  Elec       q    Type
REMARK                         _______ _______ _______ _____ _____    ______ ____
ROOT
ATOM      1  N   UNL     1       0.957  14.955  20.053  0.00  0.00    +0.000 NA
ATOM      2  C   UNL     1       1.954  14.035  19.458  0.00  0.00    +0.000 C 
ATOM      3  C   UNL     1       1.478  12.585  19.495  0.00  0.00    +0.000 C 
ATOM      4  N   UNL     1       0.127  12.375  18.961  0.00  0.00    +0.000 N 
ATOM      5  C   UNL     1      -0.340  11.088  18.597  0.00  0.00    +0.000 C 
ATOM      6  O   UNL     1      -1.468  10.929  18.127  0.00  0.00    +0.000 OA
ATOM      7  C   UNL     1      -0.882  13.366  19.336  0.00  0.00    +0.000 C 
ATOM      8  C   UNL     1      -0.371  14.814  19.391  0.00  0.00    +0.000 C 
ENDROOT
BRANCH   5   9
ATOM      9  C   UNL     1       0.573   9.931  18.773  0.00  0.00    +0.000 A 
ATOM     10  C   UNL     1       1.269   9.214  17.759  0.00  0.00    +0.000 A 
ATOM     11  C   UNL     1       1.989   8.227  18.408  0.00  0.00    +0.000 A 
ATOM     12  N   UNL     1       1.699   8.406  19.730  0.00  0.00    +0.000 N 
ATOM     13  N   UNL     1       0.818   9.373  19.975  0.00  0.00    +0.000 NA
ATOM     14  H   UNL     1       2.076   7.897  20.522  0.00  0.00    +0.000 HD
BRANCH  11  15
ATOM     15  C   UNL     1       2.894   7.181  17.943  0.00  0.00    +0.000 A 
ATOM     16  C   UNL     1       4.088   7.502  17.291  0.00  0.00    +0.000 A 
ATOM     17  C   UNL     1       4.947   6.492  16.847  0.00  0.00    +0.000 A 
ATOM     18  C   UNL     1       4.624   5.144  17.044  0.00  0.00    +0.000 A 
ATOM     19  C   UNL     1       5.524   4.049  16.561  0.00  0.00    +0.000 C 
ATOM     20  C   UNL     1       3.436   4.821  17.702  0.00  0.00    +0.000 A 
ATOM     21  C   UNL     1       2.579   5.828  18.146  0.00  0.00    +0.000 A 
ENDBRANCH  11  15
ENDBRANCH   5   9
BRANCH   1  22
ATOM     22  S   UNL     1       0.992  15.158  21.736  0.00  0.00    +0.000 S 
ATOM     23  O   UNL     1       0.901  16.571  22.030  0.00  0.00    +0.000 OA
ATOM     24  O   UNL     1       2.048  14.338  22.281  0.00  0.00    +0.000 OA
BRANCH  22  28
ATOM     25  C   UNL     1      -2.934  13.147  22.998  0.00  0.00    +0.000 A 
ATOM     26  C   UNL     1      -1.747  12.412  22.909  0.00  0.00    +0.000 A 
ATOM     27  C   UNL     1      -0.550  13.031  22.536  0.00  0.00    +0.000 A 
ATOM     28  C   UNL     1      -0.548  14.394  22.230  0.00  0.00    +0.000 A 
ATOM     29  C   UNL     1      -1.728  15.141  22.317  0.00  0.00    +0.000 A 
ATOM     30  C   UNL     1      -2.920  14.513  22.703  0.00  0.00    +0.000 A 
BRANCH  25  32
ATOM     31  C   UNL     1      -5.294  12.902  22.920  0.00  0.00    +0.000 C 
ATOM     32  O   UNL     1      -4.032  12.413  23.356  0.00  0.00    +0.000 OA
ENDBRANCH  25  32
ENDBRANCH  22  28
ENDBRANCH   1  22
TORSDOF 5
ENDMDL
