MODEL 1
REMARK VINA RESULT:      -7.5      0.000      0.000
REMARK  Name = 
REMARK  13 active torsions:
REMARK  status: ('A' for Active; 'I' for Inactive)
REMARK    1  A    between atoms: C_1  and  C_2
REMARK    2  A    between atoms: C_2  and  C_3
REMARK    3  A    between atoms: C_3  and  C_4
REMARK    4  A    between atoms: C_4  and  N_5
REMARK    5  A    between atoms: N_5  and  C_6
REMARK    6  A    between atoms: N_5  and  C_7
REMARK    7  A    between atoms: C_7  and  C_8
REMARK    8  A    between atoms: C_8  and  N_9
REMARK    9  A    between atoms: C_10  and  C_12
REMARK   10  A    between atoms: C_12  and  C_13
REMARK   11  A    between atoms: C_13  and  N_14
REMARK   12  A    between atoms: C_16  and  C_17
REMARK   13  A    between atoms: C_20  and  C_21
REMARK                            x       y       z     vdW  Elec       q    Type
REMARK                         _______ _______ _______ _____ _____    ______ ____
ROOT
ATOM      1  C   UNL     1       5.916   4.372  18.855  0.00  0.00    +0.000 C 
ENDROOT
BRANCH   1   2
ATOM      2  N   UNL     1       4.532   4.560  19.289  0.00  0.00    +0.000 N 
ATOM      3  N   UNL     1       4.014   5.824  19.118  0.00  0.00    +0.000 NA
ATOM      4  C   UNL     1       2.804   6.047  19.530  0.00  0.00    +0.000 A 
ATOM      5  C   UNL     1       1.955   5.038  20.192  0.00  0.00    +0.000 A 
ATOM      6  C   UNL     1       2.470   3.815  20.333  0.00  0.00    +0.000 A 
ATOM      7  C   UNL     1       3.831   3.505  19.860  0.00  0.00    +0.000 A 
ATOM      8  O   UNL     1       4.269   2.365  20.009  0.00  0.00    +0.000 OA
BRANCH   4   9
ATOM      9  C   UNL     1       2.213   7.402  19.318  0.00  0.00    +0.000 A 
ATOM     10  C   UNL     1       1.603   8.045  20.404  0.00  0.00    +0.000 A 
ATOM     11  C   UNL     1       0.983   9.284  20.234  0.00  0.00    +0.000 A 
ATOM     12  C   UNL     1       0.956   9.893  18.974  0.00  0.00    +0.000 A 
ATOM     13  C   UNL     1       0.221  11.182  18.754  0.00  0.00    +0.000 C 
ATOM     14  C   UNL     1       1.596   9.265  17.897  0.00  0.00    +0.000 A 
ATOM     15  C   UNL     1       2.216   8.024  18.064  0.00  0.00    +0.000 A 
ENDBRANCH   4   9
ENDBRANCH   1   2
BRANCH   1  16
ATOM     16  C   UNL     1       6.585   5.699  18.510  0.00  0.00    +0.000 C 
BRANCH  16  18
ATOM     17  N   UNL     1       5.686   5.228  16.302  0.00  0.00    +0.000 N 
ATOM     18  C   UNL     1       6.683   5.867  17.009  0.00  0.00    +0.000 C 
ATOM     19  O   UNL     1       7.603   6.469  16.464  0.00  0.00    +0.000 OA
ATOM     20  H   UNL     1       4.836   4.944  16.778  0.00  0.00    +0.000 HD
BRANCH  17  21
ATOM     21  C   UNL     1       5.600   5.372  14.859  0.00  0.00    +0.000 C 
BRANCH  21  22
ATOM     22  C   UNL     1       5.769   4.035  14.117  0.00  0.00    +0.000 C 
BRANCH  22  23
ATOM     23  N   UNL     1       6.968   3.940  13.240  0.00  0.00    +0.000 NA
ATOM     24  C   UNL     1       7.649   5.246  13.247  0.00  0.00    +0.000 C 
BRANCH  23  25
ATOM     25  C   UNL     1       6.588   3.549  11.867  0.00  0.00    +0.000 C 
BRANCH  25  26
ATOM     26  C   UNL     1       5.843   2.209  11.801  0.00  0.00    +0.000 C 
BRANCH  26  28
ATOM     27  C   UNL     1       6.058  -0.213  11.193  0.00  0.00    +0.000 C 
ATOM     28  C   UNL     1       6.605   1.186  10.957  0.00  0.00    +0.000 C 
ENDBRANCH  26  28
ENDBRANCH  25  26
ENDBRANCH  23  25
ENDBRANCH  22  23
ENDBRANCH  21  22
ENDBRANCH  17  21
ENDBRANCH  16  18
ENDBRANCH   1  16
TORSDOF 10
ENDMDL
MODEL 2
REMARK VINA RESULT:      -7.2      1.671      1.953
REMARK  Name = 
REMARK  13 active torsions:
REMARK  status: ('A' for Active; 'I' for Inactive)
REMARK    1  A    between atoms: C_1  and  C_2
REMARK    2  A    between atoms: C_2  and  C_3
REMARK    3  A    between atoms: C_3  and  C_4
REMARK    4  A    between atoms: C_4  and  N_5
REMARK    5  A    between atoms: N_5  and  C_6
REMARK    6  A    between atoms: N_5  and  C_7
REMARK    7  A    between atoms: C_7  and  C_8
REMARK    8  A    between atoms: C_8  and  N_9
REMARK    9  A    between atoms: C_10  and  C_12
REMARK   10  A    between atoms: C_12  and  C_13
REMARK   11  A    between atoms: C_13  and  N_14
REMARK   12  A    between atoms: C_16  and  C_17
REMARK   13  A    between atoms: C_20  and  C_21
REMARK                            x       y       z     vdW  Elec       q    Type
REMARK                         _______ _______ _______ _____ _____    ______ ____
ROOT
ATOM      1  C   UNL     1       5.279   3.974  19.327  0.00  0.00    +0.000 C 
ENDROOT
BRANCH   1   2
ATOM      2  N   UNL     1       3.984   4.382  18.785  0.00  0.00    +0.000 N 
ATOM      3  N   UNL     1       3.612   5.684  19.032  0.00  0.00    +0.000 NA
ATOM      4  C   UNL     1       2.450   6.076  18.608  0.00  0.00    +0.000 A 
ATOM      5  C   UNL     1       1.491   5.208  17.897  0.00  0.00    +0.000 A 
ATOM      6  C   UNL     1       1.878   3.955  17.653  0.00  0.00    +0.000 A 
ATOM      7  C   UNL     1       3.198   3.468  18.094  0.00  0.00    +0.000 A 
ATOM      8  O   UNL     1       3.518   2.305  17.850  0.00  0.00    +0.000 OA
BRANCH   4   9
ATOM      9  C   UNL     1       2.046   7.496  18.834  0.00  0.00    +0.000 A 
ATOM     10  C   UNL     1       1.602   7.872  20.109  0.00  0.00    +0.000 A 
ATOM     11  C   UNL     1       1.156   9.174  20.346  0.00  0.00    +0.000 A 
ATOM     12  C   UNL     1       1.137  10.113  19.310  0.00  0.00    +0.000 A 
ATOM     13  C   UNL     1       0.580  11.490  19.524  0.00  0.00    +0.000 C 
ATOM     14  C   UNL     1       1.613   9.745  18.045  0.00  0.00    +0.000 A 
ATOM     15  C   UNL     1       2.059   8.443  17.804  0.00  0.00    +0.000 A 
ENDBRANCH   4   9
ENDBRANCH   1   2
BRANCH   1  16
ATOM     16  C   UNL     1       6.383   4.960  18.959  0.00  0.00    +0.000 C 
BRANCH  16  18
ATOM     17  N   UNL     1       6.367   4.316  16.616  0.00  0.00    +0.000 N 
ATOM     18  C   UNL     1       7.143   4.474  17.745  0.00  0.00    +0.000 C 
ATOM     19  O   UNL     1       8.337   4.187  17.776  0.00  0.00    +0.000 OA
ATOM     20  H   UNL     1       5.462   4.770  16.563  0.00  0.00    +0.000 HD
BRANCH  17  21
ATOM     21  C   UNL     1       6.974   3.938  15.352  0.00  0.00    +0.000 C 
BRANCH  21  22
ATOM     22  C   UNL     1       6.105   4.311  14.139  0.00  0.00    +0.000 C 
BRANCH  22  23
ATOM     23  N   UNL     1       6.325   3.484  12.921  0.00  0.00    +0.000 NA
ATOM     24  C   UNL     1       7.015   4.313  11.918  0.00  0.00    +0.000 C 
BRANCH  23  25
ATOM     25  C   UNL     1       5.043   2.972  12.393  0.00  0.00    +0.000 C 
BRANCH  25  26
ATOM     26  C   UNL     1       4.733   3.458  10.971  0.00  0.00    +0.000 C 
BRANCH  26  28
ATOM     27  C   UNL     1       2.905   4.285   9.469  0.00  0.00    +0.000 C 
ATOM     28  C   UNL     1       3.232   3.432  10.685  0.00  0.00    +0.000 C 
ENDBRANCH  26  28
ENDBRANCH  25  26
ENDBRANCH  23  25
ENDBRANCH  22  23
ENDBRANCH  21  22
ENDBRANCH  17  21
ENDBRANCH  16  18
ENDBRANCH   1  16
TORSDOF 10
ENDMDL
MODEL 3
REMARK VINA RESULT:      -7.0      1.739      2.371
REMARK  Name = 
REMARK  13 active torsions:
REMARK  status: ('A' for Active; 'I' for Inactive)
REMARK    1  A    between atoms: C_1  and  C_2
REMARK    2  A    between atoms: C_2  and  C_3
REMARK    3  A    between atoms: C_3  and  C_4
REMARK    4  A    between atoms: C_4  and  N_5
REMARK    5  A    between atoms: N_5  and  C_6
REMARK    6  A    between atoms: N_5  and  C_7
REMARK    7  A    between atoms: C_7  and  C_8
REMARK    8  A    between atoms: C_8  and  N_9
REMARK    9  A    between atoms: C_10  and  C_12
REMARK   10  A    between atoms: C_12  and  C_13
REMARK   11  A    between atoms: C_13  and  N_14
REMARK   12  A    between atoms: C_16  and  C_17
REMARK   13  A    between atoms: C_20  and  C_21
REMARK                            x       y       z     vdW  Elec       q    Type
REMARK                         _______ _______ _______ _____ _____    ______ ____
ROOT
ATOM      1  C   UNL     1       4.320   5.924  17.754  0.00  0.00    +0.000 C 
ENDROOT
BRANCH   1   2
ATOM      2  N   UNL     1       3.279   5.858  18.779  0.00  0.00    +0.000 N 
ATOM      3  N   UNL     1       2.769   7.067  19.196  0.00  0.00    +0.000 NA
ATOM      4  C   UNL     1       1.875   7.059  20.136  0.00  0.00    +0.000 A 
ATOM      5  C   UNL     1       1.386   5.837  20.804  0.00  0.00    +0.000 A 
ATOM      6  C   UNL     1       1.881   4.675  20.373  0.00  0.00    +0.000 A 
ATOM      7  C   UNL     1       2.881   4.630  19.291  0.00  0.00    +0.000 A 
ATOM      8  O   UNL     1       3.313   3.538  18.923  0.00  0.00    +0.000 OA
BRANCH   4   9
ATOM      9  C   UNL     1       1.283   8.358  20.575  0.00  0.00    +0.000 A 
ATOM     10  C   UNL     1       1.029   9.340  19.608  0.00  0.00    +0.000 A 
ATOM     11  C   UNL     1       0.536  10.591  19.984  0.00  0.00    +0.000 A 
ATOM     12  C   UNL     1       0.300  10.880  21.332  0.00  0.00    +0.000 A 
ATOM     13  C   UNL     1      -0.147  12.246  21.764  0.00  0.00    +0.000 C 
ATOM     14  C   UNL     1       0.522   9.886  22.294  0.00  0.00    +0.000 A 
ATOM     15  C   UNL     1       1.018   8.634  21.921  0.00  0.00    +0.000 A 
ENDBRANCH   4   9
ENDBRANCH   1   2
BRANCH   1  16
ATOM     16  C   UNL     1       5.682   5.515  18.305  0.00  0.00    +0.000 C 
BRANCH  16  18
ATOM     17  N   UNL     1       5.972   4.459  16.136  0.00  0.00    +0.000 N 
ATOM     18  C   UNL     1       6.605   5.100  17.180  0.00  0.00    +0.000 C 
ATOM     19  O   UNL     1       7.821   5.266  17.219  0.00  0.00    +0.000 OA
ATOM     20  H   UNL     1       4.967   4.543  16.031  0.00  0.00    +0.000 HD
BRANCH  17  21
ATOM     21  C   UNL     1       6.715   4.080  14.947  0.00  0.00    +0.000 C 
BRANCH  21  22
ATOM     22  C   UNL     1       5.812   3.893  13.715  0.00  0.00    +0.000 C 
BRANCH  22  23
ATOM     23  N   UNL     1       6.464   3.254  12.539  0.00  0.00    +0.000 NA
ATOM     24  C   UNL     1       7.296   4.266  11.866  0.00  0.00    +0.000 C 
BRANCH  23  25
ATOM     25  C   UNL     1       5.455   2.698  11.614  0.00  0.00    +0.000 C 
BRANCH  25  26
ATOM     26  C   UNL     1       4.128   3.469  11.628  0.00  0.00    +0.000 C 
BRANCH  26  28
ATOM     27  C   UNL     1       3.010   4.276   9.535  0.00  0.00    +0.000 C 
ATOM     28  C   UNL     1       3.242   3.079  10.444  0.00  0.00    +0.000 C 
ENDBRANCH  26  28
ENDBRANCH  25  26
ENDBRANCH  23  25
ENDBRANCH  22  23
ENDBRANCH  21  22
ENDBRANCH  17  21
ENDBRANCH  16  18
ENDBRANCH   1  16
TORSDOF 10
ENDMDL
MODEL 4
REMARK VINA RESULT:      -6.9      4.944      9.344
REMARK  Name = 
REMARK  13 active torsions:
REMARK  status: ('A' for Active; 'I' for Inactive)
REMARK    1  A    between atoms: C_1  and  C_2
REMARK    2  A    between atoms: C_2  and  C_3
REMARK    3  A    between atoms: C_3  and  C_4
REMARK    4  A    between atoms: C_4  and  N_5
REMARK    5  A    between atoms: N_5  and  C_6
REMARK    6  A    between atoms: N_5  and  C_7
REMARK    7  A    between atoms: C_7  and  C_8
REMARK    8  A    between atoms: C_8  and  N_9
REMARK    9  A    between atoms: C_10  and  C_12
REMARK   10  A    between atoms: C_12  and  C_13
REMARK   11  A    between atoms: C_13  and  N_14
REMARK   12  A    between atoms: C_16  and  C_17
REMARK   13  A    between atoms: C_20  and  C_21
REMARK                            x       y       z     vdW  Elec       q    Type
REMARK                         _______ _______ _______ _____ _____    ______ ____
ROOT
ATOM      1  C   UNL     1       1.219   8.965  21.833  0.00  0.00    +0.000 C 
ENDROOT
BRANCH   1   2
ATOM      2  N   UNL     1       1.550   8.551  20.470  0.00  0.00    +0.000 N 
ATOM      3  N   UNL     1       1.877   7.224  20.307  0.00  0.00    +0.000 NA
ATOM      4  C   UNL     1       2.221   6.823  19.122  0.00  0.00    +0.000 A 
ATOM      5  C   UNL     1       2.308   7.704  17.941  0.00  0.00    +0.000 A 
ATOM      6  C   UNL     1       1.970   8.983  18.117  0.00  0.00    +0.000 A 
ATOM      7  C   UNL     1       1.550   9.483  19.439  0.00  0.00    +0.000 A 
ATOM      8  O   UNL     1       1.247  10.669  19.560  0.00  0.00    +0.000 OA
BRANCH   4   9
ATOM      9  C   UNL     1       2.543   5.378  18.919  0.00  0.00    +0.000 A 
ATOM     10  C   UNL     1       3.489   4.777  19.760  0.00  0.00    +0.000 A 
ATOM     11  C   UNL     1       3.864   3.447  19.564  0.00  0.00    +0.000 A 
ATOM     12  C   UNL     1       3.306   2.703  18.518  0.00  0.00    +0.000 A 
ATOM     13  C   UNL     1       3.760   1.301  18.238  0.00  0.00    +0.000 C 
ATOM     14  C   UNL     1       2.335   3.295  17.700  0.00  0.00    +0.000 A 
ATOM     15  C   UNL     1       1.959   4.627  17.892  0.00  0.00    +0.000 A 
ENDBRANCH   4   9
ENDBRANCH   1   2
BRANCH   1  16
ATOM     16  C   UNL     1      -0.289   9.013  22.059  0.00  0.00    +0.000 C 
BRANCH  16  18
ATOM     17  N   UNL     1      -1.194  11.097  21.196  0.00  0.00    +0.000 N 
ATOM     18  C   UNL     1      -0.740  10.434  22.318  0.00  0.00    +0.000 C 
ATOM     19  O   UNL     1      -0.654  10.972  23.418  0.00  0.00    +0.000 OA
ATOM     20  H   UNL     1      -1.462  10.567  20.375  0.00  0.00    +0.000 HD
BRANCH  17  21
ATOM     21  C   UNL     1      -1.740  12.438  21.306  0.00  0.00    +0.000 C 
BRANCH  21  22
ATOM     22  C   UNL     1      -1.914  13.124  19.940  0.00  0.00    +0.000 C 
BRANCH  22  23
ATOM     23  N   UNL     1      -1.011  12.634  18.862  0.00  0.00    +0.000 NA
ATOM     24  C   UNL     1      -0.201  13.769  18.388  0.00  0.00    +0.000 C 
BRANCH  23  25
ATOM     25  C   UNL     1      -1.788  12.038  17.755  0.00  0.00    +0.000 C 
BRANCH  25  26
ATOM     26  C   UNL     1      -1.829  10.505  17.798  0.00  0.00    +0.000 C 
BRANCH  26  28
ATOM     27  C   UNL     1      -3.114   9.873  15.741  0.00  0.00    +0.000 C 
ATOM     28  C   UNL     1      -3.153   9.965  17.259  0.00  0.00    +0.000 C 
ENDBRANCH  26  28
ENDBRANCH  25  26
ENDBRANCH  23  25
ENDBRANCH  22  23
ENDBRANCH  21  22
ENDBRANCH  17  21
ENDBRANCH  16  18
ENDBRANCH   1  16
TORSDOF 10
ENDMDL
MODEL 5
REMARK VINA RESULT:      -6.8      2.784      5.540
REMARK  Name = 
REMARK  13 active torsions:
REMARK  status: ('A' for Active; 'I' for Inactive)
REMARK    1  A    between atoms: C_1  and  C_2
REMARK    2  A    between atoms: C_2  and  C_3
REMARK    3  A    between atoms: C_3  and  C_4
REMARK    4  A    between atoms: C_4  and  N_5
REMARK    5  A    between atoms: N_5  and  C_6
REMARK    6  A    between atoms: N_5  and  C_7
REMARK    7  A    between atoms: C_7  and  C_8
REMARK    8  A    between atoms: C_8  and  N_9
REMARK    9  A    between atoms: C_10  and  C_12
REMARK   10  A    between atoms: C_12  and  C_13
REMARK   11  A    between atoms: C_13  and  N_14
REMARK   12  A    between atoms: C_16  and  C_17
REMARK   13  A    between atoms: C_20  and  C_21
REMARK                            x       y       z     vdW  Elec       q    Type
REMARK                         _______ _______ _______ _____ _____    ______ ____
ROOT
ATOM      1  C   UNL     1       2.459   6.206  20.612  0.00  0.00    +0.000 C 
ENDROOT
BRANCH   1   2
ATOM      2  N   UNL     1       1.977   7.443  19.998  0.00  0.00    +0.000 N 
ATOM      3  N   UNL     1       1.135   8.210  20.772  0.00  0.00    +0.000 NA
ATOM      4  C   UNL     1       0.648   9.293  20.250  0.00  0.00    +0.000 A 
ATOM      5  C   UNL     1       0.920   9.745  18.871  0.00  0.00    +0.000 A 
ATOM      6  C   UNL     1       1.752   8.996  18.145  0.00  0.00    +0.000 A 
ATOM      7  C   UNL     1       2.350   7.768  18.700  0.00  0.00    +0.000 A 
ATOM      8  O   UNL     1       3.112   7.105  17.997  0.00  0.00    +0.000 OA
BRANCH   4   9
ATOM      9  C   UNL     1      -0.237  10.157  21.088  0.00  0.00    +0.000 A 
ATOM     10  C   UNL     1      -0.851  11.267  20.491  0.00  0.00    +0.000 A 
ATOM     11  C   UNL     1      -1.635  12.135  21.253  0.00  0.00    +0.000 A 
ATOM     12  C   UNL     1      -1.807  11.911  22.623  0.00  0.00    +0.000 A 
ATOM     13  C   UNL     1      -2.574  12.881  23.475  0.00  0.00    +0.000 C 
ATOM     14  C   UNL     1      -1.220  10.783  23.212  0.00  0.00    +0.000 A 
ATOM     15  C   UNL     1      -0.434   9.914  22.452  0.00  0.00    +0.000 A 
ENDBRANCH   4   9
ENDBRANCH   1   2
BRANCH   1  16
ATOM     16  C   UNL     1       1.685   4.989  20.114  0.00  0.00    +0.000 C 
BRANCH  16  18
ATOM     17  N   UNL     1       2.989   4.269  18.194  0.00  0.00    +0.000 N 
ATOM     18  C   UNL     1       2.627   3.981  19.494  0.00  0.00    +0.000 C 
ATOM     19  O   UNL     1       2.992   2.963  20.076  0.00  0.00    +0.000 OA
ATOM     20  H   UNL     1       2.861   5.208  17.834  0.00  0.00    +0.000 HD
BRANCH  17  21
ATOM     21  C   UNL     1       3.957   3.437  17.499  0.00  0.00    +0.000 C 
BRANCH  21  22
ATOM     22  C   UNL     1       5.408   3.888  17.737  0.00  0.00    +0.000 C 
BRANCH  22  23
ATOM     23  N   UNL     1       5.892   4.976  16.844  0.00  0.00    +0.000 NA
ATOM     24  C   UNL     1       7.047   4.470  16.084  0.00  0.00    +0.000 C 
BRANCH  23  25
ATOM     25  C   UNL     1       6.256   6.177  17.626  0.00  0.00    +0.000 C 
BRANCH  25  26
ATOM     26  C   UNL     1       7.533   5.995  18.458  0.00  0.00    +0.000 C 
BRANCH  26  28
ATOM     27  C   UNL     1       7.765   8.345  17.618  0.00  0.00    +0.000 C 
ATOM     28  C   UNL     1       8.308   7.307  18.588  0.00  0.00    +0.000 C 
ENDBRANCH  26  28
ENDBRANCH  25  26
ENDBRANCH  23  25
ENDBRANCH  22  23
ENDBRANCH  21  22
ENDBRANCH  17  21
ENDBRANCH  16  18
ENDBRANCH   1  16
TORSDOF 10
ENDMDL
MODEL 6
REMARK VINA RESULT:      -6.8      3.865      6.586
REMARK  Name = 
REMARK  13 active torsions:
REMARK  status: ('A' for Active; 'I' for Inactive)
REMARK    1  A    between atoms: C_1  and  C_2
REMARK    2  A    between atoms: C_2  and  C_3
REMARK    3  A    between atoms: C_3  and  C_4
REMARK    4  A    between atoms: C_4  and  N_5
REMARK    5  A    between atoms: N_5  and  C_6
REMARK    6  A    between atoms: N_5  and  C_7
REMARK    7  A    between atoms: C_7  and  C_8
REMARK    8  A    between atoms: C_8  and  N_9
REMARK    9  A    between atoms: C_10  and  C_12
REMARK   10  A    between atoms: C_12  and  C_13
REMARK   11  A    between atoms: C_13  and  N_14
REMARK   12  A    between atoms: C_16  and  C_17
REMARK   13  A    between atoms: C_20  and  C_21
REMARK                            x       y       z     vdW  Elec       q    Type
REMARK                         _______ _______ _______ _____ _____    ______ ____
ROOT
ATOM      1  C   UNL     1       5.145   4.580  17.114  0.00  0.00    +0.000 C 
ENDROOT
BRANCH   1   2
ATOM      2  N   UNL     1       4.181   4.843  18.182  0.00  0.00    +0.000 N 
ATOM      3  N   UNL     1       3.599   6.091  18.172  0.00  0.00    +0.000 NA
ATOM      4  C   UNL     1       2.771   6.384  19.128  0.00  0.00    +0.000 A 
ATOM      5  C   UNL     1       2.432   5.472  20.238  0.00  0.00    +0.000 A 
ATOM      6  C   UNL     1       2.994   4.262  20.219  0.00  0.00    +0.000 A 
ATOM      7  C   UNL     1       3.923   3.873  19.142  0.00  0.00    +0.000 A 
ATOM      8  O   UNL     1       4.421   2.749  19.161  0.00  0.00    +0.000 OA
BRANCH   4   9
ATOM      9  C   UNL     1       2.102   7.719  19.113  0.00  0.00    +0.000 A 
ATOM     10  C   UNL     1       2.105   8.458  17.922  0.00  0.00    +0.000 A 
ATOM     11  C   UNL     1       1.545   9.736  17.882  0.00  0.00    +0.000 A 
ATOM     12  C   UNL     1       0.984  10.296  19.034  0.00  0.00    +0.000 A 
ATOM     13  C   UNL     1       0.457  11.701  19.033  0.00  0.00    +0.000 C 
ATOM     14  C   UNL     1       0.951   9.543  20.215  0.00  0.00    +0.000 A 
ATOM     15  C   UNL     1       1.512   8.264  20.259  0.00  0.00    +0.000 A 
ENDBRANCH   4   9
ENDBRANCH   1   2
BRANCH   1  16
ATOM     16  C   UNL     1       6.550   5.035  17.496  0.00  0.00    +0.000 C 
BRANCH  16  18
ATOM     17  N   UNL     1       7.536   7.189  18.038  0.00  0.00    +0.000 N 
ATOM     18  C   UNL     1       6.749   6.492  17.144  0.00  0.00    +0.000 C 
ATOM     19  O   UNL     1       6.208   7.026  16.179  0.00  0.00    +0.000 OA
ATOM     20  H   UNL     1       8.139   6.681  18.676  0.00  0.00    +0.000 HD
BRANCH  17  21
ATOM     21  C   UNL     1       7.885   8.575  17.785  0.00  0.00    +0.000 C 
BRANCH  21  22
ATOM     22  C   UNL     1       8.964   9.102  18.747  0.00  0.00    +0.000 C 
BRANCH  22  23
ATOM     23  N   UNL     1       8.961  10.576  18.961  0.00  0.00    +0.000 NA
ATOM     24  C   UNL     1       9.873  11.186  17.978  0.00  0.00    +0.000 C 
BRANCH  23  25
ATOM     25  C   UNL     1       9.370  10.909  20.341  0.00  0.00    +0.000 C 
BRANCH  25  26
ATOM     26  C   UNL     1      10.575  11.857  20.406  0.00  0.00    +0.000 C 
BRANCH  26  28
ATOM     27  C   UNL     1      10.741  14.352  20.237  0.00  0.00    +0.000 C 
ATOM     28  C   UNL     1      10.205  13.190  21.057  0.00  0.00    +0.000 C 
ENDBRANCH  26  28
ENDBRANCH  25  26
ENDBRANCH  23  25
ENDBRANCH  22  23
ENDBRANCH  21  22
ENDBRANCH  17  21
ENDBRANCH  16  18
ENDBRANCH   1  16
TORSDOF 10
ENDMDL
MODEL 7
REMARK VINA RESULT:      -6.8      5.193      8.532
REMARK  Name = 
REMARK  13 active torsions:
REMARK  status: ('A' for Active; 'I' for Inactive)
REMARK    1  A    between atoms: C_1  and  C_2
REMARK    2  A    between atoms: C_2  and  C_3
REMARK    3  A    between atoms: C_3  and  C_4
REMARK    4  A    between atoms: C_4  and  N_5
REMARK    5  A    between atoms: N_5  and  C_6
REMARK    6  A    between atoms: N_5  and  C_7
REMARK    7  A    between atoms: C_7  and  C_8
REMARK    8  A    between atoms: C_8  and  N_9
REMARK    9  A    between atoms: C_10  and  C_12
REMARK   10  A    between atoms: C_12  and  C_13
REMARK   11  A    between atoms: C_13  and  N_14
REMARK   12  A    between atoms: C_16  and  C_17
REMARK   13  A    between atoms: C_20  and  C_21
REMARK                            x       y       z     vdW  Elec       q    Type
REMARK                         _______ _______ _______ _____ _____    ______ ____
ROOT
ATOM      1  C   UNL     1       7.850   6.705  17.818  0.00  0.00    +0.000 C 
ENDROOT
BRANCH   1   2
ATOM      2  N   UNL     1       6.864   5.756  17.302  0.00  0.00    +0.000 N 
ATOM      3  N   UNL     1       5.953   5.278  18.217  0.00  0.00    +0.000 NA
ATOM      4  C   UNL     1       5.088   4.400  17.813  0.00  0.00    +0.000 A 
ATOM      5  C   UNL     1       5.033   3.862  16.439  0.00  0.00    +0.000 A 
ATOM      6  C   UNL     1       5.914   4.351  15.565  0.00  0.00    +0.000 A 
ATOM      7  C   UNL     1       6.902   5.368  15.969  0.00  0.00    +0.000 A 
ATOM      8  O   UNL     1       7.697   5.793  15.132  0.00  0.00    +0.000 OA
BRANCH   4   9
ATOM      9  C   UNL     1       4.068   3.898  18.783  0.00  0.00    +0.000 A 
ATOM     10  C   UNL     1       2.822   4.537  18.835  0.00  0.00    +0.000 A 
ATOM     11  C   UNL     1       1.864   4.139  19.769  0.00  0.00    +0.000 A 
ATOM     12  C   UNL     1       2.143   3.107  20.671  0.00  0.00    +0.000 A 
ATOM     13  C   UNL     1       1.160   2.726  21.738  0.00  0.00    +0.000 C 
ATOM     14  C   UNL     1       3.377   2.448  20.595  0.00  0.00    +0.000 A 
ATOM     15  C   UNL     1       4.338   2.844  19.662  0.00  0.00    +0.000 A 
ENDBRANCH   4   9
ENDBRANCH   1   2
BRANCH   1  16
ATOM     16  C   UNL     1       7.449   8.149  17.534  0.00  0.00    +0.000 C 
BRANCH  16  18
ATOM     17  N   UNL     1       8.411  10.374  17.702  0.00  0.00    +0.000 N 
ATOM     18  C   UNL     1       8.379   9.106  18.246  0.00  0.00    +0.000 C 
ATOM     19  O   UNL     1       9.088   8.770  19.190  0.00  0.00    +0.000 OA
ATOM     20  H   UNL     1       7.663  10.675  17.088  0.00  0.00    +0.000 HD
BRANCH  17  21
ATOM     21  C   UNL     1       9.192  11.424  18.332  0.00  0.00    +0.000 C 
BRANCH  21  22
ATOM     22  C   UNL     1      10.568  11.619  17.672  0.00  0.00    +0.000 C 
BRANCH  22  23
ATOM     23  N   UNL     1      11.504  12.517  18.405  0.00  0.00    +0.000 NA
ATOM     24  C   UNL     1      12.054  11.774  19.551  0.00  0.00    +0.000 C 
BRANCH  23  25
ATOM     25  C   UNL     1      10.814  13.746  18.851  0.00  0.00    +0.000 C 
BRANCH  25  26
ATOM     26  C   UNL     1      11.084  14.094  20.321  0.00  0.00    +0.000 C 
BRANCH  26  28
ATOM     27  C   UNL     1       9.802  15.083  22.234  0.00  0.00    +0.000 C 
ATOM     28  C   UNL     1       9.810  14.006  21.161  0.00  0.00    +0.000 C 
ENDBRANCH  26  28
ENDBRANCH  25  26
ENDBRANCH  23  25
ENDBRANCH  22  23
ENDBRANCH  21  22
ENDBRANCH  17  21
ENDBRANCH  16  18
ENDBRANCH   1  16
TORSDOF 10
ENDMDL
MODEL 8
REMARK VINA RESULT:      -6.7      5.671      8.654
REMARK  Name = 
REMARK  13 active torsions:
REMARK  status: ('A' for Active; 'I' for Inactive)
REMARK    1  A    between atoms: C_1  and  C_2
REMARK    2  A    between atoms: C_2  and  C_3
REMARK    3  A    between atoms: C_3  and  C_4
REMARK    4  A    between atoms: C_4  and  N_5
REMARK    5  A    between atoms: N_5  and  C_6
REMARK    6  A    between atoms: N_5  and  C_7
REMARK    7  A    between atoms: C_7  and  C_8
REMARK    8  A    between atoms: C_8  and  N_9
REMARK    9  A    between atoms: C_10  and  C_12
REMARK   10  A    between atoms: C_12  and  C_13
REMARK   11  A    between atoms: C_13  and  N_14
REMARK   12  A    between atoms: C_16  and  C_17
REMARK   13  A    between atoms: C_20  and  C_21
REMARK                            x       y       z     vdW  Elec       q    Type
REMARK                         _______ _______ _______ _____ _____    ______ ____
ROOT
ATOM      1  C   UNL     1       7.912   7.026  18.154  0.00  0.00    +0.000 C 
ENDROOT
BRANCH   1   2
ATOM      2  N   UNL     1       6.935   6.038  17.702  0.00  0.00    +0.000 N 
ATOM      3  N   UNL     1       6.049   5.589  18.656  0.00  0.00    +0.000 NA
ATOM      4  C   UNL     1       5.193   4.677  18.310  0.00  0.00    +0.000 A 
ATOM      5  C   UNL     1       5.122   4.073  16.965  0.00  0.00    +0.000 A 
ATOM      6  C   UNL     1       5.978   4.535  16.051  0.00  0.00    +0.000 A 
ATOM      7  C   UNL     1       6.955   5.586  16.388  0.00  0.00    +0.000 A 
ATOM      8  O   UNL     1       7.727   5.984  15.518  0.00  0.00    +0.000 OA
BRANCH   4   9
ATOM      9  C   UNL     1       4.200   4.206  19.322  0.00  0.00    +0.000 A 
ATOM     10  C   UNL     1       4.201   2.852  19.683  0.00  0.00    +0.000 A 
ATOM     11  C   UNL     1       3.250   2.358  20.577  0.00  0.00    +0.000 A 
ATOM     12  C   UNL     1       2.278   3.208  21.114  0.00  0.00    +0.000 A 
ATOM     13  C   UNL     1       1.195   2.679  22.007  0.00  0.00    +0.000 C 
ATOM     14  C   UNL     1       2.298   4.569  20.778  0.00  0.00    +0.000 A 
ATOM     15  C   UNL     1       3.248   5.065  19.882  0.00  0.00    +0.000 A 
ENDBRANCH   4   9
ENDBRANCH   1   2
BRANCH   1  16
ATOM     16  C   UNL     1       7.598   8.419  17.618  0.00  0.00    +0.000 C 
BRANCH  16  18
ATOM     17  N   UNL     1       8.449  10.695  17.686  0.00  0.00    +0.000 N 
ATOM     18  C   UNL     1       8.472   9.455  18.291  0.00  0.00    +0.000 C 
ATOM     19  O   UNL     1       9.186   9.200  19.257  0.00  0.00    +0.000 OA
ATOM     20  H   UNL     1       7.694  10.929  17.051  0.00  0.00    +0.000 HD
BRANCH  17  21
ATOM     21  C   UNL     1       9.170  11.811  18.271  0.00  0.00    +0.000 C 
BRANCH  21  22
ATOM     22  C   UNL     1      10.592  11.964  17.704  0.00  0.00    +0.000 C 
BRANCH  22  23
ATOM     23  N   UNL     1      11.328  13.178  18.150  0.00  0.00    +0.000 NA
ATOM     24  C   UNL     1      11.753  12.974  19.544  0.00  0.00    +0.000 C 
BRANCH  23  25
ATOM     25  C   UNL     1      10.482  14.384  18.024  0.00  0.00    +0.000 C 
BRANCH  25  26
ATOM     26  C   UNL     1      10.747  15.428  19.117  0.00  0.00    +0.000 C 
BRANCH  26  28
ATOM     27  C   UNL     1      10.833  16.778  17.006  0.00  0.00    +0.000 C 
ATOM     28  C   UNL     1      10.980  16.816  18.519  0.00  0.00    +0.000 C 
ENDBRANCH  26  28
ENDBRANCH  25  26
ENDBRANCH  23  25
ENDBRANCH  22  23
ENDBRANCH  21  22
ENDBRANCH  17  21
ENDBRANCH  16  18
ENDBRANCH   1  16
TORSDOF 10
ENDMDL
MODEL 9
REMARK VINA RESULT:      -6.7      2.710      5.302
REMARK  Name = 
REMARK  13 active torsions:
REMARK  status: ('A' for Active; 'I' for Inactive)
REMARK    1  A    between atoms: C_1  and  C_2
REMARK    2  A    between atoms: C_2  and  C_3
REMARK    3  A    between atoms: C_3  and  C_4
REMARK    4  A    between atoms: C_4  and  N_5
REMARK    5  A    between atoms: N_5  and  C_6
REMARK    6  A    between atoms: N_5  and  C_7
REMARK    7  A    between atoms: C_7  and  C_8
REMARK    8  A    between atoms: C_8  and  N_9
REMARK    9  A    between atoms: C_10  and  C_12
REMARK   10  A    between atoms: C_12  and  C_13
REMARK   11  A    between atoms: C_13  and  N_14
REMARK   12  A    between atoms: C_16  and  C_17
REMARK   13  A    between atoms: C_20  and  C_21
REMARK                            x       y       z     vdW  Elec       q    Type
REMARK                         _______ _______ _______ _____ _____    ______ ____
ROOT
ATOM      1  C   UNL     1       2.518   6.542  20.204  0.00  0.00    +0.000 C 
ENDROOT
BRANCH   1   2
ATOM      2  N   UNL     1       2.012   7.806  19.670  0.00  0.00    +0.000 N 
ATOM      3  N   UNL     1       1.174   8.517  20.500  0.00  0.00    +0.000 NA
ATOM      4  C   UNL     1       0.666   9.622  20.049  0.00  0.00    +0.000 A 
ATOM      5  C   UNL     1       0.911  10.156  18.695  0.00  0.00    +0.000 A 
ATOM      6  C   UNL     1       1.739   9.460  17.913  0.00  0.00    +0.000 A 
ATOM      7  C   UNL     1       2.360   8.210  18.387  0.00  0.00    +0.000 A 
ATOM      8  O   UNL     1       3.118   7.598  17.636  0.00  0.00    +0.000 OA
BRANCH   4   9
ATOM      9  C   UNL     1      -0.215  10.426  20.949  0.00  0.00    +0.000 A 
ATOM     10  C   UNL     1      -0.306  10.062  22.299  0.00  0.00    +0.000 A 
ATOM     11  C   UNL     1      -1.165  10.747  23.159  0.00  0.00    +0.000 A 
ATOM     12  C   UNL     1      -1.953  11.798  22.679  0.00  0.00    +0.000 A 
ATOM     13  C   UNL     1      -2.946  12.489  23.567  0.00  0.00    +0.000 C 
ATOM     14  C   UNL     1      -1.837  12.183  21.337  0.00  0.00    +0.000 A 
ATOM     15  C   UNL     1      -0.978  11.498  20.473  0.00  0.00    +0.000 A 
ENDBRANCH   4   9
ENDBRANCH   1   2
BRANCH   1  16
ATOM     16  C   UNL     1       2.019   5.347  19.397  0.00  0.00    +0.000 C 
BRANCH  16  18
ATOM     17  N   UNL     1       3.295   4.543  17.492  0.00  0.00    +0.000 N 
ATOM     18  C   UNL     1       3.185   4.543  18.867  0.00  0.00    +0.000 C 
ATOM     19  O   UNL     1       3.935   3.897  19.594  0.00  0.00    +0.000 OA
ATOM     20  H   UNL     1       2.815   5.253  16.951  0.00  0.00    +0.000 HD
BRANCH  17  21
ATOM     21  C   UNL     1       4.415   3.885  16.844  0.00  0.00    +0.000 C 
BRANCH  21  22
ATOM     22  C   UNL     1       4.963   4.683  15.648  0.00  0.00    +0.000 C 
BRANCH  22  23
ATOM     23  N   UNL     1       6.248   5.394  15.892  0.00  0.00    +0.000 NA
ATOM     24  C   UNL     1       7.338   4.405  15.856  0.00  0.00    +0.000 C 
BRANCH  23  25
ATOM     25  C   UNL     1       6.219   6.105  17.188  0.00  0.00    +0.000 C 
BRANCH  25  26
ATOM     26  C   UNL     1       7.272   7.216  17.295  0.00  0.00    +0.000 C 
BRANCH  26  28
ATOM     27  C   UNL     1       7.831   5.738  19.240  0.00  0.00    +0.000 C 
ATOM     28  C   UNL     1       8.111   7.072  18.565  0.00  0.00    +0.000 C 
ENDBRANCH  26  28
ENDBRANCH  25  26
ENDBRANCH  23  25
ENDBRANCH  22  23
ENDBRANCH  21  22
ENDBRANCH  17  21
ENDBRANCH  16  18
ENDBRANCH   1  16
TORSDOF 10
ENDMDL
