MODEL 1
REMARK VINA RESULT:      -5.2      0.000      0.000
REMARK  Name = 
REMARK  11 active torsions:
REMARK  status: ('A' for Active; 'I' for Inactive)
REMARK    1  A    between atoms: C_1  and  C_2
REMARK    2  A    between atoms: C_2  and  C_3
REMARK    3  A    between atoms: C_3  and  C_4
REMARK    4  A    between atoms: C_4  and  P_5
REMARK    5  A    between atoms: P_5  and  O_7
REMARK    6  A    between atoms: P_5  and  C_8
REMARK    7  A    between atoms: C_8  and  C_9
REMARK    8  A    between atoms: C_9  and  C_10
REMARK    9  A    between atoms: C_9  and  O_11
REMARK   10  A    between atoms: C_9  and  C_12
REMARK   11  A    between atoms: C_12  and  N_13
REMARK                            x       y       z     vdW  Elec       q    Type
REMARK                         _______ _______ _______ _____ _____    ______ ____
ROOT
ATOM      1  C   UNL     1       4.366   3.654  17.147  0.00  0.00    +0.000 C 
ENDROOT
BRANCH   1   2
ATOM      2  P   UNL     1       3.082   2.962  18.252  0.00  0.00    +0.000 P 
ATOM      3  O   UNL     1       3.599   1.532  18.147  0.00  0.00    +0.000 OA
BRANCH   2   4
ATOM      4  O   UNL     1       1.961   3.008  17.020  0.00  0.00    +0.000 OA
ATOM      5  H   UNL     1       1.611   2.104  16.868  0.00  0.00    +0.000 HD
ENDBRANCH   2   4
BRANCH   2   6
ATOM      6  C   UNL     1       1.798   2.269  19.357  0.00  0.00    +0.000 C 
BRANCH   6   7
ATOM      7  C   UNL     1       1.172   3.358  20.231  0.00  0.00    +0.000 C 
BRANCH   7   9
ATOM      8  C   UNL     1       1.782   5.783  20.565  0.00  0.00    +0.000 C 
ATOM      9  C   UNL     1       2.218   4.343  20.757  0.00  0.00    +0.000 C 
ENDBRANCH   7   9
ENDBRANCH   6   7
ENDBRANCH   2   6
ENDBRANCH   1   2
BRANCH   1  10
ATOM     10  C   UNL     1       5.552   4.404  17.862  0.00  0.00    +0.000 C 
ATOM     11  C   UNL     1       5.101   5.791  18.343  0.00  0.00    +0.000 C 
BRANCH  10  12
ATOM     12  O   UNL     1       5.894   3.649  19.043  0.00  0.00    +0.000 OA
ATOM     13  H   UNL     1       6.263   4.260  19.699  0.00  0.00    +0.000 HD
ENDBRANCH  10  12
BRANCH  10  14
ATOM     14  C   UNL     1       6.866   4.645  17.033  0.00  0.00    +0.000 C 
BRANCH  14  15
ATOM     15  N   UNL     1       8.089   4.129  17.661  0.00  0.00    +0.000 NA
ATOM     16  H   UNL     1       8.161   3.138  17.432  0.00  0.00    +0.000 HD
ATOM     17  H   UNL     1       7.945   4.146  18.671  0.00  0.00    +0.000 HD
ENDBRANCH  14  15
ENDBRANCH  10  14
ENDBRANCH   1  10
TORSDOF 9
ENDMDL
MODEL 2
REMARK VINA RESULT:      -5.2      2.384      3.296
REMARK  Name = 
REMARK  11 active torsions:
REMARK  status: ('A' for Active; 'I' for Inactive)
REMARK    1  A    between atoms: C_1  and  C_2
REMARK    2  A    between atoms: C_2  and  C_3
REMARK    3  A    between atoms: C_3  and  C_4
REMARK    4  A    between atoms: C_4  and  P_5
REMARK    5  A    between atoms: P_5  and  O_7
REMARK    6  A    between atoms: P_5  and  C_8
REMARK    7  A    between atoms: C_8  and  C_9
REMARK    8  A    between atoms: C_9  and  C_10
REMARK    9  A    between atoms: C_9  and  O_11
REMARK   10  A    between atoms: C_9  and  C_12
REMARK   11  A    between atoms: C_12  and  N_13
REMARK                            x       y       z     vdW  Elec       q    Type
REMARK                         _______ _______ _______ _____ _____    ______ ____
ROOT
ATOM      1  C   UNL     1       6.663   4.544  17.425  0.00  0.00    +0.000 C 
ENDROOT
BRANCH   1   2
ATOM      2  P   UNL     1       5.221   4.757  18.532  0.00  0.00    +0.000 P 
ATOM      3  O   UNL     1       6.021   5.443  19.632  0.00  0.00    +0.000 OA
BRANCH   2   4
ATOM      4  O   UNL     1       5.308   3.159  18.994  0.00  0.00    +0.000 OA
ATOM      5  H   UNL     1       4.586   2.657  18.558  0.00  0.00    +0.000 HD
ENDBRANCH   2   4
BRANCH   2   6
ATOM      6  C   UNL     1       3.779   4.971  19.638  0.00  0.00    +0.000 C 
BRANCH   6   7
ATOM      7  C   UNL     1       2.585   5.562  18.886  0.00  0.00    +0.000 C 
BRANCH   7   9
ATOM      8  C   UNL     1       1.411   3.386  18.385  0.00  0.00    +0.000 C 
ATOM      9  C   UNL     1       2.069   4.620  17.797  0.00  0.00    +0.000 C 
ENDBRANCH   7   9
ENDBRANCH   6   7
ENDBRANCH   2   6
ENDBRANCH   1   2
BRANCH   1  10
ATOM     10  C   UNL     1       6.669   5.438  16.128  0.00  0.00    +0.000 C 
ATOM     11  C   UNL     1       5.277   6.042  15.884  0.00  0.00    +0.000 C 
BRANCH  10  12
ATOM     12  O   UNL     1       7.562   6.546  16.369  0.00  0.00    +0.000 OA
ATOM     13  H   UNL     1       8.456   6.192  16.499  0.00  0.00    +0.000 HD
ENDBRANCH  10  12
BRANCH  10  14
ATOM     14  C   UNL     1       7.083   4.755  14.775  0.00  0.00    +0.000 C 
BRANCH  14  15
ATOM     15  N   UNL     1       6.260   3.598  14.397  0.00  0.00    +0.000 NA
ATOM     16  H   UNL     1       5.578   3.914  13.709  0.00  0.00    +0.000 HD
ATOM     17  H   UNL     1       5.699   3.342  15.210  0.00  0.00    +0.000 HD
ENDBRANCH  14  15
ENDBRANCH  10  14
ENDBRANCH   1  10
TORSDOF 9
ENDMDL
MODEL 3
REMARK VINA RESULT:      -5.1      3.437      5.889
REMARK  Name = 
REMARK  11 active torsions:
REMARK  status: ('A' for Active; 'I' for Inactive)
REMARK    1  A    between atoms: C_1  and  C_2
REMARK    2  A    between atoms: C_2  and  C_3
REMARK    3  A    between atoms: C_3  and  C_4
REMARK    4  A    between atoms: C_4  and  P_5
REMARK    5  A    between atoms: P_5  and  O_7
REMARK    6  A    between atoms: P_5  and  C_8
REMARK    7  A    between atoms: C_8  and  C_9
REMARK    8  A    between atoms: C_9  and  C_10
REMARK    9  A    between atoms: C_9  and  O_11
REMARK   10  A    between atoms: C_9  and  C_12
REMARK   11  A    between atoms: C_12  and  N_13
REMARK                            x       y       z     vdW  Elec       q    Type
REMARK                         _______ _______ _______ _____ _____    ______ ____
ROOT
ATOM      1  C   UNL     1       6.245   5.047  18.330  0.00  0.00    +0.000 C 
ENDROOT
BRANCH   1   2
ATOM      2  P   UNL     1       6.664   4.886  16.556  0.00  0.00    +0.000 P 
ATOM      3  O   UNL     1       8.013   4.227  16.816  0.00  0.00    +0.000 OA
BRANCH   2   4
ATOM      4  O   UNL     1       7.082   6.497  16.482  0.00  0.00    +0.000 OA
ATOM      5  H   UNL     1       6.379   7.033  16.908  0.00  0.00    +0.000 HD
ENDBRANCH   2   4
BRANCH   2   6
ATOM      6  C   UNL     1       7.083   4.724  14.782  0.00  0.00    +0.000 C 
BRANCH   6   7
ATOM      7  C   UNL     1       6.009   3.939  14.027  0.00  0.00    +0.000 C 
BRANCH   7   9
ATOM      8  C   UNL     1       5.293   2.986  11.803  0.00  0.00    +0.000 C 
ATOM      9  C   UNL     1       6.386   3.714  12.561  0.00  0.00    +0.000 C 
ENDBRANCH   7   9
ENDBRANCH   6   7
ENDBRANCH   2   6
ENDBRANCH   1   2
BRANCH   1  10
ATOM     10  C   UNL     1       4.933   4.308  18.793  0.00  0.00    +0.000 C 
ATOM     11  C   UNL     1       4.145   3.796  17.577  0.00  0.00    +0.000 C 
BRANCH  10  12
ATOM     12  O   UNL     1       5.334   3.143  19.544  0.00  0.00    +0.000 OA
ATOM     13  H   UNL     1       6.276   2.984  19.378  0.00  0.00    +0.000 HD
ENDBRANCH  10  12
BRANCH  10  14
ATOM     14  C   UNL     1       3.905   5.123  19.657  0.00  0.00    +0.000 C 
BRANCH  14  15
ATOM     15  N   UNL     1       2.620   4.446  19.882  0.00  0.00    +0.000 NA
ATOM     16  H   UNL     1       2.437   3.855  19.072  0.00  0.00    +0.000 HD
ATOM     17  H   UNL     1       1.889   5.158  19.846  0.00  0.00    +0.000 HD
ENDBRANCH  14  15
ENDBRANCH  10  14
ENDBRANCH   1  10
TORSDOF 9
ENDMDL
MODEL 4
REMARK VINA RESULT:      -5.0      2.238      3.139
REMARK  Name = 
REMARK  11 active torsions:
REMARK  status: ('A' for Active; 'I' for Inactive)
REMARK    1  A    between atoms: C_1  and  C_2
REMARK    2  A    between atoms: C_2  and  C_3
REMARK    3  A    between atoms: C_3  and  C_4
REMARK    4  A    between atoms: C_4  and  P_5
REMARK    5  A    between atoms: P_5  and  O_7
REMARK    6  A    between atoms: P_5  and  C_8
REMARK    7  A    between atoms: C_8  and  C_9
REMARK    8  A    between atoms: C_9  and  C_10
REMARK    9  A    between atoms: C_9  and  O_11
REMARK   10  A    between atoms: C_9  and  C_12
REMARK   11  A    between atoms: C_12  and  N_13
REMARK                            x       y       z     vdW  Elec       q    Type
REMARK                         _______ _______ _______ _____ _____    ______ ____
ROOT
ATOM      1  C   UNL     1       6.615   4.599  17.422  0.00  0.00    +0.000 C 
ENDROOT
BRANCH   1   2
ATOM      2  P   UNL     1       5.204   4.819  18.566  0.00  0.00    +0.000 P 
ATOM      3  O   UNL     1       6.021   5.566  19.613  0.00  0.00    +0.000 OA
BRANCH   2   4
ATOM      4  O   UNL     1       5.348   3.242  19.086  0.00  0.00    +0.000 OA
ATOM      5  H   UNL     1       5.397   2.648  18.307  0.00  0.00    +0.000 HD
ENDBRANCH   2   4
BRANCH   2   6
ATOM      6  C   UNL     1       3.793   5.038  19.711  0.00  0.00    +0.000 C 
BRANCH   6   7
ATOM      7  C   UNL     1       3.015   3.733  19.889  0.00  0.00    +0.000 C 
BRANCH   7   9
ATOM      8  C   UNL     1       1.375   2.741  21.530  0.00  0.00    +0.000 C 
ATOM      9  C   UNL     1       1.715   3.942  20.667  0.00  0.00    +0.000 C 
ENDBRANCH   7   9
ENDBRANCH   6   7
ENDBRANCH   2   6
ENDBRANCH   1   2
BRANCH   1  10
ATOM     10  C   UNL     1       6.621   5.537  16.156  0.00  0.00    +0.000 C 
ATOM     11  C   UNL     1       5.268   6.247  16.005  0.00  0.00    +0.000 C 
BRANCH  10  12
ATOM     12  O   UNL     1       7.605   6.567  16.384  0.00  0.00    +0.000 OA
ATOM     13  H   UNL     1       7.349   7.351  15.872  0.00  0.00    +0.000 HD
ENDBRANCH  10  12
BRANCH  10  14
ATOM     14  C   UNL     1       6.915   4.874  14.761  0.00  0.00    +0.000 C 
BRANCH  14  15
ATOM     15  N   UNL     1       6.325   3.540  14.581  0.00  0.00    +0.000 NA
ATOM     16  H   UNL     1       6.469   3.267  13.610  0.00  0.00    +0.000 HD
ATOM     17  H   UNL     1       5.313   3.640  14.668  0.00  0.00    +0.000 HD
ENDBRANCH  14  15
ENDBRANCH  10  14
ENDBRANCH   1  10
TORSDOF 9
ENDMDL
MODEL 5
REMARK VINA RESULT:      -5.0      1.840      2.372
REMARK  Name = 
REMARK  11 active torsions:
REMARK  status: ('A' for Active; 'I' for Inactive)
REMARK    1  A    between atoms: C_1  and  C_2
REMARK    2  A    between atoms: C_2  and  C_3
REMARK    3  A    between atoms: C_3  and  C_4
REMARK    4  A    between atoms: C_4  and  P_5
REMARK    5  A    between atoms: P_5  and  O_7
REMARK    6  A    between atoms: P_5  and  C_8
REMARK    7  A    between atoms: C_8  and  C_9
REMARK    8  A    between atoms: C_9  and  C_10
REMARK    9  A    between atoms: C_9  and  O_11
REMARK   10  A    between atoms: C_9  and  C_12
REMARK   11  A    between atoms: C_12  and  N_13
REMARK                            x       y       z     vdW  Elec       q    Type
REMARK                         _______ _______ _______ _____ _____    ______ ____
ROOT
ATOM      1  C   UNL     1       5.053   5.613  17.585  0.00  0.00    +0.000 C 
ENDROOT
BRANCH   1   2
ATOM      2  P   UNL     1       3.877   4.223  17.768  0.00  0.00    +0.000 P 
ATOM      3  O   UNL     1       2.649   5.121  17.845  0.00  0.00    +0.000 OA
BRANCH   2   4
ATOM      4  O   UNL     1       4.280   4.061  19.377  0.00  0.00    +0.000 OA
ATOM      5  H   UNL     1       5.064   4.617  19.571  0.00  0.00    +0.000 HD
ENDBRANCH   2   4
BRANCH   2   6
ATOM      6  C   UNL     1       2.702   2.832  17.952  0.00  0.00    +0.000 C 
BRANCH   6   7
ATOM      7  C   UNL     1       1.290   3.336  18.258  0.00  0.00    +0.000 C 
BRANCH   7   9
ATOM      8  C   UNL     1       1.206   3.455  20.777  0.00  0.00    +0.000 C 
ATOM      9  C   UNL     1       0.726   2.720  19.540  0.00  0.00    +0.000 C 
ENDBRANCH   7   9
ENDBRANCH   6   7
ENDBRANCH   2   6
ENDBRANCH   1   2
BRANCH   1  10
ATOM     10  C   UNL     1       6.556   5.210  17.339  0.00  0.00    +0.000 C 
ATOM     11  C   UNL     1       7.474   6.430  17.503  0.00  0.00    +0.000 C 
BRANCH  10  12
ATOM     12  O   UNL     1       6.928   4.272  18.370  0.00  0.00    +0.000 OA
ATOM     13  H   UNL     1       6.587   3.398  18.122  0.00  0.00    +0.000 HD
ENDBRANCH  10  12
BRANCH  10  14
ATOM     14  C   UNL     1       6.922   4.583  15.945  0.00  0.00    +0.000 C 
BRANCH  14  15
ATOM     15  N   UNL     1       7.539   5.520  14.995  0.00  0.00    +0.000 NA
ATOM     16  H   UNL     1       7.189   6.453  15.209  0.00  0.00    +0.000 HD
ATOM     17  H   UNL     1       7.160   5.312  14.071  0.00  0.00    +0.000 HD
ENDBRANCH  14  15
ENDBRANCH  10  14
ENDBRANCH   1  10
TORSDOF 9
ENDMDL
MODEL 6
REMARK VINA RESULT:      -5.0      2.014      2.522
REMARK  Name = 
REMARK  11 active torsions:
REMARK  status: ('A' for Active; 'I' for Inactive)
REMARK    1  A    between atoms: C_1  and  C_2
REMARK    2  A    between atoms: C_2  and  C_3
REMARK    3  A    between atoms: C_3  and  C_4
REMARK    4  A    between atoms: C_4  and  P_5
REMARK    5  A    between atoms: P_5  and  O_7
REMARK    6  A    between atoms: P_5  and  C_8
REMARK    7  A    between atoms: C_8  and  C_9
REMARK    8  A    between atoms: C_9  and  C_10
REMARK    9  A    between atoms: C_9  and  O_11
REMARK   10  A    between atoms: C_9  and  C_12
REMARK   11  A    between atoms: C_12  and  N_13
REMARK                            x       y       z     vdW  Elec       q    Type
REMARK                         _______ _______ _______ _____ _____    ______ ____
ROOT
ATOM      1  C   UNL     1       5.191   5.641  18.715  0.00  0.00    +0.000 C 
ENDROOT
BRANCH   1   2
ATOM      2  P   UNL     1       4.016   4.435  17.997  0.00  0.00    +0.000 P 
ATOM      3  O   UNL     1       4.466   4.677  16.562  0.00  0.00    +0.000 OA
BRANCH   2   4
ATOM      4  O   UNL     1       2.765   5.526  18.149  0.00  0.00    +0.000 OA
ATOM      5  H   UNL     1       2.336   5.406  19.022  0.00  0.00    +0.000 HD
ENDBRANCH   2   4
BRANCH   2   6
ATOM      6  C   UNL     1       2.841   3.229  17.280  0.00  0.00    +0.000 C 
BRANCH   6   7
ATOM      7  C   UNL     1       2.358   2.231  18.334  0.00  0.00    +0.000 C 
BRANCH   7   9
ATOM      8  C   UNL     1       0.918   3.220  20.154  0.00  0.00    +0.000 C 
ATOM      9  C   UNL     1       0.933   2.535  18.801  0.00  0.00    +0.000 C 
ENDBRANCH   7   9
ENDBRANCH   6   7
ENDBRANCH   2   6
ENDBRANCH   1   2
BRANCH   1  10
ATOM     10  C   UNL     1       6.700   5.455  18.302  0.00  0.00    +0.000 C 
ATOM     11  C   UNL     1       7.622   5.708  19.503  0.00  0.00    +0.000 C 
BRANCH  10  12
ATOM     12  O   UNL     1       6.880   4.073  17.927  0.00  0.00    +0.000 OA
ATOM     13  H   UNL     1       7.201   4.045  17.012  0.00  0.00    +0.000 HD
ENDBRANCH  10  12
BRANCH  10  14
ATOM     14  C   UNL     1       7.253   6.357  17.140  0.00  0.00    +0.000 C 
BRANCH  14  15
ATOM     15  N   UNL     1       7.319   5.696  15.829  0.00  0.00    +0.000 NA
ATOM     16  H   UNL     1       7.501   6.414  15.129  0.00  0.00    +0.000 HD
ATOM     17  H   UNL     1       6.381   5.360  15.609  0.00  0.00    +0.000 HD
ENDBRANCH  14  15
ENDBRANCH  10  14
ENDBRANCH   1  10
TORSDOF 9
ENDMDL
MODEL 7
REMARK VINA RESULT:      -5.0      1.946      2.475
REMARK  Name = 
REMARK  11 active torsions:
REMARK  status: ('A' for Active; 'I' for Inactive)
REMARK    1  A    between atoms: C_1  and  C_2
REMARK    2  A    between atoms: C_2  and  C_3
REMARK    3  A    between atoms: C_3  and  C_4
REMARK    4  A    between atoms: C_4  and  P_5
REMARK    5  A    between atoms: P_5  and  O_7
REMARK    6  A    between atoms: P_5  and  C_8
REMARK    7  A    between atoms: C_8  and  C_9
REMARK    8  A    between atoms: C_9  and  C_10
REMARK    9  A    between atoms: C_9  and  O_11
REMARK   10  A    between atoms: C_9  and  C_12
REMARK   11  A    between atoms: C_12  and  N_13
REMARK                            x       y       z     vdW  Elec       q    Type
REMARK                         _______ _______ _______ _____ _____    ______ ____
ROOT
ATOM      1  C   UNL     1       5.325   6.023  17.737  0.00  0.00    +0.000 C 
ENDROOT
BRANCH   1   2
ATOM      2  P   UNL     1       3.782   5.540  18.594  0.00  0.00    +0.000 P 
ATOM      3  O   UNL     1       3.395   4.496  17.554  0.00  0.00    +0.000 OA
BRANCH   2   4
ATOM      4  O   UNL     1       3.007   6.898  18.016  0.00  0.00    +0.000 OA
ATOM      5  H   UNL     1       2.285   7.145  18.633  0.00  0.00    +0.000 HD
ENDBRANCH   2   4
BRANCH   2   6
ATOM      6  C   UNL     1       2.239   5.058  19.451  0.00  0.00    +0.000 C 
BRANCH   6   7
ATOM      7  C   UNL     1       1.506   3.949  18.693  0.00  0.00    +0.000 C 
BRANCH   7   9
ATOM      8  C   UNL     1       1.346   3.096  21.062  0.00  0.00    +0.000 C 
ATOM      9  C   UNL     1       0.838   2.951  19.640  0.00  0.00    +0.000 C 
ENDBRANCH   7   9
ENDBRANCH   6   7
ENDBRANCH   2   6
ENDBRANCH   1   2
BRANCH   1  10
ATOM     10  C   UNL     1       6.553   5.058  17.944  0.00  0.00    +0.000 C 
ATOM     11  C   UNL     1       7.627   5.732  18.810  0.00  0.00    +0.000 C 
BRANCH  10  12
ATOM     12  O   UNL     1       6.084   3.912  18.685  0.00  0.00    +0.000 OA
ATOM     13  H   UNL     1       5.556   4.230  19.433  0.00  0.00    +0.000 HD
ENDBRANCH  10  12
BRANCH  10  14
ATOM     14  C   UNL     1       7.299   4.544  16.659  0.00  0.00    +0.000 C 
BRANCH  14  15
ATOM     15  N   UNL     1       7.332   5.502  15.546  0.00  0.00    +0.000 NA
ATOM     16  H   UNL     1       6.578   6.172  15.691  0.00  0.00    +0.000 HD
ATOM     17  H   UNL     1       7.063   4.997  14.701  0.00  0.00    +0.000 HD
ENDBRANCH  14  15
ENDBRANCH  10  14
ENDBRANCH   1  10
TORSDOF 9
ENDMDL
MODEL 8
REMARK VINA RESULT:      -5.0      2.137      2.631
REMARK  Name = 
REMARK  11 active torsions:
REMARK  status: ('A' for Active; 'I' for Inactive)
REMARK    1  A    between atoms: C_1  and  C_2
REMARK    2  A    between atoms: C_2  and  C_3
REMARK    3  A    between atoms: C_3  and  C_4
REMARK    4  A    between atoms: C_4  and  P_5
REMARK    5  A    between atoms: P_5  and  O_7
REMARK    6  A    between atoms: P_5  and  C_8
REMARK    7  A    between atoms: C_8  and  C_9
REMARK    8  A    between atoms: C_9  and  C_10
REMARK    9  A    between atoms: C_9  and  O_11
REMARK   10  A    between atoms: C_9  and  C_12
REMARK   11  A    between atoms: C_12  and  N_13
REMARK                            x       y       z     vdW  Elec       q    Type
REMARK                         _______ _______ _______ _____ _____    ______ ____
ROOT
ATOM      1  C   UNL     1       6.256   5.067  18.766  0.00  0.00    +0.000 C 
ENDROOT
BRANCH   1   2
ATOM      2  P   UNL     1       4.729   4.143  18.363  0.00  0.00    +0.000 P 
ATOM      3  O   UNL     1       4.911   3.127  19.484  0.00  0.00    +0.000 OA
BRANCH   2   4
ATOM      4  O   UNL     1       5.493   3.385  17.091  0.00  0.00    +0.000 OA
ATOM      5  H   UNL     1       5.646   2.443  17.321  0.00  0.00    +0.000 HD
ENDBRANCH   2   4
BRANCH   2   6
ATOM      6  C   UNL     1       3.201   3.219  17.961  0.00  0.00    +0.000 C 
BRANCH   6   7
ATOM      7  C   UNL     1       1.954   4.060  18.239  0.00  0.00    +0.000 C 
BRANCH   7   9
ATOM      8  C   UNL     1       1.377   4.620  20.630  0.00  0.00    +0.000 C 
ATOM      9  C   UNL     1       1.230   3.610  19.509  0.00  0.00    +0.000 C 
ENDBRANCH   7   9
ENDBRANCH   6   7
ENDBRANCH   2   6
ENDBRANCH   1   2
BRANCH   1  10
ATOM     10  C   UNL     1       6.840   5.962  17.608  0.00  0.00    +0.000 C 
ATOM     11  C   UNL     1       7.796   7.021  18.176  0.00  0.00    +0.000 C 
BRANCH  10  12
ATOM     12  O   UNL     1       7.631   5.107  16.756  0.00  0.00    +0.000 OA
ATOM     13  H   UNL     1       7.229   5.103  15.873  0.00  0.00    +0.000 HD
ENDBRANCH  10  12
BRANCH  10  14
ATOM     14  C   UNL     1       5.817   6.746  16.709  0.00  0.00    +0.000 C 
BRANCH  14  15
ATOM     15  N   UNL     1       5.644   6.197  15.357  0.00  0.00    +0.000 NA
ATOM     16  H   UNL     1       5.050   5.372  15.432  0.00  0.00    +0.000 HD
ATOM     17  H   UNL     1       6.548   5.832  15.057  0.00  0.00    +0.000 HD
ENDBRANCH  14  15
ENDBRANCH  10  14
ENDBRANCH   1  10
TORSDOF 9
ENDMDL
MODEL 9
REMARK VINA RESULT:      -5.0      2.162      2.792
REMARK  Name = 
REMARK  11 active torsions:
REMARK  status: ('A' for Active; 'I' for Inactive)
REMARK    1  A    between atoms: C_1  and  C_2
REMARK    2  A    between atoms: C_2  and  C_3
REMARK    3  A    between atoms: C_3  and  C_4
REMARK    4  A    between atoms: C_4  and  P_5
REMARK    5  A    between atoms: P_5  and  O_7
REMARK    6  A    between atoms: P_5  and  C_8
REMARK    7  A    between atoms: C_8  and  C_9
REMARK    8  A    between atoms: C_9  and  C_10
REMARK    9  A    between atoms: C_9  and  O_11
REMARK   10  A    between atoms: C_9  and  C_12
REMARK   11  A    between atoms: C_12  and  N_13
REMARK                            x       y       z     vdW  Elec       q    Type
REMARK                         _______ _______ _______ _____ _____    ______ ____
ROOT
ATOM      1  C   UNL     1       6.253   5.171  18.708  0.00  0.00    +0.000 C 
ENDROOT
BRANCH   1   2
ATOM      2  P   UNL     1       4.597   4.391  18.699  0.00  0.00    +0.000 P 
ATOM      3  O   UNL     1       4.063   5.241  19.845  0.00  0.00    +0.000 OA
BRANCH   2   4
ATOM      4  O   UNL     1       5.191   3.062  19.509  0.00  0.00    +0.000 OA
ATOM      5  H   UNL     1       4.684   2.266  19.241  0.00  0.00    +0.000 HD
ENDBRANCH   2   4
BRANCH   2   6
ATOM      6  C   UNL     1       2.941   3.612  18.689  0.00  0.00    +0.000 C 
BRANCH   6   7
ATOM      7  C   UNL     1       1.889   4.537  19.302  0.00  0.00    +0.000 C 
BRANCH   7   9
ATOM      8  C   UNL     1       1.617   2.933  21.231  0.00  0.00    +0.000 C 
ATOM      9  C   UNL     1       0.903   3.776  20.191  0.00  0.00    +0.000 C 
ENDBRANCH   7   9
ENDBRANCH   6   7
ENDBRANCH   2   6
ENDBRANCH   1   2
BRANCH   1  10
ATOM     10  C   UNL     1       6.788   5.657  17.309  0.00  0.00    +0.000 C 
ATOM     11  C   UNL     1       7.498   7.013  17.445  0.00  0.00    +0.000 C 
BRANCH  10  12
ATOM     12  O   UNL     1       7.788   4.711  16.875  0.00  0.00    +0.000 OA
ATOM     13  H   UNL     1       8.594   5.201  16.652  0.00  0.00    +0.000 HD
ENDBRANCH  10  12
BRANCH  10  14
ATOM     14  C   UNL     1       5.741   5.835  16.151  0.00  0.00    +0.000 C 
BRANCH  14  15
ATOM     15  N   UNL     1       6.248   5.508  14.811  0.00  0.00    +0.000 NA
ATOM     16  H   UNL     1       7.264   5.574  14.840  0.00  0.00    +0.000 HD
ATOM     17  H   UNL     1       5.962   6.260  14.184  0.00  0.00    +0.000 HD
ENDBRANCH  14  15
ENDBRANCH  10  14
ENDBRANCH   1  10
TORSDOF 9
ENDMDL
