MODEL 1
REMARK VINA RESULT:      -9.1      0.000      0.000
REMARK  Name = 
REMARK  9 active torsions:
REMARK  status: ('A' for Active; 'I' for Inactive)
REMARK    1  A    between atoms: C_1  and  O_2
REMARK    2  A    between atoms: O_2  and  C_3
REMARK    3  A    between atoms: C_6  and  C_7
REMARK    4  A    between atoms: C_7  and  C_8
REMARK    5  A    between atoms: C_17  and  C_18
REMARK    6  A    between atoms: C_21  and  C_22
REMARK    7  A    between atoms: C_24  and  C_25
REMARK    8  A    between atoms: C_31  and  O_32
REMARK    9  A    between atoms: O_32  and  C_33
REMARK                            x       y       z     vdW  Elec       q    Type
REMARK                         _______ _______ _______ _____ _____    ______ ____
ROOT
ATOM      1  C   UNL     1       2.301   3.176  18.745  0.00  0.00    +0.000 C 
ATOM      2  O   UNL     1       1.812   2.215  19.343  0.00  0.00    +0.000 OA
ATOM      3  N   UNL     1       2.113   4.483  19.171  0.00  0.00    +0.000 N 
ATOM      4  C   UNL     1       1.392   4.706  20.436  0.00  0.00    +0.000 C 
ATOM      5  C   UNL     1       1.863   5.993  21.145  0.00  0.00    +0.000 C 
ATOM      6  N   UNL     1       1.781   7.099  20.186  0.00  0.00    +0.000 N 
ATOM      7  C   UNL     1       1.321   8.324  20.605  0.00  0.00    +0.000 A 
ATOM      8  C   UNL     1       0.803   9.239  19.700  0.00  0.00    +0.000 A 
ATOM      9  C   UNL     1       0.216  10.421  20.149  0.00  0.00    +0.000 A 
ATOM     10  C   UNL     1       0.149  10.675  21.509  0.00  0.00    +0.000 A 
ATOM     11  N   UNL     1       0.676   9.785  22.372  0.00  0.00    +0.000 NA
ATOM     12  N   UNL     1       1.259   8.615  21.918  0.00  0.00    +0.000 NA
ATOM     13  C   UNL     1       2.584   6.927  18.976  0.00  0.00    +0.000 C 
ATOM     14  C   UNL     1       2.133   5.642  18.262  0.00  0.00    +0.000 C 
ENDROOT
BRANCH  10  15
ATOM     15  C   UNL     1      -0.558  11.834  22.085  0.00  0.00    +0.000 A 
ATOM     16  C   UNL     1      -1.732  11.613  22.847  0.00  0.00    +0.000 A 
ATOM     17  C   UNL     1      -2.417  12.658  23.469  0.00  0.00    +0.000 A 
ATOM     18  C   UNL     1      -1.948  13.964  23.365  0.00  0.00    +0.000 A 
ATOM     19  C   UNL     1      -2.639  15.093  24.068  0.00  0.00    +0.000 C 
ATOM     20  C   UNL     1      -0.799  14.210  22.606  0.00  0.00    +0.000 A 
ATOM     21  C   UNL     1      -0.105  13.170  21.957  0.00  0.00    +0.000 A 
ATOM     22  C   UNL     1       1.123  13.531  21.160  0.00  0.00    +0.000 C 
ENDBRANCH  10  15
BRANCH   1  23
ATOM     23  C   UNL     1       3.219   2.950  17.553  0.00  0.00    +0.000 C 
BRANCH  23  27
ATOM     24  C   UNL     1       6.751   5.449  17.313  0.00  0.00    +0.000 A 
ATOM     25  C   UNL     1       6.310   4.951  18.552  0.00  0.00    +0.000 A 
ATOM     26  C   UNL     1       5.182   4.140  18.647  0.00  0.00    +0.000 A 
ATOM     27  C   UNL     1       4.456   3.810  17.505  0.00  0.00    +0.000 A 
ATOM     28  C   UNL     1       4.853   4.371  16.281  0.00  0.00    +0.000 A 
ATOM     29  C   UNL     1       5.990   5.188  16.167  0.00  0.00    +0.000 A 
BRANCH  24  31
ATOM     30  C   UNL     1       7.747   7.582  17.591  0.00  0.00    +0.000 C 
ATOM     31  O   UNL     1       7.882   6.215  17.208  0.00  0.00    +0.000 OA
ENDBRANCH  24  31
BRANCH  29  32
ATOM     32  O   UNL     1       6.189   5.602  14.877  0.00  0.00    +0.000 OA
ATOM     33  C   UNL     1       6.688   4.677  13.926  0.00  0.00    +0.000 C 
ENDBRANCH  29  32
ENDBRANCH  23  27
ENDBRANCH   1  23
TORSDOF 5
ENDMDL
MODEL 2
REMARK VINA RESULT:      -9.1      0.878      1.624
REMARK  Name = 
REMARK  9 active torsions:
REMARK  status: ('A' for Active; 'I' for Inactive)
REMARK    1  A    between atoms: C_1  and  O_2
REMARK    2  A    between atoms: O_2  and  C_3
REMARK    3  A    between atoms: C_6  and  C_7
REMARK    4  A    between atoms: C_7  and  C_8
REMARK    5  A    between atoms: C_17  and  C_18
REMARK    6  A    between atoms: C_21  and  C_22
REMARK    7  A    between atoms: C_24  and  C_25
REMARK    8  A    between atoms: C_31  and  O_32
REMARK    9  A    between atoms: O_32  and  C_33
REMARK                            x       y       z     vdW  Elec       q    Type
REMARK                         _______ _______ _______ _____ _____    ______ ____
ROOT
ATOM      1  C   UNL     1       2.678   3.549  18.595  0.00  0.00    +0.000 C 
ATOM      2  O   UNL     1       2.388   2.547  19.253  0.00  0.00    +0.000 OA
ATOM      3  N   UNL     1       2.385   4.831  19.037  0.00  0.00    +0.000 N 
ATOM      4  C   UNL     1       1.805   4.989  20.381  0.00  0.00    +0.000 C 
ATOM      5  C   UNL     1       2.198   6.337  21.022  0.00  0.00    +0.000 C 
ATOM      6  N   UNL     1       1.864   7.406  20.076  0.00  0.00    +0.000 N 
ATOM      7  C   UNL     1       1.312   8.575  20.545  0.00  0.00    +0.000 A 
ATOM      8  C   UNL     1       0.578   9.403  19.709  0.00  0.00    +0.000 A 
ATOM      9  C   UNL     1      -0.089  10.514  20.223  0.00  0.00    +0.000 A 
ATOM     10  C   UNL     1      -0.018  10.783  21.581  0.00  0.00    +0.000 A 
ATOM     11  N   UNL     1       0.716   9.979  22.374  0.00  0.00    +0.000 NA
ATOM     12  N   UNL     1       1.378   8.880  21.855  0.00  0.00    +0.000 NA
ATOM     13  C   UNL     1       2.526   7.311  18.776  0.00  0.00    +0.000 C 
ATOM     14  C   UNL     1       2.152   5.967  18.128  0.00  0.00    +0.000 C 
ENDROOT
BRANCH  10  15
ATOM     15  C   UNL     1      -0.785  11.858  22.237  0.00  0.00    +0.000 A 
ATOM     16  C   UNL     1      -1.948  11.522  22.972  0.00  0.00    +0.000 A 
ATOM     17  C   UNL     1      -2.687  12.481  23.666  0.00  0.00    +0.000 A 
ATOM     18  C   UNL     1      -2.286  13.814  23.661  0.00  0.00    +0.000 A 
ATOM     19  C   UNL     1      -3.036  14.850  24.442  0.00  0.00    +0.000 C 
ATOM     20  C   UNL     1      -1.149  14.174  22.930  0.00  0.00    +0.000 A 
ATOM     21  C   UNL     1      -0.401  13.221  22.211  0.00  0.00    +0.000 A 
ATOM     22  C   UNL     1       0.809  13.703  21.450  0.00  0.00    +0.000 C 
ENDBRANCH  10  15
BRANCH   1  23
ATOM     23  C   UNL     1       3.463   3.414  17.299  0.00  0.00    +0.000 C 
BRANCH  23  27
ATOM     24  C   UNL     1       6.844   6.092  16.881  0.00  0.00    +0.000 A 
ATOM     25  C   UNL     1       5.750   6.178  16.000  0.00  0.00    +0.000 A 
ATOM     26  C   UNL     1       4.652   5.330  16.125  0.00  0.00    +0.000 A 
ATOM     27  C   UNL     1       4.619   4.366  17.129  0.00  0.00    +0.000 A 
ATOM     28  C   UNL     1       5.744   4.232  17.958  0.00  0.00    +0.000 A 
ATOM     29  C   UNL     1       6.858   5.080  17.849  0.00  0.00    +0.000 A 
BRANCH  24  31
ATOM     30  C   UNL     1       7.785   8.177  17.500  0.00  0.00    +0.000 C 
ATOM     31  O   UNL     1       7.909   6.948  16.788  0.00  0.00    +0.000 OA
ENDBRANCH  24  31
BRANCH  29  32
ATOM     32  O   UNL     1       7.821   4.772  18.771  0.00  0.00    +0.000 OA
ATOM     33  C   UNL     1       7.923   5.554  19.949  0.00  0.00    +0.000 C 
ENDBRANCH  29  32
ENDBRANCH  23  27
ENDBRANCH   1  23
TORSDOF 5
ENDMDL
MODEL 3
REMARK VINA RESULT:      -8.6      4.812     11.534
REMARK  Name = 
REMARK  9 active torsions:
REMARK  status: ('A' for Active; 'I' for Inactive)
REMARK    1  A    between atoms: C_1  and  O_2
REMARK    2  A    between atoms: O_2  and  C_3
REMARK    3  A    between atoms: C_6  and  C_7
REMARK    4  A    between atoms: C_7  and  C_8
REMARK    5  A    between atoms: C_17  and  C_18
REMARK    6  A    between atoms: C_21  and  C_22
REMARK    7  A    between atoms: C_24  and  C_25
REMARK    8  A    between atoms: C_31  and  O_32
REMARK    9  A    between atoms: O_32  and  C_33
REMARK                            x       y       z     vdW  Elec       q    Type
REMARK                         _______ _______ _______ _____ _____    ______ ____
ROOT
ATOM      1  C   UNL     1      -1.497  13.982  21.884  0.00  0.00    +0.000 C 
ATOM      2  O   UNL     1      -0.993  14.432  22.916  0.00  0.00    +0.000 OA
ATOM      3  N   UNL     1      -0.983  12.865  21.240  0.00  0.00    +0.000 N 
ATOM      4  C   UNL     1       0.134  12.147  21.875  0.00  0.00    +0.000 C 
ATOM      5  C   UNL     1       0.122  10.644  21.527  0.00  0.00    +0.000 C 
ATOM      6  N   UNL     1       0.055  10.514  20.068  0.00  0.00    +0.000 N 
ATOM      7  C   UNL     1       0.808   9.551  19.440  0.00  0.00    +0.000 A 
ATOM      8  C   UNL     1       1.138   9.664  18.098  0.00  0.00    +0.000 A 
ATOM      9  C   UNL     1       2.012   8.755  17.505  0.00  0.00    +0.000 A 
ATOM     10  C   UNL     1       2.556   7.735  18.269  0.00  0.00    +0.000 A 
ATOM     11  N   UNL     1       2.208   7.628  19.567  0.00  0.00    +0.000 NA
ATOM     12  N   UNL     1       1.337   8.533  20.147  0.00  0.00    +0.000 NA
ATOM     13  C   UNL     1      -1.113  11.134  19.445  0.00  0.00    +0.000 C 
ATOM     14  C   UNL     1      -1.121  12.633  19.792  0.00  0.00    +0.000 C 
ENDROOT
BRANCH  10  15
ATOM     15  C   UNL     1       3.580   6.801  17.767  0.00  0.00    +0.000 A 
ATOM     16  C   UNL     1       4.861   7.302  17.430  0.00  0.00    +0.000 A 
ATOM     17  C   UNL     1       5.894   6.466  17.005  0.00  0.00    +0.000 A 
ATOM     18  C   UNL     1       5.690   5.092  16.912  0.00  0.00    +0.000 A 
ATOM     19  C   UNL     1       6.801   4.171  16.506  0.00  0.00    +0.000 C 
ATOM     20  C   UNL     1       4.429   4.574  17.225  0.00  0.00    +0.000 A 
ATOM     21  C   UNL     1       3.371   5.406  17.639  0.00  0.00    +0.000 A 
ATOM     22  C   UNL     1       2.046   4.757  17.954  0.00  0.00    +0.000 C 
ENDBRANCH  10  15
BRANCH   1  23
ATOM     23  C   UNL     1      -2.776  14.589  21.327  0.00  0.00    +0.000 C 
BRANCH  23  27
ATOM     24  C   UNL     1      -6.325  12.119  21.617  0.00  0.00    +0.000 A 
ATOM     25  C   UNL     1      -5.604  12.198  20.411  0.00  0.00    +0.000 A 
ATOM     26  C   UNL     1      -4.457  12.980  20.303  0.00  0.00    +0.000 A 
ATOM     27  C   UNL     1      -4.002  13.715  21.395  0.00  0.00    +0.000 A 
ATOM     28  C   UNL     1      -4.765  13.695  22.573  0.00  0.00    +0.000 A 
ATOM     29  C   UNL     1      -5.922  12.909  22.701  0.00  0.00    +0.000 A 
BRANCH  24  31
ATOM     30  C   UNL     1      -7.690  10.439  20.652  0.00  0.00    +0.000 C 
ATOM     31  O   UNL     1      -7.431  11.321  21.742  0.00  0.00    +0.000 OA
ENDBRANCH  24  31
BRANCH  29  32
ATOM     32  O   UNL     1      -6.487  13.037  23.941  0.00  0.00    +0.000 OA
ATOM     33  C   UNL     1      -7.532  13.977  24.129  0.00  0.00    +0.000 C 
ENDBRANCH  29  32
ENDBRANCH  23  27
ENDBRANCH   1  23
TORSDOF 5
ENDMDL
MODEL 4
REMARK VINA RESULT:      -8.6      2.130      4.249
REMARK  Name = 
REMARK  9 active torsions:
REMARK  status: ('A' for Active; 'I' for Inactive)
REMARK    1  A    between atoms: C_1  and  O_2
REMARK    2  A    between atoms: O_2  and  C_3
REMARK    3  A    between atoms: C_6  and  C_7
REMARK    4  A    between atoms: C_7  and  C_8
REMARK    5  A    between atoms: C_17  and  C_18
REMARK    6  A    between atoms: C_21  and  C_22
REMARK    7  A    between atoms: C_24  and  C_25
REMARK    8  A    between atoms: C_31  and  O_32
REMARK    9  A    between atoms: O_32  and  C_33
REMARK                            x       y       z     vdW  Elec       q    Type
REMARK                         _______ _______ _______ _____ _____    ______ ____
ROOT
ATOM      1  C   UNL     1       2.375   8.151  18.224  0.00  0.00    +0.000 C 
ATOM      2  O   UNL     1       2.744   8.532  17.111  0.00  0.00    +0.000 OA
ATOM      3  N   UNL     1       1.485   8.883  18.997  0.00  0.00    +0.000 N 
ATOM      4  C   UNL     1       0.893  10.099  18.413  0.00  0.00    +0.000 C 
ATOM      5  C   UNL     1      -0.514  10.381  18.980  0.00  0.00    +0.000 C 
ATOM      6  N   UNL     1      -0.427  10.379  20.443  0.00  0.00    +0.000 N 
ATOM      7  C   UNL     1      -1.127  11.317  21.163  0.00  0.00    +0.000 A 
ATOM      8  C   UNL     1      -0.748  11.656  22.454  0.00  0.00    +0.000 A 
ATOM      9  C   UNL     1      -1.379  12.701  23.125  0.00  0.00    +0.000 A 
ATOM     10  C   UNL     1      -2.389  13.407  22.490  0.00  0.00    +0.000 A 
ATOM     11  N   UNL     1      -2.758  13.052  21.244  0.00  0.00    +0.000 NA
ATOM     12  N   UNL     1      -2.127  12.010  20.586  0.00  0.00    +0.000 NA
ATOM     13  C   UNL     1       0.058   9.132  21.031  0.00  0.00    +0.000 C 
ATOM     14  C   UNL     1       1.458   8.831  20.469  0.00  0.00    +0.000 C 
ENDROOT
BRANCH  10  15
ATOM     15  C   UNL     1      -3.031  14.603  23.067  0.00  0.00    +0.000 A 
ATOM     16  C   UNL     1      -2.392  15.860  22.929  0.00  0.00    +0.000 A 
ATOM     17  C   UNL     1      -2.971  17.039  23.399  0.00  0.00    +0.000 A 
ATOM     18  C   UNL     1      -4.219  17.010  24.015  0.00  0.00    +0.000 A 
ATOM     19  C   UNL     1      -4.882  18.271  24.481  0.00  0.00    +0.000 C 
ATOM     20  C   UNL     1      -4.864  15.779  24.176  0.00  0.00    +0.000 A 
ATOM     21  C   UNL     1      -4.286  14.577  23.723  0.00  0.00    +0.000 A 
ATOM     22  C   UNL     1      -5.055  13.298  23.942  0.00  0.00    +0.000 C 
ENDBRANCH  10  15
BRANCH   1  23
ATOM     23  C   UNL     1       2.816   6.795  18.756  0.00  0.00    +0.000 C 
BRANCH  23  27
ATOM     24  C   UNL     1       5.618   4.644  16.246  0.00  0.00    +0.000 A 
ATOM     25  C   UNL     1       4.385   4.066  16.600  0.00  0.00    +0.000 A 
ATOM     26  C   UNL     1       3.469   4.747  17.399  0.00  0.00    +0.000 A 
ATOM     27  C   UNL     1       3.764   6.022  17.875  0.00  0.00    +0.000 A 
ATOM     28  C   UNL     1       5.026   6.564  17.585  0.00  0.00    +0.000 A 
ATOM     29  C   UNL     1       5.959   5.894  16.778  0.00  0.00    +0.000 A 
BRANCH  24  31
ATOM     30  C   UNL     1       6.134   3.900  14.056  0.00  0.00    +0.000 C 
ATOM     31  O   UNL     1       6.506   3.996  15.429  0.00  0.00    +0.000 OA
ENDBRANCH  24  31
BRANCH  29  32
ATOM     32  O   UNL     1       7.108   6.622  16.619  0.00  0.00    +0.000 OA
ATOM     33  C   UNL     1       7.398   7.660  17.541  0.00  0.00    +0.000 C 
ENDBRANCH  29  32
ENDBRANCH  23  27
ENDBRANCH   1  23
TORSDOF 5
ENDMDL
MODEL 5
REMARK VINA RESULT:      -8.6      0.605      1.301
REMARK  Name = 
REMARK  9 active torsions:
REMARK  status: ('A' for Active; 'I' for Inactive)
REMARK    1  A    between atoms: C_1  and  O_2
REMARK    2  A    between atoms: O_2  and  C_3
REMARK    3  A    between atoms: C_6  and  C_7
REMARK    4  A    between atoms: C_7  and  C_8
REMARK    5  A    between atoms: C_17  and  C_18
REMARK    6  A    between atoms: C_21  and  C_22
REMARK    7  A    between atoms: C_24  and  C_25
REMARK    8  A    between atoms: C_31  and  O_32
REMARK    9  A    between atoms: O_32  and  C_33
REMARK                            x       y       z     vdW  Elec       q    Type
REMARK                         _______ _______ _______ _____ _____    ______ ____
ROOT
ATOM      1  C   UNL     1       2.026   3.049  18.851  0.00  0.00    +0.000 C 
ATOM      2  O   UNL     1       1.457   2.173  19.506  0.00  0.00    +0.000 OA
ATOM      3  N   UNL     1       1.964   4.390  19.204  0.00  0.00    +0.000 N 
ATOM      4  C   UNL     1       1.281   4.750  20.457  0.00  0.00    +0.000 C 
ATOM      5  C   UNL     1       1.876   6.025  21.089  0.00  0.00    +0.000 C 
ATOM      6  N   UNL     1       1.887   7.078  20.069  0.00  0.00    +0.000 N 
ATOM      7  C   UNL     1       1.547   8.363  20.420  0.00  0.00    +0.000 A 
ATOM      8  C   UNL     1       1.106   9.270  19.468  0.00  0.00    +0.000 A 
ATOM      9  C   UNL     1       0.636  10.524  19.851  0.00  0.00    +0.000 A 
ATOM     10  C   UNL     1       0.607  10.860  21.195  0.00  0.00    +0.000 A 
ATOM     11  N   UNL     1       1.058   9.974  22.104  0.00  0.00    +0.000 NA
ATOM     12  N   UNL     1       1.525   8.731  21.715  0.00  0.00    +0.000 NA
ATOM     13  C   UNL     1       2.658   6.765  18.867  0.00  0.00    +0.000 C 
ATOM     14  C   UNL     1       2.083   5.489  18.230  0.00  0.00    +0.000 C 
ENDROOT
BRANCH  10  15
ATOM     15  C   UNL     1       0.016  12.110  21.708  0.00  0.00    +0.000 A 
ATOM     16  C   UNL     1       0.513  13.349  21.234  0.00  0.00    +0.000 A 
ATOM     17  C   UNL     1      -0.038  14.568  21.632  0.00  0.00    +0.000 A 
ATOM     18  C   UNL     1      -1.117  14.595  22.511  0.00  0.00    +0.000 A 
ATOM     19  C   UNL     1      -1.757  15.890  22.911  0.00  0.00    +0.000 C 
ATOM     20  C   UNL     1      -1.617  13.385  23.005  0.00  0.00    +0.000 A 
ATOM     21  C   UNL     1      -1.061  12.147  22.626  0.00  0.00    +0.000 A 
ATOM     22  C   UNL     1      -1.665  10.895  23.211  0.00  0.00    +0.000 C 
ENDBRANCH  10  15
BRANCH   1  23
ATOM     23  C   UNL     1       2.907   2.672  17.670  0.00  0.00    +0.000 C 
BRANCH  23  27
ATOM     24  C   UNL     1       6.512   5.011  17.111  0.00  0.00    +0.000 A 
ATOM     25  C   UNL     1       6.142   4.562  18.392  0.00  0.00    +0.000 A 
ATOM     26  C   UNL     1       4.991   3.803  18.589  0.00  0.00    +0.000 A 
ATOM     27  C   UNL     1       4.171   3.477  17.510  0.00  0.00    +0.000 A 
ATOM     28  C   UNL     1       4.502   3.991  16.246  0.00  0.00    +0.000 A 
ATOM     29  C   UNL     1       5.660   4.755  16.030  0.00  0.00    +0.000 A 
BRANCH  24  31
ATOM     30  C   UNL     1       7.686   7.041  17.452  0.00  0.00    +0.000 C 
ATOM     31  O   UNL     1       7.663   5.725  16.905  0.00  0.00    +0.000 OA
ENDBRANCH  24  31
BRANCH  29  32
ATOM     32  O   UNL     1       5.782   5.128  14.718  0.00  0.00    +0.000 OA
ATOM     33  C   UNL     1       6.490   4.286  13.824  0.00  0.00    +0.000 C 
ENDBRANCH  29  32
ENDBRANCH  23  27
ENDBRANCH   1  23
TORSDOF 5
ENDMDL
MODEL 6
REMARK VINA RESULT:      -8.6      2.104      4.054
REMARK  Name = 
REMARK  9 active torsions:
REMARK  status: ('A' for Active; 'I' for Inactive)
REMARK    1  A    between atoms: C_1  and  O_2
REMARK    2  A    between atoms: O_2  and  C_3
REMARK    3  A    between atoms: C_6  and  C_7
REMARK    4  A    between atoms: C_7  and  C_8
REMARK    5  A    between atoms: C_17  and  C_18
REMARK    6  A    between atoms: C_21  and  C_22
REMARK    7  A    between atoms: C_24  and  C_25
REMARK    8  A    between atoms: C_31  and  O_32
REMARK    9  A    between atoms: O_32  and  C_33
REMARK                            x       y       z     vdW  Elec       q    Type
REMARK                         _______ _______ _______ _____ _____    ______ ____
ROOT
ATOM      1  C   UNL     1       2.345   8.133  18.273  0.00  0.00    +0.000 C 
ATOM      2  O   UNL     1       2.731   8.501  17.161  0.00  0.00    +0.000 OA
ATOM      3  N   UNL     1       1.467   8.889  19.035  0.00  0.00    +0.000 N 
ATOM      4  C   UNL     1       0.908  10.116  18.443  0.00  0.00    +0.000 C 
ATOM      5  C   UNL     1      -0.496  10.434  18.997  0.00  0.00    +0.000 C 
ATOM      6  N   UNL     1      -0.419  10.436  20.461  0.00  0.00    +0.000 N 
ATOM      7  C   UNL     1      -1.103  11.393  21.172  0.00  0.00    +0.000 A 
ATOM      8  C   UNL     1      -0.726  11.728  22.464  0.00  0.00    +0.000 A 
ATOM      9  C   UNL     1      -1.337  12.791  23.126  0.00  0.00    +0.000 A 
ATOM     10  C   UNL     1      -2.324  13.518  22.481  0.00  0.00    +0.000 A 
ATOM     11  N   UNL     1      -2.692  13.166  21.233  0.00  0.00    +0.000 NA
ATOM     12  N   UNL     1      -2.082  12.107  20.584  0.00  0.00    +0.000 NA
ATOM     13  C   UNL     1       0.032   9.180  21.058  0.00  0.00    +0.000 C 
ATOM     14  C   UNL     1       1.428   8.844  20.507  0.00  0.00    +0.000 C 
ENDROOT
BRANCH  10  15
ATOM     15  C   UNL     1      -2.943  14.731  23.048  0.00  0.00    +0.000 A 
ATOM     16  C   UNL     1      -4.150  14.609  23.778  0.00  0.00    +0.000 A 
ATOM     17  C   UNL     1      -4.758  15.705  24.391  0.00  0.00    +0.000 A 
ATOM     18  C   UNL     1      -4.174  16.966  24.309  0.00  0.00    +0.000 A 
ATOM     19  C   UNL     1      -4.783  18.147  25.003  0.00  0.00    +0.000 C 
ATOM     20  C   UNL     1      -2.989  17.116  23.582  0.00  0.00    +0.000 A 
ATOM     21  C   UNL     1      -2.372  16.022  22.943  0.00  0.00    +0.000 A 
ATOM     22  C   UNL     1      -1.096  16.280  22.180  0.00  0.00    +0.000 C 
ENDBRANCH  10  15
BRANCH   1  23
ATOM     23  C   UNL     1       2.751   6.769  18.813  0.00  0.00    +0.000 C 
BRANCH  23  27
ATOM     24  C   UNL     1       5.470   4.517  16.300  0.00  0.00    +0.000 A 
ATOM     25  C   UNL     1       4.243   3.960  16.706  0.00  0.00    +0.000 A 
ATOM     26  C   UNL     1       3.354   4.673  17.507  0.00  0.00    +0.000 A 
ATOM     27  C   UNL     1       3.669   5.961  17.933  0.00  0.00    +0.000 A 
ATOM     28  C   UNL     1       4.926   6.485  17.590  0.00  0.00    +0.000 A 
ATOM     29  C   UNL     1       5.833   5.782  16.781  0.00  0.00    +0.000 A 
BRANCH  24  31
ATOM     30  C   UNL     1       6.106   3.984  14.080  0.00  0.00    +0.000 C 
ATOM     31  O   UNL     1       6.331   3.837  15.480  0.00  0.00    +0.000 OA
ENDBRANCH  24  31
BRANCH  29  32
ATOM     32  O   UNL     1       6.980   6.497  16.567  0.00  0.00    +0.000 OA
ATOM     33  C   UNL     1       7.393   7.445  17.537  0.00  0.00    +0.000 C 
ENDBRANCH  29  32
ENDBRANCH  23  27
ENDBRANCH   1  23
TORSDOF 5
ENDMDL
MODEL 7
REMARK VINA RESULT:      -8.4      4.675     11.611
REMARK  Name = 
REMARK  9 active torsions:
REMARK  status: ('A' for Active; 'I' for Inactive)
REMARK    1  A    between atoms: C_1  and  O_2
REMARK    2  A    between atoms: O_2  and  C_3
REMARK    3  A    between atoms: C_6  and  C_7
REMARK    4  A    between atoms: C_7  and  C_8
REMARK    5  A    between atoms: C_17  and  C_18
REMARK    6  A    between atoms: C_21  and  C_22
REMARK    7  A    between atoms: C_24  and  C_25
REMARK    8  A    between atoms: C_31  and  O_32
REMARK    9  A    between atoms: O_32  and  C_33
REMARK                            x       y       z     vdW  Elec       q    Type
REMARK                         _______ _______ _______ _____ _____    ______ ____
ROOT
ATOM      1  C   UNL     1      -1.009  14.690  21.418  0.00  0.00    +0.000 C 
ATOM      2  O   UNL     1      -0.285  15.329  22.184  0.00  0.00    +0.000 OA
ATOM      3  N   UNL     1      -0.635  13.454  20.909  0.00  0.00    +0.000 N 
ATOM      4  C   UNL     1       0.623  12.856  21.388  0.00  0.00    +0.000 C 
ATOM      5  C   UNL     1       0.570  11.314  21.365  0.00  0.00    +0.000 C 
ATOM      6  N   UNL     1       0.157  10.891  20.023  0.00  0.00    +0.000 N 
ATOM      7  C   UNL     1       0.764   9.804  19.441  0.00  0.00    +0.000 A 
ATOM      8  C   UNL     1       0.756   9.634  18.064  0.00  0.00    +0.000 A 
ATOM      9  C   UNL     1       1.487   8.604  17.475  0.00  0.00    +0.000 A 
ATOM     10  C   UNL     1       2.228   7.750  18.276  0.00  0.00    +0.000 A 
ATOM     11  N   UNL     1       2.206   7.917  19.613  0.00  0.00    +0.000 NA
ATOM     12  N   UNL     1       1.476   8.940  20.190  0.00  0.00    +0.000 NA
ATOM     13  C   UNL     1      -1.144  11.397  19.589  0.00  0.00    +0.000 C 
ATOM     14  C   UNL     1      -1.111  12.934  19.615  0.00  0.00    +0.000 C 
ENDROOT
BRANCH  10  15
ATOM     15  C   UNL     1       3.127   6.710  17.741  0.00  0.00    +0.000 A 
ATOM     16  C   UNL     1       4.342   7.102  17.128  0.00  0.00    +0.000 A 
ATOM     17  C   UNL     1       5.265   6.170  16.653  0.00  0.00    +0.000 A 
ATOM     18  C   UNL     1       5.015   4.806  16.785  0.00  0.00    +0.000 A 
ATOM     19  C   UNL     1       6.017   3.789  16.329  0.00  0.00    +0.000 C 
ATOM     20  C   UNL     1       3.816   4.394  17.374  0.00  0.00    +0.000 A 
ATOM     21  C   UNL     1       2.865   5.322  17.843  0.00  0.00    +0.000 A 
ATOM     22  C   UNL     1       1.600   4.784  18.463  0.00  0.00    +0.000 C 
ENDBRANCH  10  15
BRANCH   1  23
ATOM     23  C   UNL     1      -2.402  15.198  21.076  0.00  0.00    +0.000 C 
BRANCH  23  27
ATOM     24  C   UNL     1      -5.641  13.577  23.454  0.00  0.00    +0.000 A 
ATOM     25  C   UNL     1      -4.838  14.618  23.954  0.00  0.00    +0.000 A 
ATOM     26  C   UNL     1      -3.798  15.157  23.200  0.00  0.00    +0.000 A 
ATOM     27  C   UNL     1      -3.524  14.663  21.927  0.00  0.00    +0.000 A 
ATOM     28  C   UNL     1      -4.277  13.573  21.462  0.00  0.00    +0.000 A 
ATOM     29  C   UNL     1      -5.331  13.021  22.207  0.00  0.00    +0.000 A 
BRANCH  24  31
ATOM     30  C   UNL     1      -7.917  13.790  24.081  0.00  0.00    +0.000 C 
ATOM     31  O   UNL     1      -6.690  13.070  24.175  0.00  0.00    +0.000 OA
ENDBRANCH  24  31
BRANCH  29  32
ATOM     32  O   UNL     1      -5.929  11.982  21.545  0.00  0.00    +0.000 OA
ATOM     33  C   UNL     1      -6.991  12.257  20.647  0.00  0.00    +0.000 C 
ENDBRANCH  29  32
ENDBRANCH  23  27
ENDBRANCH   1  23
TORSDOF 5
ENDMDL
MODEL 8
REMARK VINA RESULT:      -8.4      1.465      1.506
REMARK  Name = 
REMARK  9 active torsions:
REMARK  status: ('A' for Active; 'I' for Inactive)
REMARK    1  A    between atoms: C_1  and  O_2
REMARK    2  A    between atoms: O_2  and  C_3
REMARK    3  A    between atoms: C_6  and  C_7
REMARK    4  A    between atoms: C_7  and  C_8
REMARK    5  A    between atoms: C_17  and  C_18
REMARK    6  A    between atoms: C_21  and  C_22
REMARK    7  A    between atoms: C_24  and  C_25
REMARK    8  A    between atoms: C_31  and  O_32
REMARK    9  A    between atoms: O_32  and  C_33
REMARK                            x       y       z     vdW  Elec       q    Type
REMARK                         _______ _______ _______ _____ _____    ______ ____
ROOT
ATOM      1  C   UNL     1       2.680   3.861  19.176  0.00  0.00    +0.000 C 
ATOM      2  O   UNL     1       2.301   3.032  20.006  0.00  0.00    +0.000 OA
ATOM      3  N   UNL     1       2.335   5.202  19.262  0.00  0.00    +0.000 N 
ATOM      4  C   UNL     1       1.579   5.652  20.443  0.00  0.00    +0.000 C 
ATOM      5  C   UNL     1       1.886   7.122  20.796  0.00  0.00    +0.000 C 
ATOM      6  N   UNL     1       1.686   7.932  19.590  0.00  0.00    +0.000 N 
ATOM      7  C   UNL     1       1.081   9.161  19.695  0.00  0.00    +0.000 A 
ATOM      8  C   UNL     1       0.469   9.752  18.599  0.00  0.00    +0.000 A 
ATOM      9  C   UNL     1      -0.258  10.932  18.746  0.00  0.00    +0.000 A 
ATOM     10  C   UNL     1      -0.370  11.511  19.999  0.00  0.00    +0.000 A 
ATOM     11  N   UNL     1       0.248  10.935  21.049  0.00  0.00    +0.000 NA
ATOM     12  N   UNL     1       0.970   9.765  20.894  0.00  0.00    +0.000 NA
ATOM     13  C   UNL     1       2.518   7.556  18.448  0.00  0.00    +0.000 C 
ATOM     14  C   UNL     1       2.230   6.088  18.090  0.00  0.00    +0.000 C 
ENDROOT
BRANCH  10  15
ATOM     15  C   UNL     1      -1.215  12.688  20.278  0.00  0.00    +0.000 A 
ATOM     16  C   UNL     1      -2.616  12.515  20.395  0.00  0.00    +0.000 A 
ATOM     17  C   UNL     1      -3.468  13.573  20.715  0.00  0.00    +0.000 A 
ATOM     18  C   UNL     1      -2.950  14.845  20.943  0.00  0.00    +0.000 A 
ATOM     19  C   UNL     1      -3.841  15.983  21.338  0.00  0.00    +0.000 C 
ATOM     20  C   UNL     1      -1.571  15.045  20.819  0.00  0.00    +0.000 A 
ATOM     21  C   UNL     1      -0.699  13.991  20.481  0.00  0.00    +0.000 A 
ATOM     22  C   UNL     1       0.772  14.302  20.369  0.00  0.00    +0.000 C 
ENDBRANCH  10  15
BRANCH   1  23
ATOM     23  C   UNL     1       3.632   3.450  18.062  0.00  0.00    +0.000 C 
BRANCH  23  27
ATOM     24  C   UNL     1       6.890   6.170  17.188  0.00  0.00    +0.000 A 
ATOM     25  C   UNL     1       6.536   5.882  18.519  0.00  0.00    +0.000 A 
ATOM     26  C   UNL     1       5.497   5.004  18.818  0.00  0.00    +0.000 A 
ATOM     27  C   UNL     1       4.775   4.395  17.794  0.00  0.00    +0.000 A 
ATOM     28  C   UNL     1       5.080   4.743  16.469  0.00  0.00    +0.000 A 
ATOM     29  C   UNL     1       6.127   5.623  16.149  0.00  0.00    +0.000 A 
BRANCH  24  31
ATOM     30  C   UNL     1       7.988   8.227  17.615  0.00  0.00    +0.000 C 
ATOM     31  O   UNL     1       7.936   7.002  16.887  0.00  0.00    +0.000 OA
ENDBRANCH  24  31
BRANCH  29  32
ATOM     32  O   UNL     1       6.247   5.797  14.797  0.00  0.00    +0.000 OA
ATOM     33  C   UNL     1       6.886   4.793  14.027  0.00  0.00    +0.000 C 
ENDBRANCH  29  32
ENDBRANCH  23  27
ENDBRANCH   1  23
TORSDOF 5
ENDMDL
MODEL 9
REMARK VINA RESULT:      -8.2      4.556     11.062
REMARK  Name = 
REMARK  9 active torsions:
REMARK  status: ('A' for Active; 'I' for Inactive)
REMARK    1  A    between atoms: C_1  and  O_2
REMARK    2  A    between atoms: O_2  and  C_3
REMARK    3  A    between atoms: C_6  and  C_7
REMARK    4  A    between atoms: C_7  and  C_8
REMARK    5  A    between atoms: C_17  and  C_18
REMARK    6  A    between atoms: C_21  and  C_22
REMARK    7  A    between atoms: C_24  and  C_25
REMARK    8  A    between atoms: C_31  and  O_32
REMARK    9  A    between atoms: O_32  and  C_33
REMARK                            x       y       z     vdW  Elec       q    Type
REMARK                         _______ _______ _______ _____ _____    ______ ____
ROOT
ATOM      1  C   UNL     1      -1.551  13.119  22.441  0.00  0.00    +0.000 C 
ATOM      2  O   UNL     1      -1.292  13.203  23.644  0.00  0.00    +0.000 OA
ATOM      3  N   UNL     1      -0.972  12.155  21.628  0.00  0.00    +0.000 N 
ATOM      4  C   UNL     1      -0.102  11.146  22.256  0.00  0.00    +0.000 C 
ATOM      5  C   UNL     1      -0.132   9.807  21.489  0.00  0.00    +0.000 C 
ATOM      6  N   UNL     1       0.161  10.082  20.079  0.00  0.00    +0.000 N 
ATOM      7  C   UNL     1       0.978   9.226  19.380  0.00  0.00    +0.000 A 
ATOM      8  C   UNL     1       1.642   9.647  18.237  0.00  0.00    +0.000 A 
ATOM      9  C   UNL     1       2.570   8.817  17.612  0.00  0.00    +0.000 A 
ATOM     10  C   UNL     1       2.832   7.565  18.145  0.00  0.00    +0.000 A 
ATOM     11  N   UNL     1       2.163   7.165  19.244  0.00  0.00    +0.000 NA
ATOM     12  N   UNL     1       1.240   7.994  19.856  0.00  0.00    +0.000 NA
ATOM     13  C   UNL     1      -0.767  11.001  19.423  0.00  0.00    +0.000 C 
ATOM     14  C   UNL     1      -0.757  12.339  20.182  0.00  0.00    +0.000 C 
ENDROOT
BRANCH  10  15
ATOM     15  C   UNL     1       3.882   6.666  17.630  0.00  0.00    +0.000 A 
ATOM     16  C   UNL     1       5.159   7.201  17.333  0.00  0.00    +0.000 A 
ATOM     17  C   UNL     1       6.214   6.398  16.898  0.00  0.00    +0.000 A 
ATOM     18  C   UNL     1       6.037   5.024  16.756  0.00  0.00    +0.000 A 
ATOM     19  C   UNL     1       7.171   4.137  16.341  0.00  0.00    +0.000 C 
ATOM     20  C   UNL     1       4.780   4.474  17.029  0.00  0.00    +0.000 A 
ATOM     21  C   UNL     1       3.700   5.273  17.452  0.00  0.00    +0.000 A 
ATOM     22  C   UNL     1       2.382   4.591  17.722  0.00  0.00    +0.000 C 
ENDBRANCH  10  15
BRANCH   1  23
ATOM     23  C   UNL     1      -2.604  14.024  21.818  0.00  0.00    +0.000 C 
BRANCH  23  27
ATOM     24  C   UNL     1      -6.491  12.220  21.177  0.00  0.00    +0.000 A 
ATOM     25  C   UNL     1      -6.158  12.778  22.425  0.00  0.00    +0.000 A 
ATOM     26  C   UNL     1      -4.916  13.369  22.646  0.00  0.00    +0.000 A 
ATOM     27  C   UNL     1      -3.967  13.411  21.628  0.00  0.00    +0.000 A 
ATOM     28  C   UNL     1      -4.273  12.786  20.409  0.00  0.00    +0.000 A 
ATOM     29  C   UNL     1      -5.520  12.188  20.168  0.00  0.00    +0.000 A 
BRANCH  24  31
ATOM     30  C   UNL     1      -7.793  10.248  20.987  0.00  0.00    +0.000 C 
ATOM     31  O   UNL     1      -7.724  11.672  20.941  0.00  0.00    +0.000 OA
ENDBRANCH  24  31
BRANCH  29  32
ATOM     32  O   UNL     1      -5.594  11.660  18.907  0.00  0.00    +0.000 OA
ATOM     33  C   UNL     1      -4.420  11.606  18.112  0.00  0.00    +0.000 C 
ENDBRANCH  29  32
ENDBRANCH  23  27
ENDBRANCH   1  23
TORSDOF 5
ENDMDL
