MODEL 1
REMARK VINA RESULT:      -8.8      0.000      0.000
REMARK  Name = 
REMARK  8 active torsions:
REMARK  status: ('A' for Active; 'I' for Inactive)
REMARK    1  A    between atoms: C_1  and  O_2
REMARK    2  A    between atoms: O_2  and  C_3
REMARK    3  A    between atoms: C_9  and  O_10
REMARK    4  A    between atoms: O_10  and  C_11
REMARK    5  A    between atoms: C_14  and  N_15
REMARK    6  A    between atoms: N_18  and  C_19
REMARK    7  A    between atoms: C_32  and  O_33
REMARK    8  A    between atoms: O_33  and  C_34
REMARK                            x       y       z     vdW  Elec       q    Type
REMARK                         _______ _______ _______ _____ _____    ______ ____
ROOT
ATOM      1  C   UNL     1       2.247   7.789  19.364  0.00  0.00    +0.000 A 
ATOM      2  C   UNL     1       2.229   8.148  18.018  0.00  0.00    +0.000 A 
ATOM      3  C   UNL     1       1.356   9.135  17.574  0.00  0.00    +0.000 A 
ATOM      4  C   UNL     1       0.553   9.856  18.452  0.00  0.00    +0.000 A 
ATOM      5  C   UNL     1       0.670   9.594  19.823  0.00  0.00    +0.000 A 
ATOM      6  C   UNL     1       1.527   8.571  20.274  0.00  0.00    +0.000 A 
ATOM      7 CL   UNL     1       1.647   8.293  21.973  0.00  0.00    +0.000 Cl
ENDROOT
BRANCH   4   8
ATOM      8  N   UNL     1      -0.384  10.828  18.002  0.00  0.00    +0.000 N 
ATOM      9  C   UNL     1      -1.735  10.847  18.335  0.00  0.00    +0.000 C 
ATOM     10  O   UNL     1      -2.289  10.024  19.060  0.00  0.00    +0.000 OA
ATOM     11  N   UNL     1      -2.439  11.881  17.735  0.00  0.00    +0.000 N 
ATOM     12  H   UNL     1      -0.039  11.585  17.428  0.00  0.00    +0.000 HD
ATOM     13  H   UNL     1      -2.125  12.121  16.803  0.00  0.00    +0.000 HD
BRANCH  11  14
ATOM     14  C   UNL     1      -3.851  11.935  17.918  0.00  0.00    +0.000 A 
ATOM     15  C   UNL     1      -4.747  11.644  16.879  0.00  0.00    +0.000 A 
ATOM     16  C   UNL     1      -6.114  11.870  17.049  0.00  0.00    +0.000 A 
ATOM     17  C   UNL     1      -6.579  12.385  18.253  0.00  0.00    +0.000 A 
ATOM     18  F   UNL     1      -7.884  12.654  18.394  0.00  0.00    +0.000 F 
ATOM     19  C   UNL     1      -5.711  12.641  19.308  0.00  0.00    +0.000 A 
ATOM     20  C   UNL     1      -4.354  12.391  19.140  0.00  0.00    +0.000 A 
ATOM     21  F   UNL     1      -3.506  12.678  20.139  0.00  0.00    +0.000 F 
ENDBRANCH  11  14
ENDBRANCH   4   8
BRANCH   1  22
ATOM     22  O   UNL     1       2.913   6.645  19.777  0.00  0.00    +0.000 OA
BRANCH  22  29
ATOM     23  C   UNL     1       5.832   4.412  16.229  0.00  0.00    +0.000 A 
ATOM     24  C   UNL     1       4.599   3.746  16.309  0.00  0.00    +0.000 A 
ATOM     25  C   UNL     1       3.609   4.108  17.205  0.00  0.00    +0.000 A 
ATOM     26  N   UNL     1       2.438   3.457  17.125  0.00  0.00    +0.000 NA
ATOM     27  C   UNL     1       1.457   3.803  17.977  0.00  0.00    +0.000 A 
ATOM     28  C   UNL     1       1.591   4.789  18.928  0.00  0.00    +0.000 A 
ATOM     29  C   UNL     1       2.782   5.520  18.962  0.00  0.00    +0.000 A 
ATOM     30  C   UNL     1       3.854   5.148  18.118  0.00  0.00    +0.000 A 
ATOM     31  C   UNL     1       5.131   5.753  18.114  0.00  0.00    +0.000 A 
ATOM     32  C   UNL     1       6.119   5.403  17.176  0.00  0.00    +0.000 A 
BRANCH  23  34
ATOM     33  C   UNL     1       6.248   4.022  13.922  0.00  0.00    +0.000 C 
ATOM     34  O   UNL     1       6.751   4.090  15.264  0.00  0.00    +0.000 OA
ENDBRANCH  23  34
BRANCH  32  35
ATOM     35  O   UNL     1       7.257   6.142  17.338  0.00  0.00    +0.000 OA
ATOM     36  C   UNL     1       7.782   6.374  18.635  0.00  0.00    +0.000 C 
ENDBRANCH  32  35
ENDBRANCH  22  29
ENDBRANCH   1  22
TORSDOF 6
ENDMDL
MODEL 2
REMARK VINA RESULT:      -8.8      0.844      1.181
REMARK  Name = 
REMARK  8 active torsions:
REMARK  status: ('A' for Active; 'I' for Inactive)
REMARK    1  A    between atoms: C_1  and  O_2
REMARK    2  A    between atoms: O_2  and  C_3
REMARK    3  A    between atoms: C_9  and  O_10
REMARK    4  A    between atoms: O_10  and  C_11
REMARK    5  A    between atoms: C_14  and  N_15
REMARK    6  A    between atoms: N_18  and  C_19
REMARK    7  A    between atoms: C_32  and  O_33
REMARK    8  A    between atoms: O_33  and  C_34
REMARK                            x       y       z     vdW  Elec       q    Type
REMARK                         _______ _______ _______ _____ _____    ______ ____
ROOT
ATOM      1  C   UNL     1       2.343   7.796  19.262  0.00  0.00    +0.000 A 
ATOM      2  C   UNL     1       2.351   8.199  17.928  0.00  0.00    +0.000 A 
ATOM      3  C   UNL     1       1.448   9.159  17.488  0.00  0.00    +0.000 A 
ATOM      4  C   UNL     1       0.584   9.812  18.362  0.00  0.00    +0.000 A 
ATOM      5  C   UNL     1       0.669   9.508  19.726  0.00  0.00    +0.000 A 
ATOM      6  C   UNL     1       1.559   8.512  20.173  0.00  0.00    +0.000 A 
ATOM      7 CL   UNL     1       1.637   8.182  21.865  0.00  0.00    +0.000 Cl
ENDROOT
BRANCH   4   8
ATOM      8  N   UNL     1      -0.384  10.754  17.912  0.00  0.00    +0.000 N 
ATOM      9  C   UNL     1      -1.680  10.863  18.407  0.00  0.00    +0.000 C 
ATOM     10  O   UNL     1      -2.152  10.158  19.294  0.00  0.00    +0.000 OA
ATOM     11  N   UNL     1      -2.433  11.840  17.772  0.00  0.00    +0.000 N 
ATOM     12  H   UNL     1      -0.099  11.421  17.207  0.00  0.00    +0.000 HD
ATOM     13  H   UNL     1      -2.238  11.951  16.785  0.00  0.00    +0.000 HD
BRANCH  11  14
ATOM     14  C   UNL     1      -3.808  11.968  18.122  0.00  0.00    +0.000 A 
ATOM     15  C   UNL     1      -4.214  12.474  19.366  0.00  0.00    +0.000 A 
ATOM     16  C   UNL     1      -5.560  12.427  19.737  0.00  0.00    +0.000 A 
ATOM     17  C   UNL     1      -6.492  11.877  18.864  0.00  0.00    +0.000 A 
ATOM     18  F   UNL     1      -7.773  11.781  19.244  0.00  0.00    +0.000 F 
ATOM     19  C   UNL     1      -6.114  11.409  17.611  0.00  0.00    +0.000 A 
ATOM     20  C   UNL     1      -4.776  11.480  17.239  0.00  0.00    +0.000 A 
ATOM     21  F   UNL     1      -4.400  10.990  16.049  0.00  0.00    +0.000 F 
ENDBRANCH  11  14
ENDBRANCH   4   8
BRANCH   1  22
ATOM     22  O   UNL     1       3.050   6.670  19.660  0.00  0.00    +0.000 OA
BRANCH  22  29
ATOM     23  C   UNL     1       5.854   4.284  16.120  0.00  0.00    +0.000 A 
ATOM     24  C   UNL     1       4.613   3.641  16.245  0.00  0.00    +0.000 A 
ATOM     25  C   UNL     1       3.649   4.046  17.151  0.00  0.00    +0.000 A 
ATOM     26  N   UNL     1       2.466   3.413  17.115  0.00  0.00    +0.000 NA
ATOM     27  C   UNL     1       1.510   3.801  17.976  0.00  0.00    +0.000 A 
ATOM     28  C   UNL     1       1.679   4.811  18.895  0.00  0.00    +0.000 A 
ATOM     29  C   UNL     1       2.883   5.524  18.881  0.00  0.00    +0.000 A 
ATOM     30  C   UNL     1       3.931   5.109  18.027  0.00  0.00    +0.000 A 
ATOM     31  C   UNL     1       5.216   5.692  17.977  0.00  0.00    +0.000 A 
ATOM     32  C   UNL     1       6.178   5.298  17.030  0.00  0.00    +0.000 A 
BRANCH  23  34
ATOM     33  C   UNL     1       6.270   4.012  13.795  0.00  0.00    +0.000 C 
ATOM     34  O   UNL     1       6.747   3.918  15.145  0.00  0.00    +0.000 OA
ENDBRANCH  23  34
BRANCH  32  35
ATOM     35  O   UNL     1       7.331   6.023  17.146  0.00  0.00    +0.000 OA
ATOM     36  C   UNL     1       7.721   6.552  18.402  0.00  0.00    +0.000 C 
ENDBRANCH  32  35
ENDBRANCH  22  29
ENDBRANCH   1  22
TORSDOF 6
ENDMDL
MODEL 3
REMARK VINA RESULT:      -8.7      3.077      3.880
REMARK  Name = 
REMARK  8 active torsions:
REMARK  status: ('A' for Active; 'I' for Inactive)
REMARK    1  A    between atoms: C_1  and  O_2
REMARK    2  A    between atoms: O_2  and  C_3
REMARK    3  A    between atoms: C_9  and  O_10
REMARK    4  A    between atoms: O_10  and  C_11
REMARK    5  A    between atoms: C_14  and  N_15
REMARK    6  A    between atoms: N_18  and  C_19
REMARK    7  A    between atoms: C_32  and  O_33
REMARK    8  A    between atoms: O_33  and  C_34
REMARK                            x       y       z     vdW  Elec       q    Type
REMARK                         _______ _______ _______ _____ _____    ______ ____
ROOT
ATOM      1  C   UNL     1       1.979   7.491  20.080  0.00  0.00    +0.000 A 
ATOM      2  C   UNL     1       1.069   7.577  21.131  0.00  0.00    +0.000 A 
ATOM      3  C   UNL     1       0.224   8.677  21.230  0.00  0.00    +0.000 A 
ATOM      4  C   UNL     1       0.188   9.666  20.252  0.00  0.00    +0.000 A 
ATOM      5  C   UNL     1       1.003   9.512  19.124  0.00  0.00    +0.000 A 
ATOM      6  C   UNL     1       1.885   8.418  19.035  0.00  0.00    +0.000 A 
ATOM      7 CL   UNL     1       2.861   8.264  17.621  0.00  0.00    +0.000 Cl
ENDROOT
BRANCH   4   8
ATOM      8  N   UNL     1      -0.631  10.824  20.372  0.00  0.00    +0.000 N 
ATOM      9  C   UNL     1      -0.706  11.635  21.501  0.00  0.00    +0.000 C 
ATOM     10  O   UNL     1      -0.074  11.450  22.538  0.00  0.00    +0.000 OA
ATOM     11  N   UNL     1      -1.608  12.681  21.372  0.00  0.00    +0.000 N 
ATOM     12  H   UNL     1      -1.172  11.104  19.565  0.00  0.00    +0.000 HD
ATOM     13  H   UNL     1      -2.433  12.464  20.827  0.00  0.00    +0.000 HD
BRANCH  11  14
ATOM     14  C   UNL     1      -1.847  13.512  22.505  0.00  0.00    +0.000 A 
ATOM     15  C   UNL     1      -0.938  14.503  22.904  0.00  0.00    +0.000 A 
ATOM     16  C   UNL     1      -1.125  15.180  24.111  0.00  0.00    +0.000 A 
ATOM     17  C   UNL     1      -2.216  14.865  24.911  0.00  0.00    +0.000 A 
ATOM     18  F   UNL     1      -2.363  15.475  26.095  0.00  0.00    +0.000 F 
ATOM     19  C   UNL     1      -3.149  13.915  24.513  0.00  0.00    +0.000 A 
ATOM     20  C   UNL     1      -2.970  13.261  23.299  0.00  0.00    +0.000 A 
ATOM     21  F   UNL     1      -3.843  12.312  22.930  0.00  0.00    +0.000 F 
ENDBRANCH  11  14
ENDBRANCH   4   8
BRANCH   1  22
ATOM     22  O   UNL     1       2.994   6.546  20.105  0.00  0.00    +0.000 OA
BRANCH  22  29
ATOM     23  C   UNL     1       6.012   4.410  16.580  0.00  0.00    +0.000 A 
ATOM     24  C   UNL     1       4.756   3.786  16.561  0.00  0.00    +0.000 A 
ATOM     25  C   UNL     1       3.734   4.133  17.427  0.00  0.00    +0.000 A 
ATOM     26  N   UNL     1       2.547   3.531  17.252  0.00  0.00    +0.000 NA
ATOM     27  C   UNL     1       1.537   3.864  18.074  0.00  0.00    +0.000 A 
ATOM     28  C   UNL     1       1.655   4.789  19.086  0.00  0.00    +0.000 A 
ATOM     29  C   UNL     1       2.867   5.474  19.220  0.00  0.00    +0.000 A 
ATOM     30  C   UNL     1       3.968   5.111  18.410  0.00  0.00    +0.000 A 
ATOM     31  C   UNL     1       5.262   5.669  18.502  0.00  0.00    +0.000 A 
ATOM     32  C   UNL     1       6.285   5.335  17.595  0.00  0.00    +0.000 A 
BRANCH  23  34
ATOM     33  C   UNL     1       6.859   4.808  14.395  0.00  0.00    +0.000 C 
ATOM     34  O   UNL     1       6.968   4.109  15.643  0.00  0.00    +0.000 OA
ENDBRANCH  23  34
BRANCH  32  35
ATOM     35  O   UNL     1       7.437   6.023  17.855  0.00  0.00    +0.000 OA
ATOM     36  C   UNL     1       7.544   7.396  17.516  0.00  0.00    +0.000 C 
ENDBRANCH  32  35
ENDBRANCH  22  29
ENDBRANCH   1  22
TORSDOF 6
ENDMDL
MODEL 4
REMARK VINA RESULT:      -8.6      3.272      4.059
REMARK  Name = 
REMARK  8 active torsions:
REMARK  status: ('A' for Active; 'I' for Inactive)
REMARK    1  A    between atoms: C_1  and  O_2
REMARK    2  A    between atoms: O_2  and  C_3
REMARK    3  A    between atoms: C_9  and  O_10
REMARK    4  A    between atoms: O_10  and  C_11
REMARK    5  A    between atoms: C_14  and  N_15
REMARK    6  A    between atoms: N_18  and  C_19
REMARK    7  A    between atoms: C_32  and  O_33
REMARK    8  A    between atoms: O_33  and  C_34
REMARK                            x       y       z     vdW  Elec       q    Type
REMARK                         _______ _______ _______ _____ _____    ______ ____
ROOT
ATOM      1  C   UNL     1       2.191   7.461  19.801  0.00  0.00    +0.000 A 
ATOM      2  C   UNL     1       1.357   7.484  20.916  0.00  0.00    +0.000 A 
ATOM      3  C   UNL     1       0.473   8.542  21.102  0.00  0.00    +0.000 A 
ATOM      4  C   UNL     1       0.321   9.548  20.152  0.00  0.00    +0.000 A 
ATOM      5  C   UNL     1       1.058   9.454  18.965  0.00  0.00    +0.000 A 
ATOM      6  C   UNL     1       1.979   8.403  18.788  0.00  0.00    +0.000 A 
ATOM      7 CL   UNL     1       2.855   8.323  17.303  0.00  0.00    +0.000 Cl
ENDROOT
BRANCH   4   8
ATOM      8  N   UNL     1      -0.537  10.664  20.358  0.00  0.00    +0.000 N 
ATOM      9  C   UNL     1      -0.229  11.774  21.139  0.00  0.00    +0.000 C 
ATOM     10  O   UNL     1       0.824  11.928  21.751  0.00  0.00    +0.000 OA
ATOM     11  N   UNL     1      -1.254  12.706  21.204  0.00  0.00    +0.000 N 
ATOM     12  H   UNL     1      -1.423  10.672  19.871  0.00  0.00    +0.000 HD
ATOM     13  H   UNL     1      -2.186  12.312  21.198  0.00  0.00    +0.000 HD
BRANCH  11  14
ATOM     14  C   UNL     1      -1.092  13.832  22.062  0.00  0.00    +0.000 A 
ATOM     15  C   UNL     1      -0.330  14.949  21.686  0.00  0.00    +0.000 A 
ATOM     16  C   UNL     1      -0.056  15.955  22.615  0.00  0.00    +0.000 A 
ATOM     17  C   UNL     1      -0.543  15.841  23.912  0.00  0.00    +0.000 A 
ATOM     18  F   UNL     1      -0.231  16.778  24.817  0.00  0.00    +0.000 F 
ATOM     19  C   UNL     1      -1.333  14.762  24.290  0.00  0.00    +0.000 A 
ATOM     20  C   UNL     1      -1.622  13.776  23.354  0.00  0.00    +0.000 A 
ATOM     21  F   UNL     1      -2.347  12.711  23.726  0.00  0.00    +0.000 F 
ENDBRANCH  11  14
ENDBRANCH   4   8
BRANCH   1  22
ATOM     22  O   UNL     1       3.246   6.563  19.730  0.00  0.00    +0.000 OA
BRANCH  22  29
ATOM     23  C   UNL     1       5.889   4.269  16.010  0.00  0.00    +0.000 A 
ATOM     24  C   UNL     1       4.659   3.616  16.181  0.00  0.00    +0.000 A 
ATOM     25  C   UNL     1       3.737   3.996  17.140  0.00  0.00    +0.000 A 
ATOM     26  N   UNL     1       2.557   3.356  17.148  0.00  0.00    +0.000 NA
ATOM     27  C   UNL     1       1.642   3.720  18.063  0.00  0.00    +0.000 A 
ATOM     28  C   UNL     1       1.850   4.712  18.993  0.00  0.00    +0.000 A 
ATOM     29  C   UNL     1       3.048   5.432  18.937  0.00  0.00    +0.000 A 
ATOM     30  C   UNL     1       4.055   5.042  18.025  0.00  0.00    +0.000 A 
ATOM     31  C   UNL     1       5.333   5.634  17.925  0.00  0.00    +0.000 A 
ATOM     32  C   UNL     1       6.251   5.265  16.924  0.00  0.00    +0.000 A 
BRANCH  23  34
ATOM     33  C   UNL     1       6.155   3.916  13.674  0.00  0.00    +0.000 C 
ATOM     34  O   UNL     1       6.736   3.929  14.986  0.00  0.00    +0.000 OA
ENDBRANCH  23  34
BRANCH  32  35
ATOM     35  O   UNL     1       7.404   5.995  17.000  0.00  0.00    +0.000 OA
ATOM     36  C   UNL     1       7.460   7.167  17.797  0.00  0.00    +0.000 C 
ENDBRANCH  32  35
ENDBRANCH  22  29
ENDBRANCH   1  22
TORSDOF 6
ENDMDL
MODEL 5
REMARK VINA RESULT:      -8.4      3.330      4.056
REMARK  Name = 
REMARK  8 active torsions:
REMARK  status: ('A' for Active; 'I' for Inactive)
REMARK    1  A    between atoms: C_1  and  O_2
REMARK    2  A    between atoms: O_2  and  C_3
REMARK    3  A    between atoms: C_9  and  O_10
REMARK    4  A    between atoms: O_10  and  C_11
REMARK    5  A    between atoms: C_14  and  N_15
REMARK    6  A    between atoms: N_18  and  C_19
REMARK    7  A    between atoms: C_32  and  O_33
REMARK    8  A    between atoms: O_33  and  C_34
REMARK                            x       y       z     vdW  Elec       q    Type
REMARK                         _______ _______ _______ _____ _____    ______ ____
ROOT
ATOM      1  C   UNL     1       2.121   7.494  19.890  0.00  0.00    +0.000 A 
ATOM      2  C   UNL     1       1.318   7.489  21.028  0.00  0.00    +0.000 A 
ATOM      3  C   UNL     1       0.431   8.534  21.258  0.00  0.00    +0.000 A 
ATOM      4  C   UNL     1       0.244   9.557  20.332  0.00  0.00    +0.000 A 
ATOM      5  C   UNL     1       0.948   9.492  19.123  0.00  0.00    +0.000 A 
ATOM      6  C   UNL     1       1.873   8.453  18.901  0.00  0.00    +0.000 A 
ATOM      7 CL   UNL     1       2.708   8.409  17.391  0.00  0.00    +0.000 Cl
ENDROOT
BRANCH   4   8
ATOM      8  N   UNL     1      -0.618  10.661  20.583  0.00  0.00    +0.000 N 
ATOM      9  C   UNL     1      -0.246  11.831  21.238  0.00  0.00    +0.000 C 
ATOM     10  O   UNL     1       0.876  12.056  21.685  0.00  0.00    +0.000 OA
ATOM     11  N   UNL     1      -1.286  12.737  21.385  0.00  0.00    +0.000 N 
ATOM     12  H   UNL     1      -1.563  10.611  20.226  0.00  0.00    +0.000 HD
ATOM     13  H   UNL     1      -2.195  12.318  21.536  0.00  0.00    +0.000 HD
BRANCH  11  14
ATOM     14  C   UNL     1      -1.047  13.924  22.136  0.00  0.00    +0.000 A 
ATOM     15  C   UNL     1      -1.265  13.984  23.520  0.00  0.00    +0.000 A 
ATOM     16  C   UNL     1      -1.182  15.207  24.191  0.00  0.00    +0.000 A 
ATOM     17  C   UNL     1      -0.882  16.361  23.476  0.00  0.00    +0.000 A 
ATOM     18  F   UNL     1      -0.859  17.540  24.111  0.00  0.00    +0.000 F 
ATOM     19  C   UNL     1      -0.623  16.314  22.111  0.00  0.00    +0.000 A 
ATOM     20  C   UNL     1      -0.685  15.090  21.455  0.00  0.00    +0.000 A 
ATOM     21  F   UNL     1      -0.480  15.046  20.130  0.00  0.00    +0.000 F 
ENDBRANCH  11  14
ENDBRANCH   4   8
BRANCH   1  22
ATOM     22  O   UNL     1       3.181   6.608  19.773  0.00  0.00    +0.000 OA
BRANCH  22  29
ATOM     23  C   UNL     1       5.866   4.215  16.145  0.00  0.00    +0.000 A 
ATOM     24  C   UNL     1       4.607   3.610  16.271  0.00  0.00    +0.000 A 
ATOM     25  C   UNL     1       3.666   4.025  17.197  0.00  0.00    +0.000 A 
ATOM     26  N   UNL     1       2.463   3.431  17.161  0.00  0.00    +0.000 NA
ATOM     27  C   UNL     1       1.530   3.830  18.043  0.00  0.00    +0.000 A 
ATOM     28  C   UNL     1       1.743   4.813  18.982  0.00  0.00    +0.000 A 
ATOM     29  C   UNL     1       2.969   5.486  18.971  0.00  0.00    +0.000 A 
ATOM     30  C   UNL     1       3.992   5.057  18.094  0.00  0.00    +0.000 A 
ATOM     31  C   UNL     1       5.295   5.600  18.042  0.00  0.00    +0.000 A 
ATOM     32  C   UNL     1       6.234   5.196  17.074  0.00  0.00    +0.000 A 
BRANCH  23  34
ATOM     33  C   UNL     1       6.764   4.695  13.997  0.00  0.00    +0.000 C 
ATOM     34  O   UNL     1       6.736   3.843  15.152  0.00  0.00    +0.000 OA
ENDBRANCH  23  34
BRANCH  32  35
ATOM     35  O   UNL     1       7.411   5.880  17.193  0.00  0.00    +0.000 OA
ATOM     36  C   UNL     1       7.409   7.249  17.567  0.00  0.00    +0.000 C 
ENDBRANCH  32  35
ENDBRANCH  22  29
ENDBRANCH   1  22
TORSDOF 6
ENDMDL
MODEL 6
REMARK VINA RESULT:      -8.4      4.254     11.216
REMARK  Name = 
REMARK  8 active torsions:
REMARK  status: ('A' for Active; 'I' for Inactive)
REMARK    1  A    between atoms: C_1  and  O_2
REMARK    2  A    between atoms: O_2  and  C_3
REMARK    3  A    between atoms: C_9  and  O_10
REMARK    4  A    between atoms: O_10  and  C_11
REMARK    5  A    between atoms: C_14  and  N_15
REMARK    6  A    between atoms: N_18  and  C_19
REMARK    7  A    between atoms: C_32  and  O_33
REMARK    8  A    between atoms: O_33  and  C_34
REMARK                            x       y       z     vdW  Elec       q    Type
REMARK                         _______ _______ _______ _____ _____    ______ ____
ROOT
ATOM      1  C   UNL     1      -0.491  10.978  20.602  0.00  0.00    +0.000 A 
ATOM      2  C   UNL     1       0.101  10.487  19.441  0.00  0.00    +0.000 A 
ATOM      3  C   UNL     1       0.909   9.356  19.498  0.00  0.00    +0.000 A 
ATOM      4  C   UNL     1       1.074   8.630  20.674  0.00  0.00    +0.000 A 
ATOM      5  C   UNL     1       0.368   9.041  21.811  0.00  0.00    +0.000 A 
ATOM      6  C   UNL     1      -0.423  10.205  21.766  0.00  0.00    +0.000 A 
ATOM      7 CL   UNL     1      -1.283  10.666  23.190  0.00  0.00    +0.000 Cl
ENDROOT
BRANCH   4   8
ATOM      8  N   UNL     1       1.943   7.506  20.757  0.00  0.00    +0.000 N 
ATOM      9  C   UNL     1       2.632   6.949  19.684  0.00  0.00    +0.000 C 
ATOM     10  O   UNL     1       2.575   7.358  18.527  0.00  0.00    +0.000 OA
ATOM     11  N   UNL     1       3.384   5.834  20.027  0.00  0.00    +0.000 N 
ATOM     12  H   UNL     1       2.104   7.101  21.670  0.00  0.00    +0.000 HD
ATOM     13  H   UNL     1       2.974   5.252  20.746  0.00  0.00    +0.000 HD
BRANCH  11  14
ATOM     14  C   UNL     1       4.046   5.118  18.989  0.00  0.00    +0.000 A 
ATOM     15  C   UNL     1       5.406   5.310  18.703  0.00  0.00    +0.000 A 
ATOM     16  C   UNL     1       5.976   4.718  17.574  0.00  0.00    +0.000 A 
ATOM     17  C   UNL     1       5.186   3.938  16.738  0.00  0.00    +0.000 A 
ATOM     18  F   UNL     1       5.720   3.417  15.625  0.00  0.00    +0.000 F 
ATOM     19  C   UNL     1       3.847   3.703  17.027  0.00  0.00    +0.000 A 
ATOM     20  C   UNL     1       3.292   4.277  18.165  0.00  0.00    +0.000 A 
ATOM     21  F   UNL     1       1.989   4.090  18.424  0.00  0.00    +0.000 F 
ENDBRANCH  11  14
ENDBRANCH   4   8
BRANCH   1  22
ATOM     22  O   UNL     1      -1.080  12.234  20.613  0.00  0.00    +0.000 OA
BRANCH  22  29
ATOM     23  C   UNL     1      -5.565  13.745  22.537  0.00  0.00    +0.000 A 
ATOM     24  C   UNL     1      -5.758  13.235  21.244  0.00  0.00    +0.000 A 
ATOM     25  C   UNL     1      -4.717  12.773  20.458  0.00  0.00    +0.000 A 
ATOM     26  N   UNL     1      -5.035  12.222  19.276  0.00  0.00    +0.000 NA
ATOM     27  C   UNL     1      -4.040  11.754  18.503  0.00  0.00    +0.000 A 
ATOM     28  C   UNL     1      -2.711  11.811  18.858  0.00  0.00    +0.000 A 
ATOM     29  C   UNL     1      -2.384  12.314  20.122  0.00  0.00    +0.000 A 
ATOM     30  C   UNL     1      -3.398  12.865  20.939  0.00  0.00    +0.000 A 
ATOM     31  C   UNL     1      -3.187  13.473  22.195  0.00  0.00    +0.000 A 
ATOM     32  C   UNL     1      -4.254  13.908  23.003  0.00  0.00    +0.000 A 
BRANCH  23  34
ATOM     33  C   UNL     1      -7.189  13.054  24.129  0.00  0.00    +0.000 C 
ATOM     34  O   UNL     1      -6.629  14.102  23.325  0.00  0.00    +0.000 OA
ENDBRANCH  23  34
BRANCH  32  35
ATOM     35  O   UNL     1      -3.814  14.430  24.187  0.00  0.00    +0.000 OA
ATOM     36  C   UNL     1      -2.424  14.536  24.451  0.00  0.00    +0.000 C 
ENDBRANCH  32  35
ENDBRANCH  22  29
ENDBRANCH   1  22
TORSDOF 6
ENDMDL
MODEL 7
REMARK VINA RESULT:      -8.3      4.263     10.703
REMARK  Name = 
REMARK  8 active torsions:
REMARK  status: ('A' for Active; 'I' for Inactive)
REMARK    1  A    between atoms: C_1  and  O_2
REMARK    2  A    between atoms: O_2  and  C_3
REMARK    3  A    between atoms: C_9  and  O_10
REMARK    4  A    between atoms: O_10  and  C_11
REMARK    5  A    between atoms: C_14  and  N_15
REMARK    6  A    between atoms: N_18  and  C_19
REMARK    7  A    between atoms: C_32  and  O_33
REMARK    8  A    between atoms: O_33  and  C_34
REMARK                            x       y       z     vdW  Elec       q    Type
REMARK                         _______ _______ _______ _____ _____    ______ ____
ROOT
ATOM      1  C   UNL     1      -0.352  11.291  19.863  0.00  0.00    +0.000 A 
ATOM      2  C   UNL     1      -0.902  10.450  20.827  0.00  0.00    +0.000 A 
ATOM      3  C   UNL     1      -0.229   9.294  21.206  0.00  0.00    +0.000 A 
ATOM      4  C   UNL     1       1.038   8.988  20.719  0.00  0.00    +0.000 A 
ATOM      5  C   UNL     1       1.653   9.902  19.854  0.00  0.00    +0.000 A 
ATOM      6  C   UNL     1       0.961  11.057  19.441  0.00  0.00    +0.000 A 
ATOM      7 CL   UNL     1       1.765  12.160  18.384  0.00  0.00    +0.000 Cl
ENDROOT
BRANCH   4   8
ATOM      8  N   UNL     1       1.711   7.780  21.055  0.00  0.00    +0.000 N 
ATOM      9  C   UNL     1       2.021   6.763  20.157  0.00  0.00    +0.000 C 
ATOM     10  O   UNL     1       1.750   6.780  18.960  0.00  0.00    +0.000 OA
ATOM     11  N   UNL     1       2.648   5.675  20.748  0.00  0.00    +0.000 N 
ATOM     12  H   UNL     1       2.023   7.665  22.010  0.00  0.00    +0.000 HD
ATOM     13  H   UNL     1       2.337   5.467  21.689  0.00  0.00    +0.000 HD
BRANCH  11  14
ATOM     14  C   UNL     1       2.915   4.529  19.945  0.00  0.00    +0.000 A 
ATOM     15  C   UNL     1       1.989   3.483  19.811  0.00  0.00    +0.000 A 
ATOM     16  C   UNL     1       2.353   2.306  19.154  0.00  0.00    +0.000 A 
ATOM     17  C   UNL     1       3.636   2.179  18.635  0.00  0.00    +0.000 A 
ATOM     18  F   UNL     1       4.001   1.027  18.055  0.00  0.00    +0.000 F 
ATOM     19  C   UNL     1       4.552   3.220  18.722  0.00  0.00    +0.000 A 
ATOM     20  C   UNL     1       4.176   4.399  19.357  0.00  0.00    +0.000 A 
ATOM     21  F   UNL     1       5.071   5.389  19.483  0.00  0.00    +0.000 F 
ENDBRANCH  11  14
ENDBRANCH   4   8
BRANCH   1  22
ATOM     22  O   UNL     1      -1.116  12.297  19.290  0.00  0.00    +0.000 OA
BRANCH  22  29
ATOM     23  C   UNL     1      -6.197  11.831  19.554  0.00  0.00    +0.000 A 
ATOM     24  C   UNL     1      -5.747  11.361  18.311  0.00  0.00    +0.000 A 
ATOM     25  C   UNL     1      -4.415  11.387  17.937  0.00  0.00    +0.000 A 
ATOM     26  N   UNL     1      -4.094  10.825  16.761  0.00  0.00    +0.000 NA
ATOM     27  C   UNL     1      -2.803  10.827  16.386  0.00  0.00    +0.000 A 
ATOM     28  C   UNL     1      -1.793  11.376  17.143  0.00  0.00    +0.000 A 
ATOM     29  C   UNL     1      -2.115  11.892  18.402  0.00  0.00    +0.000 A 
ATOM     30  C   UNL     1      -3.468  11.956  18.807  0.00  0.00    +0.000 A 
ATOM     31  C   UNL     1      -3.928  12.525  20.015  0.00  0.00    +0.000 A 
ATOM     32  C   UNL     1      -5.279  12.463  20.402  0.00  0.00    +0.000 A 
BRANCH  23  34
ATOM     33  C   UNL     1      -7.758  10.802  21.022  0.00  0.00    +0.000 C 
ATOM     34  O   UNL     1      -7.509  11.699  19.930  0.00  0.00    +0.000 OA
ENDBRANCH  23  34
BRANCH  32  35
ATOM     35  O   UNL     1      -5.484  13.045  21.621  0.00  0.00    +0.000 OA
ATOM     36  C   UNL     1      -5.046  14.372  21.865  0.00  0.00    +0.000 C 
ENDBRANCH  32  35
ENDBRANCH  22  29
ENDBRANCH   1  22
TORSDOF 6
ENDMDL
MODEL 8
REMARK VINA RESULT:      -8.3      2.872      4.296
REMARK  Name = 
REMARK  8 active torsions:
REMARK  status: ('A' for Active; 'I' for Inactive)
REMARK    1  A    between atoms: C_1  and  O_2
REMARK    2  A    between atoms: O_2  and  C_3
REMARK    3  A    between atoms: C_9  and  O_10
REMARK    4  A    between atoms: O_10  and  C_11
REMARK    5  A    between atoms: C_14  and  N_15
REMARK    6  A    between atoms: N_18  and  C_19
REMARK    7  A    between atoms: C_32  and  O_33
REMARK    8  A    between atoms: O_33  and  C_34
REMARK                            x       y       z     vdW  Elec       q    Type
REMARK                         _______ _______ _______ _____ _____    ______ ____
ROOT
ATOM      1  C   UNL     1       0.139  10.647  18.267  0.00  0.00    +0.000 A 
ATOM      2  C   UNL     1      -0.994   9.977  17.811  0.00  0.00    +0.000 A 
ATOM      3  C   UNL     1      -2.252  10.547  17.977  0.00  0.00    +0.000 A 
ATOM      4  C   UNL     1      -2.416  11.823  18.507  0.00  0.00    +0.000 A 
ATOM      5  C   UNL     1      -1.269  12.555  18.838  0.00  0.00    +0.000 A 
ATOM      6  C   UNL     1       0.004  11.970  18.703  0.00  0.00    +0.000 A 
ATOM      7 CL   UNL     1       1.389  12.915  19.113  0.00  0.00    +0.000 Cl
ENDROOT
BRANCH   4   8
ATOM      8  N   UNL     1      -3.701  12.392  18.735  0.00  0.00    +0.000 N 
ATOM      9  C   UNL     1      -4.253  12.638  19.988  0.00  0.00    +0.000 C 
ATOM     10  O   UNL     1      -3.701  12.392  21.057  0.00  0.00    +0.000 OA
ATOM     11  N   UNL     1      -5.536  13.165  19.934  0.00  0.00    +0.000 N 
ATOM     12  H   UNL     1      -4.240  12.675  17.928  0.00  0.00    +0.000 HD
ATOM     13  H   UNL     1      -6.103  12.821  19.169  0.00  0.00    +0.000 HD
BRANCH  11  14
ATOM     14  C   UNL     1      -6.241  13.356  21.157  0.00  0.00    +0.000 A 
ATOM     15  C   UNL     1      -6.127  14.537  21.904  0.00  0.00    +0.000 A 
ATOM     16  C   UNL     1      -6.698  14.621  23.175  0.00  0.00    +0.000 A 
ATOM     17  C   UNL     1      -7.380  13.525  23.693  0.00  0.00    +0.000 A 
ATOM     18  F   UNL     1      -7.879  13.588  24.935  0.00  0.00    +0.000 F 
ATOM     19  C   UNL     1      -7.539  12.361  22.951  0.00  0.00    +0.000 A 
ATOM     20  C   UNL     1      -6.987  12.294  21.676  0.00  0.00    +0.000 A 
ATOM     21  F   UNL     1      -7.099  11.157  20.974  0.00  0.00    +0.000 F 
ENDBRANCH  11  14
ENDBRANCH   4   8
BRANCH   1  22
ATOM     22  O   UNL     1       1.359   9.992  18.344  0.00  0.00    +0.000 OA
BRANCH  22  29
ATOM     23  C   UNL     1       3.629   5.422  18.593  0.00  0.00    +0.000 A 
ATOM     24  C   UNL     1       2.909   5.652  19.775  0.00  0.00    +0.000 A 
ATOM     25  C   UNL     1       2.211   6.823  20.010  0.00  0.00    +0.000 A 
ATOM     26  N   UNL     1       1.483   6.891  21.136  0.00  0.00    +0.000 NA
ATOM     27  C   UNL     1       0.786   8.015  21.377  0.00  0.00    +0.000 A 
ATOM     28  C   UNL     1       0.779   9.100  20.531  0.00  0.00    +0.000 A 
ATOM     29  C   UNL     1       1.473   9.002  19.321  0.00  0.00    +0.000 A 
ATOM     30  C   UNL     1       2.261   7.858  19.059  0.00  0.00    +0.000 A 
ATOM     31  C   UNL     1       3.069   7.674  17.915  0.00  0.00    +0.000 A 
ATOM     32  C   UNL     1       3.748   6.466  17.667  0.00  0.00    +0.000 A 
BRANCH  23  34
ATOM     33  C   UNL     1       3.440   3.261  17.620  0.00  0.00    +0.000 C 
ATOM     34  O   UNL     1       4.228   4.212  18.351  0.00  0.00    +0.000 OA
ENDBRANCH  23  34
BRANCH  32  35
ATOM     35  O   UNL     1       4.435   6.504  16.487  0.00  0.00    +0.000 OA
ATOM     36  C   UNL     1       5.845   6.657  16.483  0.00  0.00    +0.000 C 
ENDBRANCH  32  35
ENDBRANCH  22  29
ENDBRANCH   1  22
TORSDOF 6
ENDMDL
MODEL 9
REMARK VINA RESULT:      -8.2      3.989     10.660
REMARK  Name = 
REMARK  8 active torsions:
REMARK  status: ('A' for Active; 'I' for Inactive)
REMARK    1  A    between atoms: C_1  and  O_2
REMARK    2  A    between atoms: O_2  and  C_3
REMARK    3  A    between atoms: C_9  and  O_10
REMARK    4  A    between atoms: O_10  and  C_11
REMARK    5  A    between atoms: C_14  and  N_15
REMARK    6  A    between atoms: N_18  and  C_19
REMARK    7  A    between atoms: C_32  and  O_33
REMARK    8  A    between atoms: O_33  and  C_34
REMARK                            x       y       z     vdW  Elec       q    Type
REMARK                         _______ _______ _______ _____ _____    ______ ____
ROOT
ATOM      1  C   UNL     1      -0.226  11.214  19.494  0.00  0.00    +0.000 A 
ATOM      2  C   UNL     1      -0.867  10.414  20.438  0.00  0.00    +0.000 A 
ATOM      3  C   UNL     1      -0.240   9.270  20.919  0.00  0.00    +0.000 A 
ATOM      4  C   UNL     1       1.062   8.938  20.558  0.00  0.00    +0.000 A 
ATOM      5  C   UNL     1       1.760   9.814  19.717  0.00  0.00    +0.000 A 
ATOM      6  C   UNL     1       1.118  10.956  19.200  0.00  0.00    +0.000 A 
ATOM      7 CL   UNL     1       2.022  12.012  18.177  0.00  0.00    +0.000 Cl
ENDROOT
BRANCH   4   8
ATOM      8  N   UNL     1       1.692   7.740  20.999  0.00  0.00    +0.000 N 
ATOM      9  C   UNL     1       2.054   6.679  20.175  0.00  0.00    +0.000 C 
ATOM     10  O   UNL     1       1.873   6.643  18.961  0.00  0.00    +0.000 OA
ATOM     11  N   UNL     1       2.619   5.614  20.861  0.00  0.00    +0.000 N 
ATOM     12  H   UNL     1       1.930   7.667  21.979  0.00  0.00    +0.000 HD
ATOM     13  H   UNL     1       2.237   5.453  21.784  0.00  0.00    +0.000 HD
BRANCH  11  14
ATOM     14  C   UNL     1       2.930   4.429  20.133  0.00  0.00    +0.000 A 
ATOM     15  C   UNL     1       4.132   4.285  19.426  0.00  0.00    +0.000 A 
ATOM     16  C   UNL     1       4.327   3.182  18.591  0.00  0.00    +0.000 A 
ATOM     17  C   UNL     1       3.321   2.231  18.467  0.00  0.00    +0.000 A 
ATOM     18  F   UNL     1       3.487   1.205  17.622  0.00  0.00    +0.000 F 
ATOM     19  C   UNL     1       2.140   2.336  19.191  0.00  0.00    +0.000 A 
ATOM     20  C   UNL     1       1.962   3.424  20.039  0.00  0.00    +0.000 A 
ATOM     21  F   UNL     1       0.806   3.553  20.706  0.00  0.00    +0.000 F 
ENDBRANCH  11  14
ENDBRANCH   4   8
BRANCH   1  22
ATOM     22  O   UNL     1      -0.927  12.201  18.818  0.00  0.00    +0.000 OA
BRANCH  22  29
ATOM     23  C   UNL     1      -5.787  12.295  20.388  0.00  0.00    +0.000 A 
ATOM     24  C   UNL     1      -5.712  11.671  19.134  0.00  0.00    +0.000 A 
ATOM     25  C   UNL     1      -4.524  11.523  18.441  0.00  0.00    +0.000 A 
ATOM     26  N   UNL     1      -4.562  10.827  17.294  0.00  0.00    +0.000 NA
ATOM     27  C   UNL     1      -3.416  10.660  16.612  0.00  0.00    +0.000 A 
ATOM     28  C   UNL     1      -2.205  11.166  17.026  0.00  0.00    +0.000 A 
ATOM     29  C   UNL     1      -2.149  11.824  18.258  0.00  0.00    +0.000 A 
ATOM     30  C   UNL     1      -3.343  12.066  18.976  0.00  0.00    +0.000 A 
ATOM     31  C   UNL     1      -3.429  12.787  20.188  0.00  0.00    +0.000 A 
ATOM     32  C   UNL     1      -4.635  12.902  20.904  0.00  0.00    +0.000 A 
BRANCH  23  34
ATOM     33  C   UNL     1      -7.833  13.438  20.789  0.00  0.00    +0.000 C 
ATOM     34  O   UNL     1      -6.964  12.336  21.091  0.00  0.00    +0.000 OA
ENDBRANCH  23  34
BRANCH  32  35
ATOM     35  O   UNL     1      -4.472  13.610  22.061  0.00  0.00    +0.000 OA
ATOM     36  C   UNL     1      -4.204  12.938  23.281  0.00  0.00    +0.000 C 
ENDBRANCH  32  35
ENDBRANCH  22  29
ENDBRANCH   1  22
TORSDOF 6
ENDMDL
