MODEL 1
REMARK VINA RESULT:      -9.0      0.000      0.000
REMARK  Name = 
REMARK  10 active torsions:
REMARK  status: ('A' for Active; 'I' for Inactive)
REMARK    1  A    between atoms: C_1  and  O_2
REMARK    2  A    between atoms: O_2  and  C_3
REMARK    3  A    between atoms: C_3  and  C_5
REMARK    4  A    between atoms: N_13  and  C_14
REMARK    5  A    between atoms: C_14  and  C_15
REMARK    6  A    between atoms: C_15  and  C_16
REMARK    7  A    between atoms: C_16  and  S_17
REMARK    8  A    between atoms: S_17  and  N_20
REMARK    9  A    between atoms: C_22  and  C_23
REMARK   10  A    between atoms: C_25  and  C_26
REMARK                            x       y       z     vdW  Elec       q    Type
REMARK                         _______ _______ _______ _____ _____    ______ ____
ROOT
ATOM      1  C   UNL     1       5.428   5.257  15.704  0.00  0.00    +0.000 A 
ATOM      2  C   UNL     1       5.420   6.553  16.207  0.00  0.00    +0.000 A 
ATOM      3  C   UNL     1       4.595   6.902  17.278  0.00  0.00    +0.000 A 
ATOM      4  C   UNL     1       3.758   5.932  17.860  0.00  0.00    +0.000 A 
ATOM      5  C   UNL     1       3.764   4.619  17.364  0.00  0.00    +0.000 A 
ATOM      6  C   UNL     1       4.601   4.285  16.279  0.00  0.00    +0.000 A 
ATOM      7  C   UNL     1       2.843   3.869  18.132  0.00  0.00    +0.000 A 
ATOM      8  C   UNL     1       2.267   4.724  19.050  0.00  0.00    +0.000 A 
ATOM      9  N   UNL     1       2.839   5.974  18.901  0.00  0.00    +0.000 N 
ATOM     10  C   UNL     1       1.217   4.331  20.044  0.00  0.00    +0.000 C 
ATOM     11  C   UNL     1       0.620   2.956  19.677  0.00  0.00    +0.000 C 
ATOM     12  C   UNL     1       1.705   1.949  19.259  0.00  0.00    +0.000 C 
ATOM     13  C   UNL     1       2.467   2.429  18.013  0.00  0.00    +0.000 C 
ENDROOT
BRANCH   1  14
ATOM     14  C   UNL     1       6.296   4.859  14.567  0.00  0.00    +0.000 C 
ATOM     15  O   UNL     1       7.461   5.201  14.447  0.00  0.00    +0.000 OA
BRANCH  14  17
ATOM     16  C   UNL     1       6.384   3.580  12.616  0.00  0.00    +0.000 C 
ATOM     17  O   UNL     1       5.601   4.083  13.696  0.00  0.00    +0.000 OA
ENDBRANCH  14  17
ENDBRANCH   1  14
BRANCH   9  18
ATOM     18  C   UNL     1       2.433   7.107  19.731  0.00  0.00    +0.000 C 
BRANCH  18  19
ATOM     19  C   UNL     1       1.917   8.366  19.032  0.00  0.00    +0.000 C 
BRANCH  19  20
ATOM     20  C   UNL     1       0.969   9.224  19.862  0.00  0.00    +0.000 C 
BRANCH  20  21
ATOM     21  S   UNL     1       0.367  10.623  18.926  0.00  0.00    +0.000 S 
ATOM     22  O   UNL     1       1.488  11.485  18.619  0.00  0.00    +0.000 OA
ATOM     23  O   UNL     1      -0.503  10.129  17.880  0.00  0.00    +0.000 OA
BRANCH  21  24
ATOM     24  N   UNL     1      -0.620  11.453  20.036  0.00  0.00    +0.000 NA
ATOM     25  C   UNL     1       0.155  11.763  21.287  0.00  0.00    +0.000 C 
ATOM     26  C   UNL     1      -0.740  12.401  22.353  0.00  0.00    +0.000 C 
ATOM     27  C   UNL     1      -1.592  11.376  23.094  0.00  0.00    +0.000 C 
ATOM     28  O   UNL     1      -1.507  13.513  21.870  0.00  0.00    +0.000 OA
ATOM     29  C   UNL     1      -2.137  13.353  20.592  0.00  0.00    +0.000 C 
ATOM     30  C   UNL     1      -3.490  12.658  20.699  0.00  0.00    +0.000 C 
ATOM     31  C   UNL     1      -1.221  12.724  19.529  0.00  0.00    +0.000 C 
ENDBRANCH  21  24
ENDBRANCH  20  21
ENDBRANCH  19  20
ENDBRANCH  18  19
ENDBRANCH   9  18
TORSDOF 7
ENDMDL
MODEL 2
REMARK VINA RESULT:      -8.9      1.501      2.041
REMARK  Name = 
REMARK  10 active torsions:
REMARK  status: ('A' for Active; 'I' for Inactive)
REMARK    1  A    between atoms: C_1  and  O_2
REMARK    2  A    between atoms: O_2  and  C_3
REMARK    3  A    between atoms: C_3  and  C_5
REMARK    4  A    between atoms: N_13  and  C_14
REMARK    5  A    between atoms: C_14  and  C_15
REMARK    6  A    between atoms: C_15  and  C_16
REMARK    7  A    between atoms: C_16  and  S_17
REMARK    8  A    between atoms: S_17  and  N_20
REMARK    9  A    between atoms: C_22  and  C_23
REMARK   10  A    between atoms: C_25  and  C_26
REMARK                            x       y       z     vdW  Elec       q    Type
REMARK                         _______ _______ _______ _____ _____    ______ ____
ROOT
ATOM      1  C   UNL     1       5.653   5.139  15.628  0.00  0.00    +0.000 A 
ATOM      2  C   UNL     1       5.638   6.424  16.158  0.00  0.00    +0.000 A 
ATOM      3  C   UNL     1       4.792   6.754  17.217  0.00  0.00    +0.000 A 
ATOM      4  C   UNL     1       3.941   5.775  17.762  0.00  0.00    +0.000 A 
ATOM      5  C   UNL     1       3.954   4.472  17.239  0.00  0.00    +0.000 A 
ATOM      6  C   UNL     1       4.812   4.158  16.166  0.00  0.00    +0.000 A 
ATOM      7  C   UNL     1       3.015   3.708  17.973  0.00  0.00    +0.000 A 
ATOM      8  C   UNL     1       2.423   4.547  18.896  0.00  0.00    +0.000 A 
ATOM      9  N   UNL     1       3.000   5.797  18.785  0.00  0.00    +0.000 N 
ATOM     10  C   UNL     1       1.351   4.136  19.860  0.00  0.00    +0.000 C 
ATOM     11  C   UNL     1       0.759   2.770  19.452  0.00  0.00    +0.000 C 
ATOM     12  C   UNL     1       1.849   1.769  19.036  0.00  0.00    +0.000 C 
ATOM     13  C   UNL     1       2.638   2.273  17.817  0.00  0.00    +0.000 C 
ENDROOT
BRANCH   1  14
ATOM     14  C   UNL     1       6.544   4.762  14.501  0.00  0.00    +0.000 C 
ATOM     15  O   UNL     1       7.606   5.312  14.259  0.00  0.00    +0.000 OA
BRANCH  14  17
ATOM     16  C   UNL     1       6.502   3.621  12.465  0.00  0.00    +0.000 C 
ATOM     17  O   UNL     1       5.997   3.741  13.793  0.00  0.00    +0.000 OA
ENDBRANCH  14  17
ENDBRANCH   1  14
BRANCH   9  18
ATOM     18  C   UNL     1       2.579   6.915  19.629  0.00  0.00    +0.000 C 
BRANCH  18  19
ATOM     19  C   UNL     1       1.546   7.894  19.070  0.00  0.00    +0.000 C 
BRANCH  19  20
ATOM     20  C   UNL     1       1.682   9.329  19.564  0.00  0.00    +0.000 C 
BRANCH  20  21
ATOM     21  S   UNL     1       0.402   9.739  20.743  0.00  0.00    +0.000 S 
ATOM     22  O   UNL     1      -0.130   8.508  21.286  0.00  0.00    +0.000 OA
ATOM     23  O   UNL     1       0.902  10.784  21.611  0.00  0.00    +0.000 OA
BRANCH  21  24
ATOM     24  N   UNL     1      -0.818  10.437  19.784  0.00  0.00    +0.000 NA
ATOM     25  C   UNL     1      -0.859  11.925  20.000  0.00  0.00    +0.000 C 
ATOM     26  C   UNL     1      -2.027  12.565  19.245  0.00  0.00    +0.000 C 
ATOM     27  C   UNL     1      -3.359  12.388  19.965  0.00  0.00    +0.000 C 
ATOM     28  O   UNL     1      -2.092  12.189  17.861  0.00  0.00    +0.000 OA
ATOM     29  C   UNL     1      -1.886  10.803  17.560  0.00  0.00    +0.000 C 
ATOM     30  C   UNL     1      -3.170   9.989  17.687  0.00  0.00    +0.000 C 
ATOM     31  C   UNL     1      -0.702  10.178  18.316  0.00  0.00    +0.000 C 
ENDBRANCH  21  24
ENDBRANCH  20  21
ENDBRANCH  19  20
ENDBRANCH  18  19
ENDBRANCH   9  18
TORSDOF 7
ENDMDL
MODEL 3
REMARK VINA RESULT:      -8.9      0.829      1.028
REMARK  Name = 
REMARK  10 active torsions:
REMARK  status: ('A' for Active; 'I' for Inactive)
REMARK    1  A    between atoms: C_1  and  O_2
REMARK    2  A    between atoms: O_2  and  C_3
REMARK    3  A    between atoms: C_3  and  C_5
REMARK    4  A    between atoms: N_13  and  C_14
REMARK    5  A    between atoms: C_14  and  C_15
REMARK    6  A    between atoms: C_15  and  C_16
REMARK    7  A    between atoms: C_16  and  S_17
REMARK    8  A    between atoms: S_17  and  N_20
REMARK    9  A    between atoms: C_22  and  C_23
REMARK   10  A    between atoms: C_25  and  C_26
REMARK                            x       y       z     vdW  Elec       q    Type
REMARK                         _______ _______ _______ _____ _____    ______ ____
ROOT
ATOM      1  C   UNL     1       5.449   5.223  15.723  0.00  0.00    +0.000 A 
ATOM      2  C   UNL     1       5.442   6.520  16.222  0.00  0.00    +0.000 A 
ATOM      3  C   UNL     1       4.617   6.874  17.290  0.00  0.00    +0.000 A 
ATOM      4  C   UNL     1       3.778   5.908  17.874  0.00  0.00    +0.000 A 
ATOM      5  C   UNL     1       3.783   4.593  17.383  0.00  0.00    +0.000 A 
ATOM      6  C   UNL     1       4.620   4.254  16.300  0.00  0.00    +0.000 A 
ATOM      7  C   UNL     1       2.859   3.847  18.153  0.00  0.00    +0.000 A 
ATOM      8  C   UNL     1       2.284   4.706  19.067  0.00  0.00    +0.000 A 
ATOM      9  N   UNL     1       2.857   5.954  18.915  0.00  0.00    +0.000 N 
ATOM     10  C   UNL     1       1.232   4.317  20.061  0.00  0.00    +0.000 C 
ATOM     11  C   UNL     1       0.634   2.942  19.698  0.00  0.00    +0.000 C 
ATOM     12  C   UNL     1       1.717   1.932  19.284  0.00  0.00    +0.000 C 
ATOM     13  C   UNL     1       2.481   2.408  18.038  0.00  0.00    +0.000 C 
ENDROOT
BRANCH   1  14
ATOM     14  C   UNL     1       6.318   4.820  14.589  0.00  0.00    +0.000 C 
ATOM     15  O   UNL     1       7.476   5.181  14.455  0.00  0.00    +0.000 OA
BRANCH  14  17
ATOM     16  C   UNL     1       6.365   3.650  12.569  0.00  0.00    +0.000 C 
ATOM     17  O   UNL     1       5.633   4.015  13.737  0.00  0.00    +0.000 OA
ENDBRANCH  14  17
ENDBRANCH   1  14
BRANCH   9  18
ATOM     18  C   UNL     1       2.452   7.091  19.740  0.00  0.00    +0.000 C 
BRANCH  18  19
ATOM     19  C   UNL     1       1.678   8.229  19.073  0.00  0.00    +0.000 C 
BRANCH  19  20
ATOM     20  C   UNL     1       1.095   9.263  20.030  0.00  0.00    +0.000 C 
BRANCH  20  21
ATOM     21  S   UNL     1       0.504  10.704  19.153  0.00  0.00    +0.000 S 
ATOM     22  O   UNL     1       1.636  11.355  18.529  0.00  0.00    +0.000 OA
ATOM     23  O   UNL     1      -0.657  10.320  18.378  0.00  0.00    +0.000 OA
BRANCH  21  24
ATOM     24  N   UNL     1      -0.048  11.729  20.393  0.00  0.00    +0.000 NA
ATOM     25  C   UNL     1      -0.357  10.929  21.629  0.00  0.00    +0.000 C 
ATOM     26  C   UNL     1      -0.972  11.807  22.721  0.00  0.00    +0.000 C 
ATOM     27  C   UNL     1      -2.453  12.083  22.488  0.00  0.00    +0.000 C 
ATOM     28  O   UNL     1      -0.222  13.001  22.990  0.00  0.00    +0.000 OA
ATOM     29  C   UNL     1       0.259  13.729  21.853  0.00  0.00    +0.000 C 
ATOM     30  C   UNL     1      -0.788  14.690  21.298  0.00  0.00    +0.000 C 
ATOM     31  C   UNL     1       0.885  12.835  20.770  0.00  0.00    +0.000 C 
ENDBRANCH  21  24
ENDBRANCH  20  21
ENDBRANCH  19  20
ENDBRANCH  18  19
ENDBRANCH   9  18
TORSDOF 7
ENDMDL
MODEL 4
REMARK VINA RESULT:      -8.9      1.715      1.925
REMARK  Name = 
REMARK  10 active torsions:
REMARK  status: ('A' for Active; 'I' for Inactive)
REMARK    1  A    between atoms: C_1  and  O_2
REMARK    2  A    between atoms: O_2  and  C_3
REMARK    3  A    between atoms: C_3  and  C_5
REMARK    4  A    between atoms: N_13  and  C_14
REMARK    5  A    between atoms: C_14  and  C_15
REMARK    6  A    between atoms: C_15  and  C_16
REMARK    7  A    between atoms: C_16  and  S_17
REMARK    8  A    between atoms: S_17  and  N_20
REMARK    9  A    between atoms: C_22  and  C_23
REMARK   10  A    between atoms: C_25  and  C_26
REMARK                            x       y       z     vdW  Elec       q    Type
REMARK                         _______ _______ _______ _____ _____    ______ ____
ROOT
ATOM      1  C   UNL     1       5.730   5.103  15.606  0.00  0.00    +0.000 A 
ATOM      2  C   UNL     1       5.579   6.451  15.913  0.00  0.00    +0.000 A 
ATOM      3  C   UNL     1       4.653   6.870  16.868  0.00  0.00    +0.000 A 
ATOM      4  C   UNL     1       3.856   5.920  17.533  0.00  0.00    +0.000 A 
ATOM      5  C   UNL     1       4.005   4.557  17.237  0.00  0.00    +0.000 A 
ATOM      6  C   UNL     1       4.944   4.151  16.266  0.00  0.00    +0.000 A 
ATOM      7  C   UNL     1       3.094   3.841  18.049  0.00  0.00    +0.000 A 
ATOM      8  C   UNL     1       2.384   4.761  18.794  0.00  0.00    +0.000 A 
ATOM      9  N   UNL     1       2.862   6.024  18.499  0.00  0.00    +0.000 N 
ATOM     10  C   UNL     1       1.299   4.418  19.769  0.00  0.00    +0.000 C 
ATOM     11  C   UNL     1       0.844   2.956  19.571  0.00  0.00    +0.000 C 
ATOM     12  C   UNL     1       2.035   2.004  19.372  0.00  0.00    +0.000 C 
ATOM     13  C   UNL     1       2.845   2.371  18.119  0.00  0.00    +0.000 C 
ENDROOT
BRANCH   1  14
ATOM     14  C   UNL     1       6.709   4.630  14.596  0.00  0.00    +0.000 C 
ATOM     15  O   UNL     1       7.754   5.204  14.338  0.00  0.00    +0.000 OA
BRANCH  14  17
ATOM     16  C   UNL     1       6.131   3.580  12.592  0.00  0.00    +0.000 C 
ATOM     17  O   UNL     1       6.262   3.490  14.009  0.00  0.00    +0.000 OA
ENDBRANCH  14  17
ENDBRANCH   1  14
BRANCH   9  18
ATOM     18  C   UNL     1       2.305   7.221  19.127  0.00  0.00    +0.000 C 
BRANCH  18  19
ATOM     19  C   UNL     1       1.531   8.205  18.248  0.00  0.00    +0.000 C 
BRANCH  19  20
ATOM     20  C   UNL     1       1.616   9.664  18.681  0.00  0.00    +0.000 C 
BRANCH  20  21
ATOM     21  S   UNL     1      -0.002  10.335  19.039  0.00  0.00    +0.000 S 
ATOM     22  O   UNL     1      -0.821  10.212  17.852  0.00  0.00    +0.000 OA
ATOM     23  O   UNL     1      -0.444   9.801  20.310  0.00  0.00    +0.000 OA
BRANCH  21  24
ATOM     24  N   UNL     1       0.295  11.993  19.278  0.00  0.00    +0.000 NA
ATOM     25  C   UNL     1       1.745  12.302  19.022  0.00  0.00    +0.000 C 
ATOM     26  C   UNL     1       2.069  13.762  19.348  0.00  0.00    +0.000 C 
ATOM     27  C   UNL     1       2.246  14.005  20.842  0.00  0.00    +0.000 C 
ATOM     28  O   UNL     1       1.171  14.701  18.737  0.00  0.00    +0.000 OA
ATOM     29  C   UNL     1      -0.225  14.383  18.789  0.00  0.00    +0.000 C 
ATOM     30  C   UNL     1      -0.873  14.840  20.092  0.00  0.00    +0.000 C 
ATOM     31  C   UNL     1      -0.536  12.916  18.446  0.00  0.00    +0.000 C 
ENDBRANCH  21  24
ENDBRANCH  20  21
ENDBRANCH  19  20
ENDBRANCH  18  19
ENDBRANCH   9  18
TORSDOF 7
ENDMDL
MODEL 5
REMARK VINA RESULT:      -8.8      1.286      1.457
REMARK  Name = 
REMARK  10 active torsions:
REMARK  status: ('A' for Active; 'I' for Inactive)
REMARK    1  A    between atoms: C_1  and  O_2
REMARK    2  A    between atoms: O_2  and  C_3
REMARK    3  A    between atoms: C_3  and  C_5
REMARK    4  A    between atoms: N_13  and  C_14
REMARK    5  A    between atoms: C_14  and  C_15
REMARK    6  A    between atoms: C_15  and  C_16
REMARK    7  A    between atoms: C_16  and  S_17
REMARK    8  A    between atoms: S_17  and  N_20
REMARK    9  A    between atoms: C_22  and  C_23
REMARK   10  A    between atoms: C_25  and  C_26
REMARK                            x       y       z     vdW  Elec       q    Type
REMARK                         _______ _______ _______ _____ _____    ______ ____
ROOT
ATOM      1  C   UNL     1       5.591   5.222  15.842  0.00  0.00    +0.000 A 
ATOM      2  C   UNL     1       5.555   6.534  16.303  0.00  0.00    +0.000 A 
ATOM      3  C   UNL     1       4.686   6.911  17.327  0.00  0.00    +0.000 A 
ATOM      4  C   UNL     1       3.831   5.954  17.905  0.00  0.00    +0.000 A 
ATOM      5  C   UNL     1       3.865   4.626  17.452  0.00  0.00    +0.000 A 
ATOM      6  C   UNL     1       4.747   4.264  16.413  0.00  0.00    +0.000 A 
ATOM      7  C   UNL     1       2.917   3.894  18.205  0.00  0.00    +0.000 A 
ATOM      8  C   UNL     1       2.299   4.774  19.070  0.00  0.00    +0.000 A 
ATOM      9  N   UNL     1       2.869   6.022  18.906  0.00  0.00    +0.000 N 
ATOM     10  C   UNL     1       1.211   4.405  20.033  0.00  0.00    +0.000 C 
ATOM     11  C   UNL     1       0.637   3.015  19.686  0.00  0.00    +0.000 C 
ATOM     12  C   UNL     1       1.744   2.003  19.344  0.00  0.00    +0.000 C 
ATOM     13  C   UNL     1       2.554   2.449  18.117  0.00  0.00    +0.000 C 
ENDROOT
BRANCH   1  14
ATOM     14  C   UNL     1       6.508   4.796  14.755  0.00  0.00    +0.000 C 
ATOM     15  O   UNL     1       7.545   5.373  14.471  0.00  0.00    +0.000 OA
BRANCH  14  17
ATOM     16  C   UNL     1       6.254   3.665  12.728  0.00  0.00    +0.000 C 
ATOM     17  O   UNL     1       6.016   3.693  14.133  0.00  0.00    +0.000 OA
ENDBRANCH  14  17
ENDBRANCH   1  14
BRANCH   9  18
ATOM     18  C   UNL     1       2.423   7.178  19.682  0.00  0.00    +0.000 C 
BRANCH  18  19
ATOM     19  C   UNL     1       1.351   8.086  19.076  0.00  0.00    +0.000 C 
BRANCH  19  20
ATOM     20  C   UNL     1       1.246   9.471  19.703  0.00  0.00    +0.000 C 
BRANCH  20  21
ATOM     21  S   UNL     1       0.435   9.408  21.294  0.00  0.00    +0.000 S 
ATOM     22  O   UNL     1      -0.377   8.211  21.347  0.00  0.00    +0.000 OA
ATOM     23  O   UNL     1       1.419   9.687  22.318  0.00  0.00    +0.000 OA
BRANCH  21  24
ATOM     24  N   UNL     1      -0.627  10.736  21.256  0.00  0.00    +0.000 NA
ATOM     25  C   UNL     1      -0.508  11.532  22.528  0.00  0.00    +0.000 C 
ATOM     26  C   UNL     1      -1.538  12.663  22.575  0.00  0.00    +0.000 C 
ATOM     27  C   UNL     1      -2.927  12.175  22.970  0.00  0.00    +0.000 C 
ATOM     28  O   UNL     1      -1.553  13.478  21.394  0.00  0.00    +0.000 OA
ATOM     29  C   UNL     1      -1.492  12.791  20.138  0.00  0.00    +0.000 C 
ATOM     30  C   UNL     1      -2.868  12.337  19.661  0.00  0.00    +0.000 C 
ATOM     31  C   UNL     1      -0.443  11.667  20.101  0.00  0.00    +0.000 C 
ENDBRANCH  21  24
ENDBRANCH  20  21
ENDBRANCH  19  20
ENDBRANCH  18  19
ENDBRANCH   9  18
TORSDOF 7
ENDMDL
MODEL 6
REMARK VINA RESULT:      -8.7      1.750      2.261
REMARK  Name = 
REMARK  10 active torsions:
REMARK  status: ('A' for Active; 'I' for Inactive)
REMARK    1  A    between atoms: C_1  and  O_2
REMARK    2  A    between atoms: O_2  and  C_3
REMARK    3  A    between atoms: C_3  and  C_5
REMARK    4  A    between atoms: N_13  and  C_14
REMARK    5  A    between atoms: C_14  and  C_15
REMARK    6  A    between atoms: C_15  and  C_16
REMARK    7  A    between atoms: C_16  and  S_17
REMARK    8  A    between atoms: S_17  and  N_20
REMARK    9  A    between atoms: C_22  and  C_23
REMARK   10  A    between atoms: C_25  and  C_26
REMARK                            x       y       z     vdW  Elec       q    Type
REMARK                         _______ _______ _______ _____ _____    ______ ____
ROOT
ATOM      1  C   UNL     1       5.777   5.418  16.738  0.00  0.00    +0.000 A 
ATOM      2  C   UNL     1       5.242   6.697  16.639  0.00  0.00    +0.000 A 
ATOM      3  C   UNL     1       4.152   7.082  17.421  0.00  0.00    +0.000 A 
ATOM      4  C   UNL     1       3.583   6.166  18.325  0.00  0.00    +0.000 A 
ATOM      5  C   UNL     1       4.121   4.874  18.438  0.00  0.00    +0.000 A 
ATOM      6  C   UNL     1       5.220   4.502  17.637  0.00  0.00    +0.000 A 
ATOM      7  C   UNL     1       3.365   4.181  19.413  0.00  0.00    +0.000 A 
ATOM      8  C   UNL     1       2.369   5.029  19.852  0.00  0.00    +0.000 A 
ATOM      9  N   UNL     1       2.513   6.244  19.209  0.00  0.00    +0.000 N 
ATOM     10  C   UNL     1       1.331   4.673  20.873  0.00  0.00    +0.000 C 
ATOM     11  C   UNL     1       1.307   3.147  21.103  0.00  0.00    +0.000 C 
ATOM     12  C   UNL     1       2.723   2.557  21.201  0.00  0.00    +0.000 C 
ATOM     13  C   UNL     1       3.517   2.780  19.904  0.00  0.00    +0.000 C 
ENDROOT
BRANCH   1  14
ATOM     14  C   UNL     1       6.937   4.984  15.918  0.00  0.00    +0.000 C 
ATOM     15  O   UNL     1       7.952   4.489  16.380  0.00  0.00    +0.000 OA
BRANCH  14  17
ATOM     16  C   UNL     1       6.168   4.115  13.893  0.00  0.00    +0.000 C 
ATOM     17  O   UNL     1       6.699   5.230  14.604  0.00  0.00    +0.000 OA
ENDBRANCH  14  17
ENDBRANCH   1  14
BRANCH   9  18
ATOM     18  C   UNL     1       1.599   7.358  19.457  0.00  0.00    +0.000 C 
BRANCH  18  19
ATOM     19  C   UNL     1       1.744   8.132  20.768  0.00  0.00    +0.000 C 
BRANCH  19  20
ATOM     20  C   UNL     1       0.431   8.504  21.448  0.00  0.00    +0.000 C 
BRANCH  20  21
ATOM     21  S   UNL     1       0.354  10.253  21.808  0.00  0.00    +0.000 S 
ATOM     22  O   UNL     1      -0.307  10.429  23.083  0.00  0.00    +0.000 OA
ATOM     23  O   UNL     1       1.660  10.826  21.559  0.00  0.00    +0.000 OA
BRANCH  21  24
ATOM     24  N   UNL     1      -0.688  10.864  20.611  0.00  0.00    +0.000 NA
ATOM     25  C   UNL     1      -0.939  12.329  20.840  0.00  0.00    +0.000 C 
ATOM     26  C   UNL     1      -1.971  12.879  19.851  0.00  0.00    +0.000 C 
ATOM     27  C   UNL     1      -3.402  12.536  20.245  0.00  0.00    +0.000 C 
ATOM     28  O   UNL     1      -1.682  12.559  18.481  0.00  0.00    +0.000 OA
ATOM     29  C   UNL     1      -1.264  11.216  18.209  0.00  0.00    +0.000 C 
ATOM     30  C   UNL     1      -2.446  10.270  18.024  0.00  0.00    +0.000 C 
ATOM     31  C   UNL     1      -0.218  10.682  19.203  0.00  0.00    +0.000 C 
ENDBRANCH  21  24
ENDBRANCH  20  21
ENDBRANCH  19  20
ENDBRANCH  18  19
ENDBRANCH   9  18
TORSDOF 7
ENDMDL
MODEL 7
REMARK VINA RESULT:      -8.6      0.947      1.426
REMARK  Name = 
REMARK  10 active torsions:
REMARK  status: ('A' for Active; 'I' for Inactive)
REMARK    1  A    between atoms: C_1  and  O_2
REMARK    2  A    between atoms: O_2  and  C_3
REMARK    3  A    between atoms: C_3  and  C_5
REMARK    4  A    between atoms: N_13  and  C_14
REMARK    5  A    between atoms: C_14  and  C_15
REMARK    6  A    between atoms: C_15  and  C_16
REMARK    7  A    between atoms: C_16  and  S_17
REMARK    8  A    between atoms: S_17  and  N_20
REMARK    9  A    between atoms: C_22  and  C_23
REMARK   10  A    between atoms: C_25  and  C_26
REMARK                            x       y       z     vdW  Elec       q    Type
REMARK                         _______ _______ _______ _____ _____    ______ ____
ROOT
ATOM      1  C   UNL     1       5.601   5.030  15.526  0.00  0.00    +0.000 A 
ATOM      2  C   UNL     1       5.611   6.330  16.020  0.00  0.00    +0.000 A 
ATOM      3  C   UNL     1       4.788   6.700  17.084  0.00  0.00    +0.000 A 
ATOM      4  C   UNL     1       3.934   5.748  17.670  0.00  0.00    +0.000 A 
ATOM      5  C   UNL     1       3.923   4.431  17.185  0.00  0.00    +0.000 A 
ATOM      6  C   UNL     1       4.758   4.076  16.106  0.00  0.00    +0.000 A 
ATOM      7  C   UNL     1       2.987   3.701  17.956  0.00  0.00    +0.000 A 
ATOM      8  C   UNL     1       2.421   4.572  18.864  0.00  0.00    +0.000 A 
ATOM      9  N   UNL     1       3.012   5.812  18.708  0.00  0.00    +0.000 N 
ATOM     10  C   UNL     1       1.362   4.203  19.858  0.00  0.00    +0.000 C 
ATOM     11  C   UNL     1       0.745   2.834  19.500  0.00  0.00    +0.000 C 
ATOM     12  C   UNL     1       1.816   1.808  19.093  0.00  0.00    +0.000 C 
ATOM     13  C   UNL     1       2.589   2.267  17.847  0.00  0.00    +0.000 C 
ENDROOT
BRANCH   1  14
ATOM     14  C   UNL     1       6.468   4.611  14.396  0.00  0.00    +0.000 C 
ATOM     15  O   UNL     1       6.232   3.655  13.675  0.00  0.00    +0.000 OA
BRANCH  14  17
ATOM     16  C   UNL     1       8.119   5.487  12.997  0.00  0.00    +0.000 C 
ATOM     17  O   UNL     1       7.544   5.433  14.301  0.00  0.00    +0.000 OA
ENDBRANCH  14  17
ENDBRANCH   1  14
BRANCH   9  18
ATOM     18  C   UNL     1       2.620   6.958  19.528  0.00  0.00    +0.000 C 
BRANCH  18  19
ATOM     19  C   UNL     1       2.099   8.209  18.818  0.00  0.00    +0.000 C 
BRANCH  19  20
ATOM     20  C   UNL     1       1.285   9.156  19.692  0.00  0.00    +0.000 C 
BRANCH  20  21
ATOM     21  S   UNL     1       0.743  10.590  18.772  0.00  0.00    +0.000 S 
ATOM     22  O   UNL     1       1.906  11.229  18.195  0.00  0.00    +0.000 OA
ATOM     23  O   UNL     1      -0.382  10.202  17.948  0.00  0.00    +0.000 OA
BRANCH  21  24
ATOM     24  N   UNL     1       0.138  11.631  19.973  0.00  0.00    +0.000 NA
ATOM     25  C   UNL     1       0.260  13.063  19.527  0.00  0.00    +0.000 C 
ATOM     26  C   UNL     1      -0.162  14.030  20.637  0.00  0.00    +0.000 C 
ATOM     27  C   UNL     1       0.924  14.229  21.687  0.00  0.00    +0.000 C 
ATOM     28  O   UNL     1      -1.440  13.721  21.213  0.00  0.00    +0.000 OA
ATOM     29  C   UNL     1      -1.697  12.342  21.506  0.00  0.00    +0.000 C 
ATOM     30  C   UNL     1      -1.150  11.930  22.869  0.00  0.00    +0.000 C 
ATOM     31  C   UNL     1      -1.280  11.385  20.377  0.00  0.00    +0.000 C 
ENDBRANCH  21  24
ENDBRANCH  20  21
ENDBRANCH  19  20
ENDBRANCH  18  19
ENDBRANCH   9  18
TORSDOF 7
ENDMDL
MODEL 8
REMARK VINA RESULT:      -8.6      1.386      1.952
REMARK  Name = 
REMARK  10 active torsions:
REMARK  status: ('A' for Active; 'I' for Inactive)
REMARK    1  A    between atoms: C_1  and  O_2
REMARK    2  A    between atoms: O_2  and  C_3
REMARK    3  A    between atoms: C_3  and  C_5
REMARK    4  A    between atoms: N_13  and  C_14
REMARK    5  A    between atoms: C_14  and  C_15
REMARK    6  A    between atoms: C_15  and  C_16
REMARK    7  A    between atoms: C_16  and  S_17
REMARK    8  A    between atoms: S_17  and  N_20
REMARK    9  A    between atoms: C_22  and  C_23
REMARK   10  A    between atoms: C_25  and  C_26
REMARK                            x       y       z     vdW  Elec       q    Type
REMARK                         _______ _______ _______ _____ _____    ______ ____
ROOT
ATOM      1  C   UNL     1       5.366   5.375  15.815  0.00  0.00    +0.000 A 
ATOM      2  C   UNL     1       5.323   6.685  16.280  0.00  0.00    +0.000 A 
ATOM      3  C   UNL     1       4.511   7.038  17.359  0.00  0.00    +0.000 A 
ATOM      4  C   UNL     1       3.722   6.058  17.988  0.00  0.00    +0.000 A 
ATOM      5  C   UNL     1       3.764   4.731  17.532  0.00  0.00    +0.000 A 
ATOM      6  C   UNL     1       4.587   4.394  16.438  0.00  0.00    +0.000 A 
ATOM      7  C   UNL     1       2.887   3.973  18.343  0.00  0.00    +0.000 A 
ATOM      8  C   UNL     1       2.302   4.835  19.248  0.00  0.00    +0.000 A 
ATOM      9  N   UNL     1       2.825   6.099  19.050  0.00  0.00    +0.000 N 
ATOM     10  C   UNL     1       1.290   4.435  20.278  0.00  0.00    +0.000 C 
ATOM     11  C   UNL     1       0.734   3.030  19.966  0.00  0.00    +0.000 C 
ATOM     12  C   UNL     1       1.844   2.049  19.552  0.00  0.00    +0.000 C 
ATOM     13  C   UNL     1       2.560   2.518  18.276  0.00  0.00    +0.000 C 
ENDROOT
BRANCH   1  14
ATOM     14  C   UNL     1       6.222   4.974  14.670  0.00  0.00    +0.000 C 
ATOM     15  O   UNL     1       7.406   5.252  14.574  0.00  0.00    +0.000 OA
BRANCH  14  17
ATOM     16  C   UNL     1       6.272   3.425  12.925  0.00  0.00    +0.000 C 
ATOM     17  O   UNL     1       5.493   4.276  13.763  0.00  0.00    +0.000 OA
ENDBRANCH  14  17
ENDBRANCH   1  14
BRANCH   9  18
ATOM     18  C   UNL     1       2.398   7.242  19.855  0.00  0.00    +0.000 C 
BRANCH  18  19
ATOM     19  C   UNL     1       1.239   8.096  19.340  0.00  0.00    +0.000 C 
BRANCH  19  20
ATOM     20  C   UNL     1       1.189   9.517  19.888  0.00  0.00    +0.000 C 
BRANCH  20  21
ATOM     21  S   UNL     1       0.547   9.551  21.556  0.00  0.00    +0.000 S 
ATOM     22  O   UNL     1      -0.395   8.462  21.705  0.00  0.00    +0.000 OA
ATOM     23  O   UNL     1       1.660   9.705  22.469  0.00  0.00    +0.000 OA
BRANCH  21  24
ATOM     24  N   UNL     1      -0.342  11.000  21.614  0.00  0.00    +0.000 NA
ATOM     25  C   UNL     1      -1.111  11.188  20.335  0.00  0.00    +0.000 C 
ATOM     26  C   UNL     1      -1.824  12.543  20.308  0.00  0.00    +0.000 C 
ATOM     27  C   UNL     1      -0.888  13.692  19.954  0.00  0.00    +0.000 C 
ATOM     28  O   UNL     1      -2.604  12.806  21.484  0.00  0.00    +0.000 OA
ATOM     29  C   UNL     1      -1.998  12.486  22.743  0.00  0.00    +0.000 C 
ATOM     30  C   UNL     1      -1.112  13.614  23.260  0.00  0.00    +0.000 C 
ATOM     31  C   UNL     1      -1.298  11.117  22.758  0.00  0.00    +0.000 C 
ENDBRANCH  21  24
ENDBRANCH  20  21
ENDBRANCH  19  20
ENDBRANCH  18  19
ENDBRANCH   9  18
TORSDOF 7
ENDMDL
MODEL 9
REMARK VINA RESULT:      -8.6      1.870      2.352
REMARK  Name = 
REMARK  10 active torsions:
REMARK  status: ('A' for Active; 'I' for Inactive)
REMARK    1  A    between atoms: C_1  and  O_2
REMARK    2  A    between atoms: O_2  and  C_3
REMARK    3  A    between atoms: C_3  and  C_5
REMARK    4  A    between atoms: N_13  and  C_14
REMARK    5  A    between atoms: C_14  and  C_15
REMARK    6  A    between atoms: C_15  and  C_16
REMARK    7  A    between atoms: C_16  and  S_17
REMARK    8  A    between atoms: S_17  and  N_20
REMARK    9  A    between atoms: C_22  and  C_23
REMARK   10  A    between atoms: C_25  and  C_26
REMARK                            x       y       z     vdW  Elec       q    Type
REMARK                         _______ _______ _______ _____ _____    ______ ____
ROOT
ATOM      1  C   UNL     1       5.809   5.375  16.631  0.00  0.00    +0.000 A 
ATOM      2  C   UNL     1       5.305   6.667  16.540  0.00  0.00    +0.000 A 
ATOM      3  C   UNL     1       4.228   7.075  17.328  0.00  0.00    +0.000 A 
ATOM      4  C   UNL     1       3.640   6.169  18.230  0.00  0.00    +0.000 A 
ATOM      5  C   UNL     1       4.147   4.865  18.336  0.00  0.00    +0.000 A 
ATOM      6  C   UNL     1       5.233   4.468  17.529  0.00  0.00    +0.000 A 
ATOM      7  C   UNL     1       3.377   4.186  19.311  0.00  0.00    +0.000 A 
ATOM      8  C   UNL     1       2.404   5.057  19.757  0.00  0.00    +0.000 A 
ATOM      9  N   UNL     1       2.576   6.270  19.118  0.00  0.00    +0.000 N 
ATOM     10  C   UNL     1       1.362   4.722  20.781  0.00  0.00    +0.000 C 
ATOM     11  C   UNL     1       1.301   3.196  21.005  0.00  0.00    +0.000 C 
ATOM     12  C   UNL     1       2.703   2.570  21.095  0.00  0.00    +0.000 C 
ATOM     13  C   UNL     1       3.496   2.780  19.795  0.00  0.00    +0.000 C 
ENDROOT
BRANCH   1  14
ATOM     14  C   UNL     1       6.954   4.916  15.805  0.00  0.00    +0.000 C 
ATOM     15  O   UNL     1       7.962   4.402  16.262  0.00  0.00    +0.000 OA
BRANCH  14  17
ATOM     16  C   UNL     1       6.213   4.040  13.772  0.00  0.00    +0.000 C 
ATOM     17  O   UNL     1       6.713   5.164  14.492  0.00  0.00    +0.000 OA
ENDBRANCH  14  17
ENDBRANCH   1  14
BRANCH   9  18
ATOM     18  C   UNL     1       1.690   7.405  19.375  0.00  0.00    +0.000 C 
BRANCH  18  19
ATOM     19  C   UNL     1       1.706   8.033  20.770  0.00  0.00    +0.000 C 
BRANCH  19  20
ATOM     20  C   UNL     1       1.077   9.418  20.863  0.00  0.00    +0.000 C 
BRANCH  20  21
ATOM     21  S   UNL     1       0.137   9.608  22.371  0.00  0.00    +0.000 S 
ATOM     22  O   UNL     1      -0.929   8.629  22.372  0.00  0.00    +0.000 OA
ATOM     23  O   UNL     1       1.065   9.703  23.477  0.00  0.00    +0.000 OA
BRANCH  21  24
ATOM     24  N   UNL     1      -0.586  11.139  22.202  0.00  0.00    +0.000 NA
ATOM     25  C   UNL     1      -1.058  11.336  20.788  0.00  0.00    +0.000 C 
ATOM     26  C   UNL     1      -1.602  12.752  20.575  0.00  0.00    +0.000 C 
ATOM     27  C   UNL     1      -0.496  13.783  20.386  0.00  0.00    +0.000 C 
ATOM     28  O   UNL     1      -2.569  13.151  21.558  0.00  0.00    +0.000 OA
ATOM     29  C   UNL     1      -2.265  12.837  22.923  0.00  0.00    +0.000 C 
ATOM     30  C   UNL     1      -1.384  13.897  23.576  0.00  0.00    +0.000 C 
ATOM     31  C   UNL     1      -1.733  11.408  23.123  0.00  0.00    +0.000 C 
ENDBRANCH  21  24
ENDBRANCH  20  21
ENDBRANCH  19  20
ENDBRANCH  18  19
ENDBRANCH   9  18
TORSDOF 7
ENDMDL
