MODEL 1
REMARK VINA RESULT:      -8.0      0.000      0.000
REMARK  Name = 
REMARK  9 active torsions:
REMARK  status: ('A' for Active; 'I' for Inactive)
REMARK    1  A    between atoms: C_1  and  O_2
REMARK    2  A    between atoms: O_2  and  C_3
REMARK    3  A    between atoms: C_6  and  C_7
REMARK    4  A    between atoms: C_9  and  N_10
REMARK    5  A    between atoms: C_11  and  C_13
REMARK    6  A    between atoms: C_13  and  O_14
REMARK    7  A    between atoms: C_13  and  C_20
REMARK    8  A    between atoms: O_14  and  C_15
REMARK    9  A    between atoms: C_15  and  C_17
REMARK                            x       y       z     vdW  Elec       q    Type
REMARK                         _______ _______ _______ _____ _____    ______ ____
ROOT
ATOM      1  N   UNL     1       3.922   5.152  17.928  0.00  0.00    +0.000 N 
ATOM      2  C   UNL     1       3.305   6.390  18.123  0.00  0.00    +0.000 C 
ATOM      3  O   UNL     1       3.632   7.439  17.563  0.00  0.00    +0.000 OA
ATOM      4  H   UNL     1       3.522   4.329  18.368  0.00  0.00    +0.000 HD
ENDROOT
BRANCH   1  11
ATOM      5  C   UNL     1       6.348   4.956  17.578  0.00  0.00    +0.000 A 
ATOM      6  C   UNL     1       7.431   4.610  16.752  0.00  0.00    +0.000 A 
ATOM      7  C   UNL     1       7.235   4.253  15.419  0.00  0.00    +0.000 A 
ATOM      8  C   UNL     1       5.948   4.233  14.890  0.00  0.00    +0.000 A 
ATOM      9  C   UNL     1       5.711   3.888  13.451  0.00  0.00    +0.000 C 
ATOM     10  C   UNL     1       4.861   4.548  15.718  0.00  0.00    +0.000 A 
ATOM     11  C   UNL     1       5.031   4.882  17.069  0.00  0.00    +0.000 A 
BRANCH   5  13
ATOM     12  C   UNL     1       7.813   5.813  19.238  0.00  0.00    +0.000 C 
ATOM     13  O   UNL     1       6.503   5.354  18.890  0.00  0.00    +0.000 OA
ENDBRANCH   5  13
ENDBRANCH   1  11
BRANCH   2  14
ATOM     14  C   UNL     1       2.098   6.393  19.106  0.00  0.00    +0.000 C 
BRANCH  14  15
ATOM     15  C   UNL     1       1.871   5.031  19.741  0.00  0.00    +0.000 A 
ATOM     16  C   UNL     1       1.244   3.991  19.035  0.00  0.00    +0.000 A 
ATOM     17  C   UNL     1       1.010   2.759  19.647  0.00  0.00    +0.000 A 
ATOM     18  C   UNL     1       1.413   2.545  20.964  0.00  0.00    +0.000 A 
ATOM     19  C   UNL     1       2.075   3.555  21.661  0.00  0.00    +0.000 A 
ATOM     20  C   UNL     1       2.310   4.787  21.052  0.00  0.00    +0.000 A 
ENDBRANCH  14  15
BRANCH  14  21
ATOM     21  O   UNL     1       2.289   7.324  20.191  0.00  0.00    +0.000 OA
BRANCH  21  22
ATOM     22  C   UNL     1       1.422   8.375  20.191  0.00  0.00    +0.000 C 
ATOM     23  O   UNL     1       1.328   9.200  19.292  0.00  0.00    +0.000 OA
BRANCH  22  24
ATOM     24  C   UNL     1       0.544   8.381  21.386  0.00  0.00    +0.000 C 
ATOM     25  C   UNL     1       0.881   9.257  22.573  0.00  0.00    +0.000 C 
ATOM     26  C   UNL     1      -0.290   9.603  21.702  0.00  0.00    +0.000 C 
ENDBRANCH  22  24
ENDBRANCH  21  22
ENDBRANCH  14  21
ENDBRANCH   2  14
TORSDOF 7
ENDMDL
MODEL 2
REMARK VINA RESULT:      -7.8      2.188      7.023
REMARK  Name = 
REMARK  9 active torsions:
REMARK  status: ('A' for Active; 'I' for Inactive)
REMARK    1  A    between atoms: C_1  and  O_2
REMARK    2  A    between atoms: O_2  and  C_3
REMARK    3  A    between atoms: C_6  and  C_7
REMARK    4  A    between atoms: C_9  and  N_10
REMARK    5  A    between atoms: C_11  and  C_13
REMARK    6  A    between atoms: C_13  and  O_14
REMARK    7  A    between atoms: C_13  and  C_20
REMARK    8  A    between atoms: O_14  and  C_15
REMARK    9  A    between atoms: C_15  and  C_17
REMARK                            x       y       z     vdW  Elec       q    Type
REMARK                         _______ _______ _______ _____ _____    ______ ____
ROOT
ATOM      1  N   UNL     1       4.815   4.083  17.905  0.00  0.00    +0.000 N 
ATOM      2  C   UNL     1       5.244   4.767  16.765  0.00  0.00    +0.000 C 
ATOM      3  O   UNL     1       4.606   5.651  16.188  0.00  0.00    +0.000 OA
ATOM      4  H   UNL     1       5.452   3.434  18.358  0.00  0.00    +0.000 HD
ENDROOT
BRANCH   1  11
ATOM      5  C   UNL     1       2.613   3.236  18.594  0.00  0.00    +0.000 A 
ATOM      6  C   UNL     1       1.430   3.392  19.339  0.00  0.00    +0.000 A 
ATOM      7  C   UNL     1       1.163   4.575  20.025  0.00  0.00    +0.000 A 
ATOM      8  C   UNL     1       2.079   5.623  19.982  0.00  0.00    +0.000 A 
ATOM      9  C   UNL     1       1.800   6.920  20.680  0.00  0.00    +0.000 C 
ATOM     10  C   UNL     1       3.273   5.460  19.265  0.00  0.00    +0.000 A 
ATOM     11  C   UNL     1       3.577   4.270  18.590  0.00  0.00    +0.000 A 
BRANCH   5  13
ATOM     12  C   UNL     1       3.659   1.105  18.562  0.00  0.00    +0.000 C 
ATOM     13  O   UNL     1       2.896   2.097  17.868  0.00  0.00    +0.000 OA
ENDBRANCH   5  13
ENDBRANCH   1  11
BRANCH   2  14
ATOM     14  C   UNL     1       6.655   4.374  16.236  0.00  0.00    +0.000 C 
BRANCH  14  15
ATOM     15  C   UNL     1       6.714   4.354  14.717  0.00  0.00    +0.000 A 
ATOM     16  C   UNL     1       5.883   3.508  13.966  0.00  0.00    +0.000 A 
ATOM     17  C   UNL     1       5.979   3.475  12.573  0.00  0.00    +0.000 A 
ATOM     18  C   UNL     1       6.892   4.297  11.916  0.00  0.00    +0.000 A 
ATOM     19  C   UNL     1       7.692   5.173  12.648  0.00  0.00    +0.000 A 
ATOM     20  C   UNL     1       7.599   5.207  14.039  0.00  0.00    +0.000 A 
ENDBRANCH  14  15
BRANCH  14  21
ATOM     21  O   UNL     1       7.671   5.301  16.673  0.00  0.00    +0.000 OA
BRANCH  21  22
ATOM     22  C   UNL     1       7.686   5.527  18.017  0.00  0.00    +0.000 C 
ATOM     23  O   UNL     1       7.983   4.693  18.860  0.00  0.00    +0.000 OA
BRANCH  22  24
ATOM     24  C   UNL     1       7.359   6.934  18.354  0.00  0.00    +0.000 C 
ATOM     25  C   UNL     1       8.463   7.957  18.507  0.00  0.00    +0.000 C 
ATOM     26  C   UNL     1       7.549   8.021  17.320  0.00  0.00    +0.000 C 
ENDBRANCH  22  24
ENDBRANCH  21  22
ENDBRANCH  14  21
ENDBRANCH   2  14
TORSDOF 7
ENDMDL
MODEL 3
REMARK VINA RESULT:      -7.6      0.886      1.226
REMARK  Name = 
REMARK  9 active torsions:
REMARK  status: ('A' for Active; 'I' for Inactive)
REMARK    1  A    between atoms: C_1  and  O_2
REMARK    2  A    between atoms: O_2  and  C_3
REMARK    3  A    between atoms: C_6  and  C_7
REMARK    4  A    between atoms: C_9  and  N_10
REMARK    5  A    between atoms: C_11  and  C_13
REMARK    6  A    between atoms: C_13  and  O_14
REMARK    7  A    between atoms: C_13  and  C_20
REMARK    8  A    between atoms: O_14  and  C_15
REMARK    9  A    between atoms: C_15  and  C_17
REMARK                            x       y       z     vdW  Elec       q    Type
REMARK                         _______ _______ _______ _____ _____    ______ ____
ROOT
ATOM      1  N   UNL     1       3.932   5.192  18.010  0.00  0.00    +0.000 N 
ATOM      2  C   UNL     1       3.289   6.423  18.165  0.00  0.00    +0.000 C 
ATOM      3  O   UNL     1       3.590   7.458  17.567  0.00  0.00    +0.000 OA
ATOM      4  H   UNL     1       3.554   4.376  18.482  0.00  0.00    +0.000 HD
ENDROOT
BRANCH   1  11
ATOM      5  C   UNL     1       6.358   4.992  17.666  0.00  0.00    +0.000 A 
ATOM      6  C   UNL     1       7.443   4.640  16.844  0.00  0.00    +0.000 A 
ATOM      7  C   UNL     1       7.249   4.278  15.512  0.00  0.00    +0.000 A 
ATOM      8  C   UNL     1       5.963   4.256  14.980  0.00  0.00    +0.000 A 
ATOM      9  C   UNL     1       5.729   3.906  13.542  0.00  0.00    +0.000 C 
ATOM     10  C   UNL     1       4.875   4.577  15.805  0.00  0.00    +0.000 A 
ATOM     11  C   UNL     1       5.042   4.917  17.155  0.00  0.00    +0.000 A 
BRANCH   5  13
ATOM     12  C   UNL     1       7.833   5.814  19.336  0.00  0.00    +0.000 C 
ATOM     13  O   UNL     1       6.512   5.395  18.976  0.00  0.00    +0.000 OA
ENDBRANCH   5  13
ENDBRANCH   1  11
BRANCH   2  14
ATOM     14  C   UNL     1       2.087   6.433  19.155  0.00  0.00    +0.000 C 
BRANCH  14  15
ATOM     15  C   UNL     1       1.859   5.074  19.796  0.00  0.00    +0.000 A 
ATOM     16  C   UNL     1       1.164   4.056  19.123  0.00  0.00    +0.000 A 
ATOM     17  C   UNL     1       0.931   2.827  19.743  0.00  0.00    +0.000 A 
ATOM     18  C   UNL     1       1.403   2.595  21.034  0.00  0.00    +0.000 A 
ATOM     19  C   UNL     1       2.131   3.582  21.696  0.00  0.00    +0.000 A 
ATOM     20  C   UNL     1       2.365   4.811  21.079  0.00  0.00    +0.000 A 
ENDBRANCH  14  15
BRANCH  14  21
ATOM     21  O   UNL     1       2.288   7.367  20.235  0.00  0.00    +0.000 OA
BRANCH  21  22
ATOM     22  C   UNL     1       1.301   8.297  20.367  0.00  0.00    +0.000 C 
ATOM     23  O   UNL     1       0.398   8.243  21.191  0.00  0.00    +0.000 OA
BRANCH  22  24
ATOM     24  C   UNL     1       1.471   9.436  19.431  0.00  0.00    +0.000 C 
ATOM     25  C   UNL     1       0.604   9.542  18.196  0.00  0.00    +0.000 C 
ATOM     26  C   UNL     1       0.399  10.497  19.333  0.00  0.00    +0.000 C 
ENDBRANCH  22  24
ENDBRANCH  21  22
ENDBRANCH  14  21
ENDBRANCH   2  14
TORSDOF 7
ENDMDL
MODEL 4
REMARK VINA RESULT:      -7.4      2.047      6.847
REMARK  Name = 
REMARK  9 active torsions:
REMARK  status: ('A' for Active; 'I' for Inactive)
REMARK    1  A    between atoms: C_1  and  O_2
REMARK    2  A    between atoms: O_2  and  C_3
REMARK    3  A    between atoms: C_6  and  C_7
REMARK    4  A    between atoms: C_9  and  N_10
REMARK    5  A    between atoms: C_11  and  C_13
REMARK    6  A    between atoms: C_13  and  O_14
REMARK    7  A    between atoms: C_13  and  C_20
REMARK    8  A    between atoms: O_14  and  C_15
REMARK    9  A    between atoms: C_15  and  C_17
REMARK                            x       y       z     vdW  Elec       q    Type
REMARK                         _______ _______ _______ _____ _____    ______ ____
ROOT
ATOM      1  N   UNL     1       1.506   8.394  19.971  0.00  0.00    +0.000 N 
ATOM      2  C   UNL     1       2.173   7.882  18.855  0.00  0.00    +0.000 C 
ATOM      3  O   UNL     1       2.102   8.344  17.715  0.00  0.00    +0.000 OA
ATOM      4  H   UNL     1       1.699   7.996  20.885  0.00  0.00    +0.000 HD
ENDROOT
BRANCH   1  11
ATOM      5  C   UNL     1       0.447  10.251  21.187  0.00  0.00    +0.000 A 
ATOM      6  C   UNL     1      -0.354  11.406  21.181  0.00  0.00    +0.000 A 
ATOM      7  C   UNL     1      -1.026  11.809  20.028  0.00  0.00    +0.000 A 
ATOM      8  C   UNL     1      -0.904  11.065  18.858  0.00  0.00    +0.000 A 
ATOM      9  C   UNL     1      -1.645  11.455  17.615  0.00  0.00    +0.000 C 
ATOM     10  C   UNL     1      -0.082   9.929  18.852  0.00  0.00    +0.000 A 
ATOM     11  C   UNL     1       0.627   9.519  19.990  0.00  0.00    +0.000 A 
BRANCH   5  13
ATOM     12  C   UNL     1       0.243   9.446  23.411  0.00  0.00    +0.000 C 
ATOM     13  O   UNL     1       1.096   9.795  22.316  0.00  0.00    +0.000 OA
ENDBRANCH   5  13
ENDBRANCH   1  11
BRANCH   2  14
ATOM     14  C   UNL     1       3.089   6.652  19.126  0.00  0.00    +0.000 C 
BRANCH  14  15
ATOM     15  C   UNL     1       2.297   5.362  19.253  0.00  0.00    +0.000 A 
ATOM     16  C   UNL     1       1.941   4.609  18.123  0.00  0.00    +0.000 A 
ATOM     17  C   UNL     1       1.180   3.446  18.256  0.00  0.00    +0.000 A 
ATOM     18  C   UNL     1       0.779   3.014  19.519  0.00  0.00    +0.000 A 
ATOM     19  C   UNL     1       1.162   3.729  20.653  0.00  0.00    +0.000 A 
ATOM     20  C   UNL     1       1.922   4.891  20.522  0.00  0.00    +0.000 A 
ENDBRANCH  14  15
BRANCH  14  21
ATOM     21  O   UNL     1       4.041   6.446  18.062  0.00  0.00    +0.000 OA
BRANCH  21  22
ATOM     22  C   UNL     1       5.140   5.726  18.421  0.00  0.00    +0.000 C 
ATOM     23  O   UNL     1       5.500   5.532  19.574  0.00  0.00    +0.000 OA
BRANCH  22  24
ATOM     24  C   UNL     1       5.835   5.137  17.250  0.00  0.00    +0.000 C 
ATOM     25  C   UNL     1       5.183   4.025  16.458  0.00  0.00    +0.000 C 
ATOM     26  C   UNL     1       5.310   5.393  15.855  0.00  0.00    +0.000 C 
ENDBRANCH  22  24
ENDBRANCH  21  22
ENDBRANCH  14  21
ENDBRANCH   2  14
TORSDOF 7
ENDMDL
MODEL 5
REMARK VINA RESULT:      -7.3      2.101      7.018
REMARK  Name = 
REMARK  9 active torsions:
REMARK  status: ('A' for Active; 'I' for Inactive)
REMARK    1  A    between atoms: C_1  and  O_2
REMARK    2  A    between atoms: O_2  and  C_3
REMARK    3  A    between atoms: C_6  and  C_7
REMARK    4  A    between atoms: C_9  and  N_10
REMARK    5  A    between atoms: C_11  and  C_13
REMARK    6  A    between atoms: C_13  and  O_14
REMARK    7  A    between atoms: C_13  and  C_20
REMARK    8  A    between atoms: O_14  and  C_15
REMARK    9  A    between atoms: C_15  and  C_17
REMARK                            x       y       z     vdW  Elec       q    Type
REMARK                         _______ _______ _______ _____ _____    ______ ____
ROOT
ATOM      1  N   UNL     1       1.518   8.562  19.505  0.00  0.00    +0.000 N 
ATOM      2  C   UNL     1       2.241   8.191  18.368  0.00  0.00    +0.000 C 
ATOM      3  O   UNL     1       2.206   8.778  17.285  0.00  0.00    +0.000 OA
ATOM      4  H   UNL     1       1.682   8.067  20.376  0.00  0.00    +0.000 HD
ENDROOT
BRANCH   1  11
ATOM      5  C   UNL     1       0.515  10.374  20.830  0.00  0.00    +0.000 A 
ATOM      6  C   UNL     1      -0.315  11.506  20.907  0.00  0.00    +0.000 A 
ATOM      7  C   UNL     1      -1.092  11.904  19.820  0.00  0.00    +0.000 A 
ATOM      8  C   UNL     1      -1.048  11.176  18.634  0.00  0.00    +0.000 A 
ATOM      9  C   UNL     1      -1.900  11.560  17.462  0.00  0.00    +0.000 C 
ATOM     10  C   UNL     1      -0.199  10.064  18.544  0.00  0.00    +0.000 A 
ATOM     11  C   UNL     1       0.613   9.662  19.613  0.00  0.00    +0.000 A 
BRANCH   5  13
ATOM     12  C   UNL     1       0.517   9.402  22.996  0.00  0.00    +0.000 C 
ATOM     13  O   UNL     1       1.268   9.924  21.895  0.00  0.00    +0.000 OA
ENDBRANCH   5  13
ENDBRANCH   1  11
BRANCH   2  14
ATOM     14  C   UNL     1       3.173   6.956  18.539  0.00  0.00    +0.000 C 
BRANCH  14  15
ATOM     15  C   UNL     1       2.405   5.708  18.942  0.00  0.00    +0.000 A 
ATOM     16  C   UNL     1       2.193   5.385  20.292  0.00  0.00    +0.000 A 
ATOM     17  C   UNL     1       1.518   4.214  20.643  0.00  0.00    +0.000 A 
ATOM     18  C   UNL     1       1.035   3.362  19.652  0.00  0.00    +0.000 A 
ATOM     19  C   UNL     1       1.202   3.693  18.308  0.00  0.00    +0.000 A 
ATOM     20  C   UNL     1       1.876   4.861  17.954  0.00  0.00    +0.000 A 
ENDBRANCH  14  15
BRANCH  14  21
ATOM     21  O   UNL     1       3.867   6.633  17.316  0.00  0.00    +0.000 OA
BRANCH  21  22
ATOM     22  C   UNL     1       5.020   5.928  17.491  0.00  0.00    +0.000 C 
ATOM     23  O   UNL     1       5.803   6.093  18.416  0.00  0.00    +0.000 OA
BRANCH  22  24
ATOM     24  C   UNL     1       5.199   4.876  16.460  0.00  0.00    +0.000 C 
ATOM     25  C   UNL     1       5.690   5.242  15.077  0.00  0.00    +0.000 C 
ATOM     26  C   UNL     1       6.591   4.491  16.011  0.00  0.00    +0.000 C 
ENDBRANCH  22  24
ENDBRANCH  21  22
ENDBRANCH  14  21
ENDBRANCH   2  14
TORSDOF 7
ENDMDL
MODEL 6
REMARK VINA RESULT:      -7.3      0.862      1.542
REMARK  Name = 
REMARK  9 active torsions:
REMARK  status: ('A' for Active; 'I' for Inactive)
REMARK    1  A    between atoms: C_1  and  O_2
REMARK    2  A    between atoms: O_2  and  C_3
REMARK    3  A    between atoms: C_6  and  C_7
REMARK    4  A    between atoms: C_9  and  N_10
REMARK    5  A    between atoms: C_11  and  C_13
REMARK    6  A    between atoms: C_13  and  O_14
REMARK    7  A    between atoms: C_13  and  C_20
REMARK    8  A    between atoms: O_14  and  C_15
REMARK    9  A    between atoms: C_15  and  C_17
REMARK                            x       y       z     vdW  Elec       q    Type
REMARK                         _______ _______ _______ _____ _____    ______ ____
ROOT
ATOM      1  N   UNL     1       3.948   5.220  18.055  0.00  0.00    +0.000 N 
ATOM      2  C   UNL     1       3.310   6.456  18.189  0.00  0.00    +0.000 C 
ATOM      3  O   UNL     1       3.606   7.476  17.564  0.00  0.00    +0.000 OA
ATOM      4  H   UNL     1       3.573   4.417  18.550  0.00  0.00    +0.000 HD
ENDROOT
BRANCH   1  11
ATOM      5  C   UNL     1       6.367   4.960  17.700  0.00  0.00    +0.000 A 
ATOM      6  C   UNL     1       7.439   4.586  16.870  0.00  0.00    +0.000 A 
ATOM      7  C   UNL     1       7.230   4.237  15.537  0.00  0.00    +0.000 A 
ATOM      8  C   UNL     1       5.942   4.252  15.011  0.00  0.00    +0.000 A 
ATOM      9  C   UNL     1       5.693   3.917  13.572  0.00  0.00    +0.000 C 
ATOM     10  C   UNL     1       4.866   4.595  15.843  0.00  0.00    +0.000 A 
ATOM     11  C   UNL     1       5.048   4.922  17.194  0.00  0.00    +0.000 A 
BRANCH   5  13
ATOM     12  C   UNL     1       7.841   5.840  19.340  0.00  0.00    +0.000 C 
ATOM     13  O   UNL     1       6.536   5.351  19.012  0.00  0.00    +0.000 OA
ENDBRANCH   5  13
ENDBRANCH   1  11
BRANCH   2  14
ATOM     14  C   UNL     1       2.120   6.492  19.193  0.00  0.00    +0.000 C 
BRANCH  14  15
ATOM     15  C   UNL     1       1.870   5.138  19.836  0.00  0.00    +0.000 A 
ATOM     16  C   UNL     1       2.341   4.845  21.126  0.00  0.00    +0.000 A 
ATOM     17  C   UNL     1       2.135   3.582  21.686  0.00  0.00    +0.000 A 
ATOM     18  C   UNL     1       1.443   2.606  20.972  0.00  0.00    +0.000 A 
ATOM     19  C   UNL     1       0.933   2.899  19.709  0.00  0.00    +0.000 A 
ATOM     20  C   UNL     1       1.138   4.159  19.146  0.00  0.00    +0.000 A 
ENDBRANCH  14  15
BRANCH  14  21
ATOM     21  O   UNL     1       2.353   7.422  20.270  0.00  0.00    +0.000 OA
BRANCH  21  22
ATOM     22  C   UNL     1       1.315   8.269  20.518  0.00  0.00    +0.000 C 
ATOM     23  O   UNL     1       0.853   8.499  21.627  0.00  0.00    +0.000 OA
BRANCH  22  24
ATOM     24  C   UNL     1       0.833   8.944  19.288  0.00  0.00    +0.000 C 
ATOM     25  C   UNL     1       0.292  10.355  19.356  0.00  0.00    +0.000 C 
ATOM     26  C   UNL     1       1.618  10.097  18.705  0.00  0.00    +0.000 C 
ENDBRANCH  22  24
ENDBRANCH  21  22
ENDBRANCH  14  21
ENDBRANCH   2  14
TORSDOF 7
ENDMDL
MODEL 7
REMARK VINA RESULT:      -7.3      1.945      6.235
REMARK  Name = 
REMARK  9 active torsions:
REMARK  status: ('A' for Active; 'I' for Inactive)
REMARK    1  A    between atoms: C_1  and  O_2
REMARK    2  A    between atoms: O_2  and  C_3
REMARK    3  A    between atoms: C_6  and  C_7
REMARK    4  A    between atoms: C_9  and  N_10
REMARK    5  A    between atoms: C_11  and  C_13
REMARK    6  A    between atoms: C_13  and  O_14
REMARK    7  A    between atoms: C_13  and  C_20
REMARK    8  A    between atoms: O_14  and  C_15
REMARK    9  A    between atoms: C_15  and  C_17
REMARK                            x       y       z     vdW  Elec       q    Type
REMARK                         _______ _______ _______ _____ _____    ______ ____
ROOT
ATOM      1  N   UNL     1       3.180   5.928  18.635  0.00  0.00    +0.000 N 
ATOM      2  C   UNL     1       2.629   4.821  17.983  0.00  0.00    +0.000 C 
ATOM      3  O   UNL     1       1.473   4.753  17.559  0.00  0.00    +0.000 OA
ATOM      4  H   UNL     1       4.168   5.919  18.868  0.00  0.00    +0.000 HD
ENDROOT
BRANCH   1  11
ATOM      5  C   UNL     1       2.467   8.183  17.965  0.00  0.00    +0.000 A 
ATOM      6  C   UNL     1       1.739   9.356  18.232  0.00  0.00    +0.000 A 
ATOM      7  C   UNL     1       1.112   9.549  19.461  0.00  0.00    +0.000 A 
ATOM      8  C   UNL     1       1.198   8.568  20.445  0.00  0.00    +0.000 A 
ATOM      9  C   UNL     1       0.564   8.765  21.788  0.00  0.00    +0.000 C 
ATOM     10  C   UNL     1       1.898   7.384  20.172  0.00  0.00    +0.000 A 
ATOM     11  C   UNL     1       2.513   7.154  18.933  0.00  0.00    +0.000 A 
BRANCH   5  13
ATOM     12  C   UNL     1       4.536   7.700  16.905  0.00  0.00    +0.000 C 
ATOM     13  O   UNL     1       3.136   7.971  16.777  0.00  0.00    +0.000 OA
ENDBRANCH   5  13
ENDBRANCH   1  11
BRANCH   2  14
ATOM     14  C   UNL     1       3.593   3.618  17.770  0.00  0.00    +0.000 C 
BRANCH  14  15
ATOM     15  C   UNL     1       4.904   4.039  17.127  0.00  0.00    +0.000 A 
ATOM     16  C   UNL     1       6.053   4.280  17.898  0.00  0.00    +0.000 A 
ATOM     17  C   UNL     1       7.237   4.704  17.293  0.00  0.00    +0.000 A 
ATOM     18  C   UNL     1       7.293   4.876  15.911  0.00  0.00    +0.000 A 
ATOM     19  C   UNL     1       6.173   4.598  15.130  0.00  0.00    +0.000 A 
ATOM     20  C   UNL     1       4.988   4.175  15.731  0.00  0.00    +0.000 A 
ENDBRANCH  14  15
BRANCH  14  21
ATOM     21  O   UNL     1       3.936   2.976  19.016  0.00  0.00    +0.000 OA
BRANCH  21  22
ATOM     22  C   UNL     1       2.899   2.335  19.623  0.00  0.00    +0.000 C 
ATOM     23  O   UNL     1       2.159   1.531  19.073  0.00  0.00    +0.000 OA
BRANCH  22  24
ATOM     24  C   UNL     1       2.794   2.672  21.064  0.00  0.00    +0.000 C 
ATOM     25  C   UNL     1       2.137   3.963  21.498  0.00  0.00    +0.000 C 
ATOM     26  C   UNL     1       1.444   2.656  21.746  0.00  0.00    +0.000 C 
ENDBRANCH  22  24
ENDBRANCH  21  22
ENDBRANCH  14  21
ENDBRANCH   2  14
TORSDOF 7
ENDMDL
MODEL 8
REMARK VINA RESULT:      -7.3      1.785      3.913
REMARK  Name = 
REMARK  9 active torsions:
REMARK  status: ('A' for Active; 'I' for Inactive)
REMARK    1  A    between atoms: C_1  and  O_2
REMARK    2  A    between atoms: O_2  and  C_3
REMARK    3  A    between atoms: C_6  and  C_7
REMARK    4  A    between atoms: C_9  and  N_10
REMARK    5  A    between atoms: C_11  and  C_13
REMARK    6  A    between atoms: C_13  and  O_14
REMARK    7  A    between atoms: C_13  and  C_20
REMARK    8  A    between atoms: O_14  and  C_15
REMARK    9  A    between atoms: C_15  and  C_17
REMARK                            x       y       z     vdW  Elec       q    Type
REMARK                         _______ _______ _______ _____ _____    ______ ____
ROOT
ATOM      1  N   UNL     1       4.829   4.721  16.662  0.00  0.00    +0.000 N 
ATOM      2  C   UNL     1       4.355   5.913  17.216  0.00  0.00    +0.000 C 
ATOM      3  O   UNL     1       4.460   7.026  16.695  0.00  0.00    +0.000 OA
ATOM      4  H   UNL     1       4.615   3.844  17.126  0.00  0.00    +0.000 HD
ENDROOT
BRANCH   1  11
ATOM      5  C   UNL     1       6.880   4.956  15.327  0.00  0.00    +0.000 A 
ATOM      6  C   UNL     1       7.579   4.737  14.127  0.00  0.00    +0.000 A 
ATOM      7  C   UNL     1       6.939   4.211  13.006  0.00  0.00    +0.000 A 
ATOM      8  C   UNL     1       5.586   3.890  13.068  0.00  0.00    +0.000 A 
ATOM      9  C   UNL     1       4.864   3.357  11.868  0.00  0.00    +0.000 C 
ATOM     10  C   UNL     1       4.892   4.078  14.272  0.00  0.00    +0.000 A 
ATOM     11  C   UNL     1       5.521   4.579  15.421  0.00  0.00    +0.000 A 
BRANCH   5  13
ATOM     12  C   UNL     1       7.751   4.593  17.505  0.00  0.00    +0.000 C 
ATOM     13  O   UNL     1       7.466   5.511  16.445  0.00  0.00    +0.000 OA
ENDBRANCH   5  13
ENDBRANCH   1  11
BRANCH   2  14
ATOM     14  C   UNL     1       3.615   5.773  18.579  0.00  0.00    +0.000 C 
BRANCH  14  15
ATOM     15  C   UNL     1       2.712   6.961  18.867  0.00  0.00    +0.000 A 
ATOM     16  C   UNL     1       2.356   7.870  17.857  0.00  0.00    +0.000 A 
ATOM     17  C   UNL     1       1.557   8.976  18.149  0.00  0.00    +0.000 A 
ATOM     18  C   UNL     1       1.092   9.180  19.447  0.00  0.00    +0.000 A 
ATOM     19  C   UNL     1       1.403   8.262  20.449  0.00  0.00    +0.000 A 
ATOM     20  C   UNL     1       2.201   7.156  20.160  0.00  0.00    +0.000 A 
ENDBRANCH  14  15
BRANCH  14  21
ATOM     21  O   UNL     1       2.775   4.601  18.618  0.00  0.00    +0.000 OA
BRANCH  21  22
ATOM     22  C   UNL     1       3.272   3.576  19.366  0.00  0.00    +0.000 C 
ATOM     23  O   UNL     1       4.448   3.242  19.395  0.00  0.00    +0.000 OA
BRANCH  22  24
ATOM     24  C   UNL     1       2.230   2.935  20.205  0.00  0.00    +0.000 C 
ATOM     25  C   UNL     1       1.995   3.410  21.621  0.00  0.00    +0.000 C 
ATOM     26  C   UNL     1       0.974   3.698  20.561  0.00  0.00    +0.000 C 
ENDBRANCH  22  24
ENDBRANCH  21  22
ENDBRANCH  14  21
ENDBRANCH   2  14
TORSDOF 7
ENDMDL
MODEL 9
REMARK VINA RESULT:      -7.2      1.950      7.378
REMARK  Name = 
REMARK  9 active torsions:
REMARK  status: ('A' for Active; 'I' for Inactive)
REMARK    1  A    between atoms: C_1  and  O_2
REMARK    2  A    between atoms: O_2  and  C_3
REMARK    3  A    between atoms: C_6  and  C_7
REMARK    4  A    between atoms: C_9  and  N_10
REMARK    5  A    between atoms: C_11  and  C_13
REMARK    6  A    between atoms: C_13  and  O_14
REMARK    7  A    between atoms: C_13  and  C_20
REMARK    8  A    between atoms: O_14  and  C_15
REMARK    9  A    between atoms: C_15  and  C_17
REMARK                            x       y       z     vdW  Elec       q    Type
REMARK                         _______ _______ _______ _____ _____    ______ ____
ROOT
ATOM      1  N   UNL     1       3.993   5.195  17.827  0.00  0.00    +0.000 N 
ATOM      2  C   UNL     1       4.787   4.425  16.973  0.00  0.00    +0.000 C 
ATOM      3  O   UNL     1       4.660   3.213  16.789  0.00  0.00    +0.000 OA
ATOM      4  H   UNL     1       4.120   6.202  17.842  0.00  0.00    +0.000 HD
ENDROOT
BRANCH   1  11
ATOM      5  C   UNL     1       2.349   5.572  19.616  0.00  0.00    +0.000 A 
ATOM      6  C   UNL     1       1.237   5.133  20.355  0.00  0.00    +0.000 A 
ATOM      7  C   UNL     1       0.720   3.850  20.183  0.00  0.00    +0.000 A 
ATOM      8  C   UNL     1       1.306   2.983  19.265  0.00  0.00    +0.000 A 
ATOM      9  C   UNL     1       0.793   1.586  19.087  0.00  0.00    +0.000 C 
ATOM     10  C   UNL     1       2.397   3.428  18.505  0.00  0.00    +0.000 A 
ATOM     11  C   UNL     1       2.917   4.723  18.638  0.00  0.00    +0.000 A 
BRANCH   5  13
ATOM     12  C   UNL     1       1.986   7.896  19.935  0.00  0.00    +0.000 C 
ATOM     13  O   UNL     1       2.916   6.818  19.785  0.00  0.00    +0.000 OA
ENDBRANCH   5  13
ENDBRANCH   1  11
BRANCH   2  14
ATOM     14  C   UNL     1       5.883   5.206  16.189  0.00  0.00    +0.000 C 
BRANCH  14  15
ATOM     15  C   UNL     1       6.742   6.064  17.103  0.00  0.00    +0.000 A 
ATOM     16  C   UNL     1       6.945   7.429  16.845  0.00  0.00    +0.000 A 
ATOM     17  C   UNL     1       7.768   8.192  17.674  0.00  0.00    +0.000 A 
ATOM     18  C   UNL     1       8.385   7.606  18.778  0.00  0.00    +0.000 A 
ATOM     19  C   UNL     1       8.157   6.262  19.069  0.00  0.00    +0.000 A 
ATOM     20  C   UNL     1       7.335   5.497  18.242  0.00  0.00    +0.000 A 
ENDBRANCH  14  15
BRANCH  14  21
ATOM     21  O   UNL     1       6.783   4.318  15.494  0.00  0.00    +0.000 OA
BRANCH  21  22
ATOM     22  C   UNL     1       6.862   4.533  14.151  0.00  0.00    +0.000 C 
ATOM     23  O   UNL     1       7.429   5.484  13.631  0.00  0.00    +0.000 OA
BRANCH  22  24
ATOM     24  C   UNL     1       6.231   3.442  13.368  0.00  0.00    +0.000 C 
ATOM     25  C   UNL     1       5.101   3.748  12.410  0.00  0.00    +0.000 C 
ATOM     26  C   UNL     1       6.448   3.366  11.873  0.00  0.00    +0.000 C 
ENDBRANCH  22  24
ENDBRANCH  21  22
ENDBRANCH  14  21
ENDBRANCH   2  14
TORSDOF 7
ENDMDL
