MODEL 1
REMARK VINA RESULT:      -8.0      0.000      0.000
REMARK  Name = 
REMARK  4 active torsions:
REMARK  status: ('A' for Active; 'I' for Inactive)
REMARK    1  A    between atoms: N_2  and  C_4
REMARK    2  A    between atoms: C_9  and  C_10
REMARK    3  A    between atoms: C_13  and  S_14
REMARK    4  A    between atoms: S_14  and  C_15
REMARK                            x       y       z     vdW  Elec       q    Type
REMARK                         _______ _______ _______ _____ _____    ______ ____
ROOT
ATOM      1  C   UNL     1       2.783   7.469  18.071  0.00  0.00    +0.000 A 
ATOM      2  N   UNL     1       2.553   8.589  17.420  0.00  0.00    +0.000 NA
ATOM      3  N   UNL     1       1.730   9.348  18.213  0.00  0.00    +0.000 NA
ATOM      4  C   UNL     1       1.499   8.671  19.322  0.00  0.00    +0.000 A 
ATOM      5  O   UNL     1       2.164   7.447  19.315  0.00  0.00    +0.000 OA
ENDROOT
BRANCH   1  11
ATOM      6  C   UNL     1       3.353   5.002  17.703  0.00  0.00    +0.000 A 
ATOM      7  C   UNL     1       4.228   4.008  17.212  0.00  0.00    +0.000 A 
ATOM      8  C   UNL     1       5.428   4.378  16.611  0.00  0.00    +0.000 A 
ATOM      9  C   UNL     1       5.746   5.726  16.494  0.00  0.00    +0.000 A 
ATOM     10  C   UNL     1       4.872   6.703  16.997  0.00  0.00    +0.000 A 
ATOM     11  C   UNL     1       3.649   6.367  17.630  0.00  0.00    +0.000 A 
BRANCH   6  13
ATOM     12  O   UNL     1       1.957   4.301  19.383  0.00  0.00    +0.000 OA
ATOM     13  N   UNL     1       2.059   4.555  18.176  0.00  0.00    +0.000 N 
ATOM     14  O   UNL     1       1.165   4.413  17.330  0.00  0.00    +0.000 OA
ENDBRANCH   6  13
ENDBRANCH   1  11
BRANCH   4  15
ATOM     15  S   UNL     1       0.526   9.412  20.592  0.00  0.00    +0.000 S 
BRANCH  15  16
ATOM     16  C   UNL     1      -0.179  10.778  19.855  0.00  0.00    +0.000 C 
ATOM     17  C   UNL     1       0.146  12.052  20.151  0.00  0.00    +0.000 C 
ATOM     18  S   UNL     1      -0.942  13.140  19.349  0.00  0.00    +0.000 S 
ATOM     19  O   UNL     1      -1.571  14.025  20.321  0.00  0.00    +0.000 OA
ATOM     20  O   UNL     1      -0.365  13.615  18.113  0.00  0.00    +0.000 OA
ATOM     21  C   UNL     1      -2.044  11.846  18.974  0.00  0.00    +0.000 A 
ATOM     22  C   UNL     1      -3.388  11.913  18.676  0.00  0.00    +0.000 A 
ATOM     23  C   UNL     1      -3.914  10.821  17.998  0.00  0.00    +0.000 A 
ATOM     24  C   UNL     1      -3.063   9.781  17.579  0.00  0.00    +0.000 A 
ATOM     25  C   UNL     1      -1.758   9.682  18.082  0.00  0.00    +0.000 A 
ATOM     26  C   UNL     1      -1.312  10.671  18.934  0.00  0.00    +0.000 A 
ENDBRANCH  15  16
ENDBRANCH   4  15
TORSDOF 4
ENDMDL
MODEL 2
REMARK VINA RESULT:      -8.0      3.322      8.465
REMARK  Name = 
REMARK  4 active torsions:
REMARK  status: ('A' for Active; 'I' for Inactive)
REMARK    1  A    between atoms: N_2  and  C_4
REMARK    2  A    between atoms: C_9  and  C_10
REMARK    3  A    between atoms: C_13  and  S_14
REMARK    4  A    between atoms: S_14  and  C_15
REMARK                            x       y       z     vdW  Elec       q    Type
REMARK                         _______ _______ _______ _____ _____    ______ ____
ROOT
ATOM      1  C   UNL     1       1.822   8.077  19.838  0.00  0.00    +0.000 A 
ATOM      2  N   UNL     1       2.338   8.326  18.653  0.00  0.00    +0.000 NA
ATOM      3  N   UNL     1       2.930   7.164  18.226  0.00  0.00    +0.000 NA
ATOM      4  C   UNL     1       2.741   6.247  19.155  0.00  0.00    +0.000 A 
ATOM      5  O   UNL     1       2.013   6.756  20.228  0.00  0.00    +0.000 OA
ENDROOT
BRANCH   1  11
ATOM      6  C   UNL     1       0.430  10.188  20.229  0.00  0.00    +0.000 A 
ATOM      7  C   UNL     1      -0.333  11.010  21.087  0.00  0.00    +0.000 A 
ATOM      8  C   UNL     1      -0.503  10.647  22.420  0.00  0.00    +0.000 A 
ATOM      9  C   UNL     1       0.074   9.473  22.888  0.00  0.00    +0.000 A 
ATOM     10  C   UNL     1       0.840   8.671  22.025  0.00  0.00    +0.000 A 
ATOM     11  C   UNL     1       1.051   9.013  20.666  0.00  0.00    +0.000 A 
BRANCH   6  13
ATOM     12  O   UNL     1       1.312  11.338  18.450  0.00  0.00    +0.000 OA
ATOM     13  N   UNL     1       0.438  10.544  18.824  0.00  0.00    +0.000 N 
ATOM     14  O   UNL     1      -0.456  10.066  18.113  0.00  0.00    +0.000 OA
ENDBRANCH   6  13
ENDBRANCH   1  11
BRANCH   4  15
ATOM     15  S   UNL     1       3.321   4.607  18.873  0.00  0.00    +0.000 S 
BRANCH  15  16
ATOM     16  C   UNL     1       4.963   4.797  18.450  0.00  0.00    +0.000 C 
ATOM     17  C   UNL     1       5.895   5.343  19.255  0.00  0.00    +0.000 C 
ATOM     18  S   UNL     1       7.379   5.553  18.381  0.00  0.00    +0.000 S 
ATOM     19  O   UNL     1       7.806   6.946  18.448  0.00  0.00    +0.000 OA
ATOM     20  O   UNL     1       8.274   4.446  18.626  0.00  0.00    +0.000 OA
ATOM     21  C   UNL     1       6.583   5.285  16.858  0.00  0.00    +0.000 A 
ATOM     22  C   UNL     1       6.979   5.665  15.594  0.00  0.00    +0.000 A 
ATOM     23  C   UNL     1       6.412   4.960  14.541  0.00  0.00    +0.000 A 
ATOM     24  C   UNL     1       5.563   3.868  14.807  0.00  0.00    +0.000 A 
ATOM     25  C   UNL     1       5.050   3.662  16.095  0.00  0.00    +0.000 A 
ATOM     26  C   UNL     1       5.460   4.511  17.103  0.00  0.00    +0.000 A 
ENDBRANCH  15  16
ENDBRANCH   4  15
TORSDOF 4
ENDMDL
MODEL 3
REMARK VINA RESULT:      -7.7      2.475      3.276
REMARK  Name = 
REMARK  4 active torsions:
REMARK  status: ('A' for Active; 'I' for Inactive)
REMARK    1  A    between atoms: N_2  and  C_4
REMARK    2  A    between atoms: C_9  and  C_10
REMARK    3  A    between atoms: C_13  and  S_14
REMARK    4  A    between atoms: S_14  and  C_15
REMARK                            x       y       z     vdW  Elec       q    Type
REMARK                         _______ _______ _______ _____ _____    ______ ____
ROOT
ATOM      1  C   UNL     1       2.283   6.298  18.899  0.00  0.00    +0.000 A 
ATOM      2  N   UNL     1       2.028   6.705  20.124  0.00  0.00    +0.000 NA
ATOM      3  N   UNL     1       1.790   8.054  20.052  0.00  0.00    +0.000 NA
ATOM      4  C   UNL     1       1.894   8.417  18.788  0.00  0.00    +0.000 A 
ATOM      5  O   UNL     1       2.194   7.329  17.972  0.00  0.00    +0.000 OA
ENDROOT
BRANCH   1  11
ATOM      6  C   UNL     1       3.779   4.412  18.033  0.00  0.00    +0.000 A 
ATOM      7  C   UNL     1       3.964   3.053  17.690  0.00  0.00    +0.000 A 
ATOM      8  C   UNL     1       2.904   2.160  17.814  0.00  0.00    +0.000 A 
ATOM      9  C   UNL     1       1.677   2.615  18.283  0.00  0.00    +0.000 A 
ATOM     10  C   UNL     1       1.506   3.970  18.607  0.00  0.00    +0.000 A 
ATOM     11  C   UNL     1       2.554   4.916  18.480  0.00  0.00    +0.000 A 
BRANCH   6  13
ATOM     12  O   UNL     1       5.228   5.838  16.968  0.00  0.00    +0.000 OA
ATOM     13  N   UNL     1       4.960   5.251  18.025  0.00  0.00    +0.000 N 
ATOM     14  O   UNL     1       5.640   5.281  19.060  0.00  0.00    +0.000 OA
ENDBRANCH   6  13
ENDBRANCH   1  11
BRANCH   4  15
ATOM     15  S   UNL     1       1.569  10.093  18.346  0.00  0.00    +0.000 S 
BRANCH  15  16
ATOM     16  C   UNL     1      -0.131  10.223  18.372  0.00  0.00    +0.000 C 
ATOM     17  C   UNL     1      -0.929   9.957  17.318  0.00  0.00    +0.000 C 
ATOM     18  S   UNL     1      -2.561  10.418  17.682  0.00  0.00    +0.000 S 
ATOM     19  O   UNL     1      -3.056  11.345  16.672  0.00  0.00    +0.000 OA
ATOM     20  O   UNL     1      -3.320   9.277  18.138  0.00  0.00    +0.000 OA
ATOM     21  C   UNL     1      -2.051  11.326  19.075  0.00  0.00    +0.000 A 
ATOM     22  C   UNL     1      -2.703  12.350  19.728  0.00  0.00    +0.000 A 
ATOM     23  C   UNL     1      -2.299  12.592  21.034  0.00  0.00    +0.000 A 
ATOM     24  C   UNL     1      -1.348  11.750  21.640  0.00  0.00    +0.000 A 
ATOM     25  C   UNL     1      -0.589  10.861  20.866  0.00  0.00    +0.000 A 
ATOM     26  C   UNL     1      -0.855  10.783  19.514  0.00  0.00    +0.000 A 
ENDBRANCH  15  16
ENDBRANCH   4  15
TORSDOF 4
ENDMDL
MODEL 4
REMARK VINA RESULT:      -7.6      1.726      1.797
REMARK  Name = 
REMARK  4 active torsions:
REMARK  status: ('A' for Active; 'I' for Inactive)
REMARK    1  A    between atoms: N_2  and  C_4
REMARK    2  A    between atoms: C_9  and  C_10
REMARK    3  A    between atoms: C_13  and  S_14
REMARK    4  A    between atoms: S_14  and  C_15
REMARK                            x       y       z     vdW  Elec       q    Type
REMARK                         _______ _______ _______ _____ _____    ______ ____
ROOT
ATOM      1  C   UNL     1       2.730   6.449  19.214  0.00  0.00    +0.000 A 
ATOM      2  N   UNL     1       2.289   5.692  20.196  0.00  0.00    +0.000 NA
ATOM      3  N   UNL     1       1.504   6.489  20.990  0.00  0.00    +0.000 NA
ATOM      4  C   UNL     1       1.483   7.696  20.458  0.00  0.00    +0.000 A 
ATOM      5  O   UNL     1       2.241   7.748  19.290  0.00  0.00    +0.000 OA
ENDROOT
BRANCH   1  11
ATOM      6  C   UNL     1       3.556   4.759  17.479  0.00  0.00    +0.000 A 
ATOM      7  C   UNL     1       4.375   4.441  16.373  0.00  0.00    +0.000 A 
ATOM      8  C   UNL     1       5.226   5.406  15.843  0.00  0.00    +0.000 A 
ATOM      9  C   UNL     1       5.254   6.676  16.406  0.00  0.00    +0.000 A 
ATOM     10  C   UNL     1       4.443   6.974  17.513  0.00  0.00    +0.000 A 
ATOM     11  C   UNL     1       3.575   6.016  18.093  0.00  0.00    +0.000 A 
BRANCH   6  13
ATOM     12  O   UNL     1       2.981   2.867  18.644  0.00  0.00    +0.000 OA
ATOM     13  N   UNL     1       2.587   3.760  17.882  0.00  0.00    +0.000 N 
ATOM     14  O   UNL     1       1.452   3.844  17.395  0.00  0.00    +0.000 OA
ENDBRANCH   6  13
ENDBRANCH   1  11
BRANCH   4  15
ATOM     15  S   UNL     1       0.491   8.947  21.205  0.00  0.00    +0.000 S 
BRANCH  15  16
ATOM     16  C   UNL     1       0.648  10.296  20.173  0.00  0.00    +0.000 C 
ATOM     17  C   UNL     1       1.423  11.366  20.437  0.00  0.00    +0.000 C 
ATOM     18  S   UNL     1       1.139  12.605  19.255  0.00  0.00    +0.000 S 
ATOM     19  O   UNL     1       0.761  13.848  19.915  0.00  0.00    +0.000 OA
ATOM     20  O   UNL     1       2.131  12.544  18.208  0.00  0.00    +0.000 OA
ATOM     21  C   UNL     1      -0.302  11.811  18.690  0.00  0.00    +0.000 A 
ATOM     22  C   UNL     1      -1.372  12.343  18.004  0.00  0.00    +0.000 A 
ATOM     23  C   UNL     1      -2.155  11.436  17.302  0.00  0.00    +0.000 A 
ATOM     24  C   UNL     1      -1.778  10.081  17.247  0.00  0.00    +0.000 A 
ATOM     25  C   UNL     1      -0.803   9.578  18.119  0.00  0.00    +0.000 A 
ATOM     26  C   UNL     1      -0.174  10.461  18.973  0.00  0.00    +0.000 A 
ENDBRANCH  15  16
ENDBRANCH   4  15
TORSDOF 4
ENDMDL
MODEL 5
REMARK VINA RESULT:      -7.6      1.335      2.518
REMARK  Name = 
REMARK  4 active torsions:
REMARK  status: ('A' for Active; 'I' for Inactive)
REMARK    1  A    between atoms: N_2  and  C_4
REMARK    2  A    between atoms: C_9  and  C_10
REMARK    3  A    between atoms: C_13  and  S_14
REMARK    4  A    between atoms: S_14  and  C_15
REMARK                            x       y       z     vdW  Elec       q    Type
REMARK                         _______ _______ _______ _____ _____    ______ ____
ROOT
ATOM      1  C   UNL     1       2.771   7.461  18.097  0.00  0.00    +0.000 A 
ATOM      2  N   UNL     1       2.418   8.538  17.429  0.00  0.00    +0.000 NA
ATOM      3  N   UNL     1       1.665   9.305  18.282  0.00  0.00    +0.000 NA
ATOM      4  C   UNL     1       1.598   8.677  19.440  0.00  0.00    +0.000 A 
ATOM      5  O   UNL     1       2.308   7.478  19.408  0.00  0.00    +0.000 OA
ENDROOT
BRANCH   1  11
ATOM      6  C   UNL     1       3.326   5.005  17.643  0.00  0.00    +0.000 A 
ATOM      7  C   UNL     1       4.187   4.023  17.102  0.00  0.00    +0.000 A 
ATOM      8  C   UNL     1       5.372   4.409  16.484  0.00  0.00    +0.000 A 
ATOM      9  C   UNL     1       5.691   5.759  16.398  0.00  0.00    +0.000 A 
ATOM     10  C   UNL     1       4.832   6.722  16.951  0.00  0.00    +0.000 A 
ATOM     11  C   UNL     1       3.623   6.371  17.603  0.00  0.00    +0.000 A 
BRANCH   6  13
ATOM     12  O   UNL     1       1.958   4.297  19.344  0.00  0.00    +0.000 OA
ATOM     13  N   UNL     1       2.042   4.547  18.134  0.00  0.00    +0.000 N 
ATOM     14  O   UNL     1       1.140   4.392  17.300  0.00  0.00    +0.000 OA
ENDBRANCH   6  13
ENDBRANCH   1  11
BRANCH   4  15
ATOM     15  S   UNL     1       0.756   9.443  20.786  0.00  0.00    +0.000 S 
BRANCH  15  16
ATOM     16  C   UNL     1      -0.288  10.575  20.053  0.00  0.00    +0.000 C 
ATOM     17  C   UNL     1      -1.344  10.245  19.283  0.00  0.00    +0.000 C 
ATOM     18  S   UNL     1      -2.011  11.671  18.554  0.00  0.00    +0.000 S 
ATOM     19  O   UNL     1      -2.055  11.519  17.105  0.00  0.00    +0.000 OA
ATOM     20  O   UNL     1      -3.131  12.158  19.326  0.00  0.00    +0.000 OA
ATOM     21  C   UNL     1      -0.607  12.609  18.977  0.00  0.00    +0.000 A 
ATOM     22  C   UNL     1      -0.148  13.781  18.416  0.00  0.00    +0.000 A 
ATOM     23  C   UNL     1       0.711  14.535  19.204  0.00  0.00    +0.000 A 
ATOM     24  C   UNL     1       0.986  14.132  20.525  0.00  0.00    +0.000 A 
ATOM     25  C   UNL     1       0.648  12.842  20.960  0.00  0.00    +0.000 A 
ATOM     26  C   UNL     1      -0.025  12.015  20.084  0.00  0.00    +0.000 A 
ENDBRANCH  15  16
ENDBRANCH   4  15
TORSDOF 4
ENDMDL
MODEL 6
REMARK VINA RESULT:      -7.5      3.416      8.252
REMARK  Name = 
REMARK  4 active torsions:
REMARK  status: ('A' for Active; 'I' for Inactive)
REMARK    1  A    between atoms: N_2  and  C_4
REMARK    2  A    between atoms: C_9  and  C_10
REMARK    3  A    between atoms: C_13  and  S_14
REMARK    4  A    between atoms: S_14  and  C_15
REMARK                            x       y       z     vdW  Elec       q    Type
REMARK                         _______ _______ _______ _____ _____    ______ ____
ROOT
ATOM      1  C   UNL     1       1.796   8.617  18.985  0.00  0.00    +0.000 A 
ATOM      2  N   UNL     1       2.553   8.593  17.909  0.00  0.00    +0.000 NA
ATOM      3  N   UNL     1       3.184   7.375  17.896  0.00  0.00    +0.000 NA
ATOM      4  C   UNL     1       2.779   6.697  18.953  0.00  0.00    +0.000 A 
ATOM      5  O   UNL     1       1.860   7.429  19.702  0.00  0.00    +0.000 OA
ENDROOT
BRANCH   1  11
ATOM      6  C   UNL     1       0.198   9.794  20.601  0.00  0.00    +0.000 A 
ATOM      7  C   UNL     1      -0.611  10.903  20.933  0.00  0.00    +0.000 A 
ATOM      8  C   UNL     1      -0.714  11.972  20.048  0.00  0.00    +0.000 A 
ATOM      9  C   UNL     1      -0.011  11.938  18.850  0.00  0.00    +0.000 A 
ATOM     10  C   UNL     1       0.779  10.823  18.528  0.00  0.00    +0.000 A 
ATOM     11  C   UNL     1       0.899   9.707  19.394  0.00  0.00    +0.000 A 
BRANCH   6  13
ATOM     12  O   UNL     1       1.404   8.872  22.322  0.00  0.00    +0.000 OA
ATOM     13  N   UNL     1       0.381   8.790  21.630  0.00  0.00    +0.000 N 
ATOM     14  O   UNL     1      -0.474   7.898  21.709  0.00  0.00    +0.000 OA
ENDBRANCH   6  13
ENDBRANCH   1  11
BRANCH   4  15
ATOM     15  S   UNL     1       3.354   5.047  19.186  0.00  0.00    +0.000 S 
BRANCH  15  16
ATOM     16  C   UNL     1       4.977   5.078  18.661  0.00  0.00    +0.000 C 
ATOM     17  C   UNL     1       6.002   5.560  19.391  0.00  0.00    +0.000 C 
ATOM     18  S   UNL     1       7.441   5.613  18.424  0.00  0.00    +0.000 S 
ATOM     19  O   UNL     1       7.991   6.963  18.420  0.00  0.00    +0.000 OA
ATOM     20  O   UNL     1       8.249   4.438  18.653  0.00  0.00    +0.000 OA
ATOM     21  C   UNL     1       6.532   5.375  16.960  0.00  0.00    +0.000 A 
ATOM     22  C   UNL     1       6.882   5.683  15.664  0.00  0.00    +0.000 A 
ATOM     23  C   UNL     1       6.190   5.003  14.670  0.00  0.00    +0.000 A 
ATOM     24  C   UNL     1       5.267   3.998  15.021  0.00  0.00    +0.000 A 
ATOM     25  C   UNL     1       4.819   3.875  16.344  0.00  0.00    +0.000 A 
ATOM     26  C   UNL     1       5.363   4.711  17.297  0.00  0.00    +0.000 A 
ENDBRANCH  15  16
ENDBRANCH   4  15
TORSDOF 4
ENDMDL
MODEL 7
REMARK VINA RESULT:      -7.5      3.800      8.378
REMARK  Name = 
REMARK  4 active torsions:
REMARK  status: ('A' for Active; 'I' for Inactive)
REMARK    1  A    between atoms: N_2  and  C_4
REMARK    2  A    between atoms: C_9  and  C_10
REMARK    3  A    between atoms: C_13  and  S_14
REMARK    4  A    between atoms: S_14  and  C_15
REMARK                            x       y       z     vdW  Elec       q    Type
REMARK                         _______ _______ _______ _____ _____    ______ ____
ROOT
ATOM      1  C   UNL     1       1.921   7.576  19.450  0.00  0.00    +0.000 A 
ATOM      2  N   UNL     1       1.922   6.829  20.534  0.00  0.00    +0.000 NA
ATOM      3  N   UNL     1       2.357   5.584  20.157  0.00  0.00    +0.000 NA
ATOM      4  C   UNL     1       2.618   5.619  18.864  0.00  0.00    +0.000 A 
ATOM      5  O   UNL     1       2.378   6.885  18.334  0.00  0.00    +0.000 OA
ENDROOT
BRANCH   1  11
ATOM      6  C   UNL     1       0.932   9.750  20.369  0.00  0.00    +0.000 A 
ATOM      7  C   UNL     1       0.672  11.132  20.230  0.00  0.00    +0.000 A 
ATOM      8  C   UNL     1       1.074  11.798  19.076  0.00  0.00    +0.000 A 
ATOM      9  C   UNL     1       1.736  11.095  18.077  0.00  0.00    +0.000 A 
ATOM     10  C   UNL     1       1.977   9.720  18.223  0.00  0.00    +0.000 A 
ATOM     11  C   UNL     1       1.570   9.000  19.375  0.00  0.00    +0.000 A 
BRANCH   6  13
ATOM     12  O   UNL     1      -0.454   8.557  21.754  0.00  0.00    +0.000 OA
ATOM     13  N   UNL     1       0.625   9.155  21.654  0.00  0.00    +0.000 N 
ATOM     14  O   UNL     1       1.441   9.330  22.568  0.00  0.00    +0.000 OA
ENDBRANCH   6  13
ENDBRANCH   1  11
BRANCH   4  15
ATOM     15  S   UNL     1       3.273   4.182  18.081  0.00  0.00    +0.000 S 
BRANCH  15  16
ATOM     16  C   UNL     1       4.935   4.516  17.891  0.00  0.00    +0.000 C 
ATOM     17  C   UNL     1       5.702   5.109  18.827  0.00  0.00    +0.000 C 
ATOM     18  S   UNL     1       7.268   5.464  18.169  0.00  0.00    +0.000 S 
ATOM     19  O   UNL     1       7.564   6.883  18.322  0.00  0.00    +0.000 OA
ATOM     20  O   UNL     1       8.210   4.425  18.513  0.00  0.00    +0.000 OA
ATOM     21  C   UNL     1       6.709   5.180  16.546  0.00  0.00    +0.000 A 
ATOM     22  C   UNL     1       7.240   5.629  15.356  0.00  0.00    +0.000 A 
ATOM     23  C   UNL     1       6.881   4.914  14.222  0.00  0.00    +0.000 A 
ATOM     24  C   UNL     1       6.098   3.750  14.347  0.00  0.00    +0.000 A 
ATOM     25  C   UNL     1       5.434   3.464  15.549  0.00  0.00    +0.000 A 
ATOM     26  C   UNL     1       5.633   4.312  16.620  0.00  0.00    +0.000 A 
ENDBRANCH  15  16
ENDBRANCH   4  15
TORSDOF 4
ENDMDL
MODEL 8
REMARK VINA RESULT:      -7.5      3.138      4.252
REMARK  Name = 
REMARK  4 active torsions:
REMARK  status: ('A' for Active; 'I' for Inactive)
REMARK    1  A    between atoms: N_2  and  C_4
REMARK    2  A    between atoms: C_9  and  C_10
REMARK    3  A    between atoms: C_13  and  S_14
REMARK    4  A    between atoms: S_14  and  C_15
REMARK                            x       y       z     vdW  Elec       q    Type
REMARK                         _______ _______ _______ _____ _____    ______ ____
ROOT
ATOM      1  C   UNL     1       4.246   4.848  17.449  0.00  0.00    +0.000 A 
ATOM      2  N   UNL     1       3.269   3.990  17.644  0.00  0.00    +0.000 NA
ATOM      3  N   UNL     1       2.571   4.426  18.742  0.00  0.00    +0.000 NA
ATOM      4  C   UNL     1       3.138   5.539  19.167  0.00  0.00    +0.000 A 
ATOM      5  O   UNL     1       4.223   5.891  18.368  0.00  0.00    +0.000 OA
ENDROOT
BRANCH   1  11
ATOM      6  C   UNL     1       6.598   5.089  16.468  0.00  0.00    +0.000 A 
ATOM      7  C   UNL     1       7.484   4.988  15.373  0.00  0.00    +0.000 A 
ATOM      8  C   UNL     1       7.004   4.583  14.131  0.00  0.00    +0.000 A 
ATOM      9  C   UNL     1       5.657   4.273  13.987  0.00  0.00    +0.000 A 
ATOM     10  C   UNL     1       4.785   4.390  15.082  0.00  0.00    +0.000 A 
ATOM     11  C   UNL     1       5.231   4.814  16.359  0.00  0.00    +0.000 A 
BRANCH   6  13
ATOM     12  O   UNL     1       7.371   4.403  18.517  0.00  0.00    +0.000 OA
ATOM     13  N   UNL     1       7.190   5.367  17.761  0.00  0.00    +0.000 N 
ATOM     14  O   UNL     1       7.425   6.552  18.033  0.00  0.00    +0.000 OA
ENDBRANCH   6  13
ENDBRANCH   1  11
BRANCH   4  15
ATOM     15  S   UNL     1       2.425   6.399  20.531  0.00  0.00    +0.000 S 
BRANCH  15  16
ATOM     16  C   UNL     1       1.723   7.793  19.843  0.00  0.00    +0.000 C 
ATOM     17  C   UNL     1       2.030   8.272  18.621  0.00  0.00    +0.000 C 
ATOM     18  S   UNL     1       1.269   9.813  18.384  0.00  0.00    +0.000 S 
ATOM     19  O   UNL     1       2.268  10.815  18.035  0.00  0.00    +0.000 OA
ATOM     20  O   UNL     1       0.027   9.660  17.662  0.00  0.00    +0.000 OA
ATOM     21  C   UNL     1       0.902   9.953  20.079  0.00  0.00    +0.000 A 
ATOM     22  C   UNL     1       0.637  11.086  20.817  0.00  0.00    +0.000 A 
ATOM     23  C   UNL     1      -0.044  10.888  22.011  0.00  0.00    +0.000 A 
ATOM     24  C   UNL     1      -0.498   9.600  22.352  0.00  0.00    +0.000 A 
ATOM     25  C   UNL     1      -0.027   8.473  21.663  0.00  0.00    +0.000 A 
ATOM     26  C   UNL     1       0.829   8.671  20.598  0.00  0.00    +0.000 A 
ENDBRANCH  15  16
ENDBRANCH   4  15
TORSDOF 4
ENDMDL
MODEL 9
REMARK VINA RESULT:      -7.5      2.291      3.293
REMARK  Name = 
REMARK  4 active torsions:
REMARK  status: ('A' for Active; 'I' for Inactive)
REMARK    1  A    between atoms: N_2  and  C_4
REMARK    2  A    between atoms: C_9  and  C_10
REMARK    3  A    between atoms: C_13  and  S_14
REMARK    4  A    between atoms: S_14  and  C_15
REMARK                            x       y       z     vdW  Elec       q    Type
REMARK                         _______ _______ _______ _____ _____    ______ ____
ROOT
ATOM      1  C   UNL     1       2.726   7.331  18.398  0.00  0.00    +0.000 A 
ATOM      2  N   UNL     1       2.387   7.366  19.668  0.00  0.00    +0.000 NA
ATOM      3  N   UNL     1       1.571   8.457  19.831  0.00  0.00    +0.000 NA
ATOM      4  C   UNL     1       1.432   9.038  18.654  0.00  0.00    +0.000 A 
ATOM      5  O   UNL     1       2.137   8.355  17.666  0.00  0.00    +0.000 OA
ENDROOT
BRANCH   1  11
ATOM      6  C   UNL     1       3.266   4.946  17.644  0.00  0.00    +0.000 A 
ATOM      7  C   UNL     1       4.105   4.038  16.959  0.00  0.00    +0.000 A 
ATOM      8  C   UNL     1       5.261   4.499  16.338  0.00  0.00    +0.000 A 
ATOM      9  C   UNL     1       5.573   5.853  16.393  0.00  0.00    +0.000 A 
ATOM     10  C   UNL     1       4.737   6.741  17.088  0.00  0.00    +0.000 A 
ATOM     11  C   UNL     1       3.558   6.309  17.747  0.00  0.00    +0.000 A 
BRANCH   6  13
ATOM     12  O   UNL     1       1.060   4.395  17.334  0.00  0.00    +0.000 OA
ATOM     13  N   UNL     1       2.005   4.426  18.133  0.00  0.00    +0.000 N 
ATOM     14  O   UNL     1       1.954   4.096  19.326  0.00  0.00    +0.000 OA
ENDBRANCH   6  13
ENDBRANCH   1  11
BRANCH   4  15
ATOM     15  S   UNL     1       0.372  10.439  18.509  0.00  0.00    +0.000 S 
BRANCH  15  16
ATOM     16  C   UNL     1       0.086  10.932  20.116  0.00  0.00    +0.000 C 
ATOM     17  C   UNL     1      -0.852  10.392  20.920  0.00  0.00    +0.000 C 
ATOM     18  S   UNL     1      -0.972  11.311  22.387  0.00  0.00    +0.000 S 
ATOM     19  O   UNL     1      -2.346  11.752  22.589  0.00  0.00    +0.000 OA
ATOM     20  O   UNL     1      -0.182  10.702  23.432  0.00  0.00    +0.000 OA
ATOM     21  C   UNL     1      -0.056  12.623  21.703  0.00  0.00    +0.000 A 
ATOM     22  C   UNL     1      -0.021  13.946  22.087  0.00  0.00    +0.000 A 
ATOM     23  C   UNL     1       1.093  14.667  21.678  0.00  0.00    +0.000 A 
ATOM     24  C   UNL     1       2.140  14.014  20.999  0.00  0.00    +0.000 A 
ATOM     25  C   UNL     1       1.953  12.728  20.473  0.00  0.00    +0.000 A 
ATOM     26  C   UNL     1       0.748  12.097  20.706  0.00  0.00    +0.000 A 
ENDBRANCH  15  16
ENDBRANCH   4  15
TORSDOF 4
ENDMDL
