MODEL 1
REMARK VINA RESULT:      -7.6      0.000      0.000
REMARK  Name = 
REMARK  4 active torsions:
REMARK  status: ('A' for Active; 'I' for Inactive)
REMARK    1  A    between atoms: C_1  and  C_2
REMARK    2  A    between atoms: N_6  and  C_7
REMARK    3  A    between atoms: C_7  and  C_8
REMARK    4  A    between atoms: C_14  and  N_15
REMARK                            x       y       z     vdW  Elec       q    Type
REMARK                         _______ _______ _______ _____ _____    ______ ____
ROOT
ATOM      1  C   UNL     1       3.136   5.114  17.866  0.00  0.00    +0.000 C 
ATOM      2  O   UNL     1       2.190   4.751  18.564  0.00  0.00    +0.000 OA
ATOM      3  N   UNL     1       3.486   6.434  17.654  0.00  0.00    +0.000 N 
ATOM      4  C   UNL     1       2.768   7.485  18.242  0.00  0.00    +0.000 A 
ATOM      5  C   UNL     1       2.331   7.429  19.558  0.00  0.00    +0.000 A 
ATOM      6  C   UNL     1       1.498   8.440  20.040  0.00  0.00    +0.000 A 
ATOM      7  C   UNL     1       1.086   9.484  19.211  0.00  0.00    +0.000 A 
ATOM      8  C   UNL     1       1.660   9.468  17.932  0.00  0.00    +0.000 A 
ATOM      9  N   UNL     1       2.511   8.526  17.438  0.00  0.00    +0.000 NA
ATOM     10  H   UNL     1       3.897   6.687  16.763  0.00  0.00    +0.000 HD
ENDROOT
BRANCH   7  11
ATOM     11  N   UNL     1       0.189  10.455  19.617  0.00  0.00    +0.000 N 
ATOM     12  C   UNL     1      -1.167  10.551  19.071  0.00  0.00    +0.000 C 
ATOM     13  C   UNL     1      -1.324  11.816  18.230  0.00  0.00    +0.000 C 
ATOM     14  C   UNL     1      -0.902  13.056  19.015  0.00  0.00    +0.000 C 
ATOM     15  C   UNL     1       0.513  12.892  19.564  0.00  0.00    +0.000 C 
ATOM     16  C   UNL     1       0.653  11.611  20.392  0.00  0.00    +0.000 C 
ENDBRANCH   7  11
BRANCH   1  17
ATOM     17  C   UNL     1       4.031   4.096  17.223  0.00  0.00    +0.000 C 
BRANCH  17  23
ATOM     18  C   UNL     1       5.910   4.225  14.613  0.00  0.00    +0.000 C 
ATOM     19  C   UNL     1       6.297   4.433  16.032  0.00  0.00    +0.000 A 
ATOM     20  N   UNL     1       7.538   4.660  16.422  0.00  0.00    +0.000 NA
ATOM     21  C   UNL     1       7.511   4.728  17.785  0.00  0.00    +0.000 A 
ATOM     22  C   UNL     1       6.228   4.574  18.242  0.00  0.00    +0.000 A 
ATOM     23  N   UNL     1       5.454   4.405  17.115  0.00  0.00    +0.000 N 
ENDBRANCH  17  23
ENDBRANCH   1  17
TORSDOF 3
ENDMDL
MODEL 2
REMARK VINA RESULT:      -7.6      1.328      1.975
REMARK  Name = 
REMARK  4 active torsions:
REMARK  status: ('A' for Active; 'I' for Inactive)
REMARK    1  A    between atoms: C_1  and  C_2
REMARK    2  A    between atoms: N_6  and  C_7
REMARK    3  A    between atoms: C_7  and  C_8
REMARK    4  A    between atoms: C_14  and  N_15
REMARK                            x       y       z     vdW  Elec       q    Type
REMARK                         _______ _______ _______ _____ _____    ______ ____
ROOT
ATOM      1  C   UNL     1       4.030   6.150  18.056  0.00  0.00    +0.000 C 
ATOM      2  O   UNL     1       4.533   7.091  17.446  0.00  0.00    +0.000 OA
ATOM      3  N   UNL     1       2.880   6.241  18.818  0.00  0.00    +0.000 N 
ATOM      4  C   UNL     1       2.181   7.449  18.947  0.00  0.00    +0.000 A 
ATOM      5  C   UNL     1       1.973   8.295  17.867  0.00  0.00    +0.000 A 
ATOM      6  C   UNL     1       1.399   9.548  18.087  0.00  0.00    +0.000 A 
ATOM      7  C   UNL     1       1.059   9.963  19.375  0.00  0.00    +0.000 A 
ATOM      8  C   UNL     1       1.245   8.988  20.365  0.00  0.00    +0.000 A 
ATOM      9  N   UNL     1       1.759   7.740  20.185  0.00  0.00    +0.000 NA
ATOM     10  H   UNL     1       2.793   5.646  19.633  0.00  0.00    +0.000 HD
ENDROOT
BRANCH   7  11
ATOM     11  N   UNL     1       0.576  11.229  19.652  0.00  0.00    +0.000 N 
ATOM     12  C   UNL     1      -0.852  11.555  19.606  0.00  0.00    +0.000 C 
ATOM     13  C   UNL     1      -1.154  12.504  18.449  0.00  0.00    +0.000 C 
ATOM     14  C   UNL     1      -0.256  13.739  18.500  0.00  0.00    +0.000 C 
ATOM     15  C   UNL     1       1.215  13.335  18.555  0.00  0.00    +0.000 C 
ATOM     16  C   UNL     1       1.494  12.372  19.713  0.00  0.00    +0.000 C 
ENDBRANCH   7  11
BRANCH   1  17
ATOM     17  C   UNL     1       4.636   4.780  17.961  0.00  0.00    +0.000 C 
BRANCH  17  23
ATOM     18  C   UNL     1       7.780   5.290  18.425  0.00  0.00    +0.000 C 
ATOM     19  C   UNL     1       7.099   4.829  17.187  0.00  0.00    +0.000 A 
ATOM     20  N   UNL     1       7.730   4.609  16.048  0.00  0.00    +0.000 NA
ATOM     21  C   UNL     1       6.775   4.270  15.134  0.00  0.00    +0.000 A 
ATOM     22  C   UNL     1       5.539   4.250  15.724  0.00  0.00    +0.000 A 
ATOM     23  N   UNL     1       5.755   4.589  17.042  0.00  0.00    +0.000 N 
ENDBRANCH  17  23
ENDBRANCH   1  17
TORSDOF 3
ENDMDL
MODEL 3
REMARK VINA RESULT:      -7.4      1.409      2.272
REMARK  Name = 
REMARK  4 active torsions:
REMARK  status: ('A' for Active; 'I' for Inactive)
REMARK    1  A    between atoms: C_1  and  C_2
REMARK    2  A    between atoms: N_6  and  C_7
REMARK    3  A    between atoms: C_7  and  C_8
REMARK    4  A    between atoms: C_14  and  N_15
REMARK                            x       y       z     vdW  Elec       q    Type
REMARK                         _______ _______ _______ _____ _____    ______ ____
ROOT
ATOM      1  C   UNL     1       4.040   6.133  18.264  0.00  0.00    +0.000 C 
ATOM      2  O   UNL     1       4.519   7.058  17.610  0.00  0.00    +0.000 OA
ATOM      3  N   UNL     1       2.892   6.230  19.027  0.00  0.00    +0.000 N 
ATOM      4  C   UNL     1       2.166   7.428  19.107  0.00  0.00    +0.000 A 
ATOM      5  C   UNL     1       1.934   8.220  17.992  0.00  0.00    +0.000 A 
ATOM      6  C   UNL     1       1.332   9.469  18.160  0.00  0.00    +0.000 A 
ATOM      7  C   UNL     1       0.988   9.931  19.431  0.00  0.00    +0.000 A 
ATOM      8  C   UNL     1       1.201   9.005  20.461  0.00  0.00    +0.000 A 
ATOM      9  N   UNL     1       1.742   7.762  20.333  0.00  0.00    +0.000 NA
ATOM     10  H   UNL     1       2.822   5.670  19.868  0.00  0.00    +0.000 HD
ENDROOT
BRANCH   7  11
ATOM     11  N   UNL     1       0.477  11.197  19.656  0.00  0.00    +0.000 N 
ATOM     12  C   UNL     1       0.521  11.842  20.970  0.00  0.00    +0.000 C 
ATOM     13  C   UNL     1      -0.884  11.983  21.552  0.00  0.00    +0.000 C 
ATOM     14  C   UNL     1      -1.820  12.684  20.568  0.00  0.00    +0.000 C 
ATOM     15  C   UNL     1      -1.815  11.972  19.218  0.00  0.00    +0.000 C 
ATOM     16  C   UNL     1      -0.397  11.828  18.660  0.00  0.00    +0.000 C 
ENDBRANCH   7  11
BRANCH   1  17
ATOM     17  C   UNL     1       4.677   4.774  18.224  0.00  0.00    +0.000 C 
BRANCH  17  23
ATOM     18  C   UNL     1       7.796   5.458  18.624  0.00  0.00    +0.000 C 
ATOM     19  C   UNL     1       7.131   4.881  17.427  0.00  0.00    +0.000 A 
ATOM     20  N   UNL     1       7.765   4.610  16.301  0.00  0.00    +0.000 NA
ATOM     21  C   UNL     1       6.821   4.164  15.421  0.00  0.00    +0.000 A 
ATOM     22  C   UNL     1       5.590   4.129  16.023  0.00  0.00    +0.000 A 
ATOM     23  N   UNL     1       5.798   4.570  17.312  0.00  0.00    +0.000 N 
ENDBRANCH  17  23
ENDBRANCH   1  17
TORSDOF 3
ENDMDL
MODEL 4
REMARK VINA RESULT:      -7.3      0.892      1.632
REMARK  Name = 
REMARK  4 active torsions:
REMARK  status: ('A' for Active; 'I' for Inactive)
REMARK    1  A    between atoms: C_1  and  C_2
REMARK    2  A    between atoms: N_6  and  C_7
REMARK    3  A    between atoms: C_7  and  C_8
REMARK    4  A    between atoms: C_14  and  N_15
REMARK                            x       y       z     vdW  Elec       q    Type
REMARK                         _______ _______ _______ _____ _____    ______ ____
ROOT
ATOM      1  C   UNL     1       3.704   4.513  17.624  0.00  0.00    +0.000 C 
ATOM      2  O   UNL     1       2.736   4.076  18.243  0.00  0.00    +0.000 OA
ATOM      3  N   UNL     1       4.041   5.852  17.549  0.00  0.00    +0.000 N 
ATOM      4  C   UNL     1       3.281   6.835  18.198  0.00  0.00    +0.000 A 
ATOM      5  C   UNL     1       2.790   6.652  19.483  0.00  0.00    +0.000 A 
ATOM      6  C   UNL     1       1.921   7.604  20.020  0.00  0.00    +0.000 A 
ATOM      7  C   UNL     1       1.527   8.715  19.272  0.00  0.00    +0.000 A 
ATOM      8  C   UNL     1       2.155   8.824  18.024  0.00  0.00    +0.000 A 
ATOM      9  N   UNL     1       3.041   7.942  17.483  0.00  0.00    +0.000 NA
ATOM     10  H   UNL     1       4.485   6.191  16.704  0.00  0.00    +0.000 HD
ENDROOT
BRANCH   7  11
ATOM     11  N   UNL     1       0.597   9.632  19.726  0.00  0.00    +0.000 N 
ATOM     12  C   UNL     1      -0.456  10.177  18.866  0.00  0.00    +0.000 C 
ATOM     13  C   UNL     1      -0.224  11.663  18.599  0.00  0.00    +0.000 C 
ATOM     14  C   UNL     1      -0.053  12.437  19.905  0.00  0.00    +0.000 C 
ATOM     15  C   UNL     1       1.050  11.817  20.759  0.00  0.00    +0.000 C 
ATOM     16  C   UNL     1       0.806  10.325  21.002  0.00  0.00    +0.000 C 
ENDBRANCH   7  11
BRANCH   1  17
ATOM     17  C   UNL     1       4.642   3.570  16.929  0.00  0.00    +0.000 C 
BRANCH  17  23
ATOM     18  C   UNL     1       7.520   4.703  17.819  0.00  0.00    +0.000 C 
ATOM     19  C   UNL     1       6.930   4.670  16.456  0.00  0.00    +0.000 A 
ATOM     20  N   UNL     1       7.526   5.175  15.392  0.00  0.00    +0.000 NA
ATOM     21  C   UNL     1       6.658   5.022  14.349  0.00  0.00    +0.000 A 
ATOM     22  C   UNL     1       5.521   4.383  14.769  0.00  0.00    +0.000 A 
ATOM     23  N   UNL     1       5.709   4.143  16.113  0.00  0.00    +0.000 N 
ENDBRANCH  17  23
ENDBRANCH   1  17
TORSDOF 3
ENDMDL
MODEL 5
REMARK VINA RESULT:      -7.2      1.339      1.634
REMARK  Name = 
REMARK  4 active torsions:
REMARK  status: ('A' for Active; 'I' for Inactive)
REMARK    1  A    between atoms: C_1  and  C_2
REMARK    2  A    between atoms: N_6  and  C_7
REMARK    3  A    between atoms: C_7  and  C_8
REMARK    4  A    between atoms: C_14  and  N_15
REMARK                            x       y       z     vdW  Elec       q    Type
REMARK                         _______ _______ _______ _____ _____    ______ ____
ROOT
ATOM      1  C   UNL     1       3.749   6.377  17.821  0.00  0.00    +0.000 C 
ATOM      2  O   UNL     1       4.232   7.319  17.195  0.00  0.00    +0.000 OA
ATOM      3  N   UNL     1       2.661   6.480  18.666  0.00  0.00    +0.000 N 
ATOM      4  C   UNL     1       2.006   7.703  18.872  0.00  0.00    +0.000 A 
ATOM      5  C   UNL     1       1.743   8.578  17.827  0.00  0.00    +0.000 A 
ATOM      6  C   UNL     1       1.221   9.841  18.115  0.00  0.00    +0.000 A 
ATOM      7  C   UNL     1       0.987  10.235  19.433  0.00  0.00    +0.000 A 
ATOM      8  C   UNL     1       1.218   9.233  20.386  0.00  0.00    +0.000 A 
ATOM      9  N   UNL     1       1.683   7.976  20.143  0.00  0.00    +0.000 NA
ATOM     10  H   UNL     1       2.617   5.869  19.473  0.00  0.00    +0.000 HD
ENDROOT
BRANCH   7  11
ATOM     11  N   UNL     1       0.560  11.505  19.771  0.00  0.00    +0.000 N 
ATOM     12  C   UNL     1      -0.721  12.053  19.318  0.00  0.00    +0.000 C 
ATOM     13  C   UNL     1      -0.502  13.197  18.330  0.00  0.00    +0.000 C 
ATOM     14  C   UNL     1       0.433  14.256  18.912  0.00  0.00    +0.000 C 
ATOM     15  C   UNL     1       1.743  13.624  19.374  0.00  0.00    +0.000 C 
ATOM     16  C   UNL     1       1.501  12.470  20.351  0.00  0.00    +0.000 C 
ENDBRANCH   7  11
BRANCH   1  17
ATOM     17  C   UNL     1       4.309   4.995  17.652  0.00  0.00    +0.000 C 
BRANCH  17  23
ATOM     18  C   UNL     1       5.951   4.079  15.040  0.00  0.00    +0.000 C 
ATOM     19  C   UNL     1       6.486   4.437  16.380  0.00  0.00    +0.000 A 
ATOM     20  N   UNL     1       7.766   4.370  16.695  0.00  0.00    +0.000 NA
ATOM     21  C   UNL     1       7.860   4.704  18.015  0.00  0.00    +0.000 A 
ATOM     22  C   UNL     1       6.623   5.013  18.515  0.00  0.00    +0.000 A 
ATOM     23  N   UNL     1       5.750   4.859  17.460  0.00  0.00    +0.000 N 
ENDBRANCH  17  23
ENDBRANCH   1  17
TORSDOF 3
ENDMDL
MODEL 6
REMARK VINA RESULT:      -7.1      1.335      1.734
REMARK  Name = 
REMARK  4 active torsions:
REMARK  status: ('A' for Active; 'I' for Inactive)
REMARK    1  A    between atoms: C_1  and  C_2
REMARK    2  A    between atoms: N_6  and  C_7
REMARK    3  A    between atoms: C_7  and  C_8
REMARK    4  A    between atoms: C_14  and  N_15
REMARK                            x       y       z     vdW  Elec       q    Type
REMARK                         _______ _______ _______ _____ _____    ______ ____
ROOT
ATOM      1  C   UNL     1       3.750   6.357  17.689  0.00  0.00    +0.000 C 
ATOM      2  O   UNL     1       4.231   7.331  17.112  0.00  0.00    +0.000 OA
ATOM      3  N   UNL     1       2.674   6.418  18.555  0.00  0.00    +0.000 N 
ATOM      4  C   UNL     1       2.032   7.631  18.841  0.00  0.00    +0.000 A 
ATOM      5  C   UNL     1       1.761   8.568  17.854  0.00  0.00    +0.000 A 
ATOM      6  C   UNL     1       1.253   9.815  18.223  0.00  0.00    +0.000 A 
ATOM      7  C   UNL     1       1.041  10.132  19.565  0.00  0.00    +0.000 A 
ATOM      8  C   UNL     1       1.277   9.075  20.454  0.00  0.00    +0.000 A 
ATOM      9  N   UNL     1       1.729   7.831  20.130  0.00  0.00    +0.000 NA
ATOM     10  H   UNL     1       2.637   5.761  19.325  0.00  0.00    +0.000 HD
ENDROOT
BRANCH   7  11
ATOM     11  N   UNL     1       0.629  11.384  19.984  0.00  0.00    +0.000 N 
ATOM     12  C   UNL     1      -0.136  11.591  21.216  0.00  0.00    +0.000 C 
ATOM     13  C   UNL     1      -1.559  12.048  20.901  0.00  0.00    +0.000 C 
ATOM     14  C   UNL     1      -1.554  13.270  19.984  0.00  0.00    +0.000 C 
ATOM     15  C   UNL     1      -0.736  12.996  18.724  0.00  0.00    +0.000 C 
ATOM     16  C   UNL     1       0.681  12.525  19.062  0.00  0.00    +0.000 C 
ENDBRANCH   7  11
BRANCH   1  17
ATOM     17  C   UNL     1       4.296   4.984  17.431  0.00  0.00    +0.000 C 
BRANCH  17  23
ATOM     18  C   UNL     1       6.048   4.087  14.885  0.00  0.00    +0.000 C 
ATOM     19  C   UNL     1       6.524   4.421  16.253  0.00  0.00    +0.000 A 
ATOM     20  N   UNL     1       7.788   4.336  16.625  0.00  0.00    +0.000 NA
ATOM     21  C   UNL     1       7.824   4.651  17.953  0.00  0.00    +0.000 A 
ATOM     22  C   UNL     1       6.567   4.966  18.400  0.00  0.00    +0.000 A 
ATOM     23  N   UNL     1       5.743   4.835  17.304  0.00  0.00    +0.000 N 
ENDBRANCH  17  23
ENDBRANCH   1  17
TORSDOF 3
ENDMDL
MODEL 7
REMARK VINA RESULT:      -7.1      5.275      7.851
REMARK  Name = 
REMARK  4 active torsions:
REMARK  status: ('A' for Active; 'I' for Inactive)
REMARK    1  A    between atoms: C_1  and  C_2
REMARK    2  A    between atoms: N_6  and  C_7
REMARK    3  A    between atoms: C_7  and  C_8
REMARK    4  A    between atoms: C_14  and  N_15
REMARK                            x       y       z     vdW  Elec       q    Type
REMARK                         _______ _______ _______ _____ _____    ______ ____
ROOT
ATOM      1  C   UNL     1       8.429   9.132  18.290  0.00  0.00    +0.000 C 
ATOM      2  O   UNL     1       7.416   9.488  17.690  0.00  0.00    +0.000 OA
ATOM      3  N   UNL     1       8.670   7.838  18.713  0.00  0.00    +0.000 N 
ATOM      4  C   UNL     1       7.749   6.807  18.475  0.00  0.00    +0.000 A 
ATOM      5  C   UNL     1       7.089   6.679  17.261  0.00  0.00    +0.000 A 
ATOM      6  C   UNL     1       6.080   5.722  17.135  0.00  0.00    +0.000 A 
ATOM      7  C   UNL     1       5.718   4.918  18.216  0.00  0.00    +0.000 A 
ATOM      8  C   UNL     1       6.513   5.091  19.358  0.00  0.00    +0.000 A 
ATOM      9  N   UNL     1       7.534   5.980  19.506  0.00  0.00    +0.000 NA
ATOM     10  H   UNL     1       9.207   7.700  19.560  0.00  0.00    +0.000 HD
ENDROOT
BRANCH   7  11
ATOM     11  N   UNL     1       4.664   4.025  18.166  0.00  0.00    +0.000 N 
ATOM     12  C   UNL     1       3.651   4.059  17.108  0.00  0.00    +0.000 C 
ATOM     13  C   UNL     1       2.294   4.478  17.669  0.00  0.00    +0.000 C 
ATOM     14  C   UNL     1       1.895   3.603  18.856  0.00  0.00    +0.000 C 
ATOM     15  C   UNL     1       2.991   3.601  19.918  0.00  0.00    +0.000 C 
ATOM     16  C   UNL     1       4.345   3.192  19.332  0.00  0.00    +0.000 C 
ENDBRANCH   7  11
BRANCH   1  17
ATOM     17  C   UNL     1       9.529  10.116  18.560  0.00  0.00    +0.000 C 
BRANCH  17  23
ATOM     18  C   UNL     1       8.960  13.206  17.865  0.00  0.00    +0.000 C 
ATOM     19  C   UNL     1       9.034  12.567  19.204  0.00  0.00    +0.000 A 
ATOM     20  N   UNL     1       8.918  13.235  20.337  0.00  0.00    +0.000 NA
ATOM     21  C   UNL     1       9.107  12.331  21.343  0.00  0.00    +0.000 A 
ATOM     22  C   UNL     1       9.311  11.079  20.823  0.00  0.00    +0.000 A 
ATOM     23  N   UNL     1       9.243  11.233  19.456  0.00  0.00    +0.000 N 
ENDBRANCH  17  23
ENDBRANCH   1  17
TORSDOF 3
ENDMDL
MODEL 8
REMARK VINA RESULT:      -7.1      2.614      8.934
REMARK  Name = 
REMARK  4 active torsions:
REMARK  status: ('A' for Active; 'I' for Inactive)
REMARK    1  A    between atoms: C_1  and  C_2
REMARK    2  A    between atoms: N_6  and  C_7
REMARK    3  A    between atoms: C_7  and  C_8
REMARK    4  A    between atoms: C_14  and  N_15
REMARK                            x       y       z     vdW  Elec       q    Type
REMARK                         _______ _______ _______ _____ _____    ______ ____
ROOT
ATOM      1  C   UNL     1      -0.907  11.008  18.422  0.00  0.00    +0.000 C 
ATOM      2  O   UNL     1      -1.177  10.280  17.469  0.00  0.00    +0.000 OA
ATOM      3  N   UNL     1       0.109  10.763  19.326  0.00  0.00    +0.000 N 
ATOM      4  C   UNL     1       0.934   9.635  19.212  0.00  0.00    +0.000 A 
ATOM      5  C   UNL     1       1.422   9.204  17.987  0.00  0.00    +0.000 A 
ATOM      6  C   UNL     1       2.116   7.995  17.920  0.00  0.00    +0.000 A 
ATOM      7  C   UNL     1       2.301   7.212  19.060  0.00  0.00    +0.000 A 
ATOM      8  C   UNL     1       1.832   7.797  20.245  0.00  0.00    +0.000 A 
ATOM      9  N   UNL     1       1.191   8.992  20.359  0.00  0.00    +0.000 NA
ATOM     10  H   UNL     1      -0.014  11.067  20.284  0.00  0.00    +0.000 HD
ENDROOT
BRANCH   7  11
ATOM     11  N   UNL     1       2.899   5.966  19.026  0.00  0.00    +0.000 N 
ATOM     12  C   UNL     1       4.262   5.759  18.529  0.00  0.00    +0.000 C 
ATOM     13  C   UNL     1       4.249   4.965  17.225  0.00  0.00    +0.000 C 
ATOM     14  C   UNL     1       3.461   3.666  17.379  0.00  0.00    +0.000 C 
ATOM     15  C   UNL     1       2.056   3.945  17.907  0.00  0.00    +0.000 C 
ATOM     16  C   UNL     1       2.092   4.754  19.206  0.00  0.00    +0.000 C 
ENDBRANCH   7  11
BRANCH   1  17
ATOM     17  C   UNL     1      -1.668  12.284  18.634  0.00  0.00    +0.000 C 
BRANCH  17  23
ATOM     18  C   UNL     1      -4.428  11.382  17.245  0.00  0.00    +0.000 C 
ATOM     19  C   UNL     1      -4.215  11.853  18.638  0.00  0.00    +0.000 A 
ATOM     20  N   UNL     1      -5.193  12.016  19.509  0.00  0.00    +0.000 NA
ATOM     21  C   UNL     1      -4.624  12.522  20.642  0.00  0.00    +0.000 A 
ATOM     22  C   UNL     1      -3.269  12.642  20.480  0.00  0.00    +0.000 A 
ATOM     23  N   UNL     1      -3.010  12.194  19.202  0.00  0.00    +0.000 N 
ENDBRANCH  17  23
ENDBRANCH   1  17
TORSDOF 3
ENDMDL
MODEL 9
REMARK VINA RESULT:      -6.9      3.012      8.553
REMARK  Name = 
REMARK  4 active torsions:
REMARK  status: ('A' for Active; 'I' for Inactive)
REMARK    1  A    between atoms: C_1  and  C_2
REMARK    2  A    between atoms: N_6  and  C_7
REMARK    3  A    between atoms: C_7  and  C_8
REMARK    4  A    between atoms: C_14  and  N_15
REMARK                            x       y       z     vdW  Elec       q    Type
REMARK                         _______ _______ _______ _____ _____    ______ ____
ROOT
ATOM      1  C   UNL     1       1.028   9.841  18.763  0.00  0.00    +0.000 C 
ATOM      2  O   UNL     1       0.814   9.314  17.673  0.00  0.00    +0.000 OA
ATOM      3  N   UNL     1       1.533   9.175  19.864  0.00  0.00    +0.000 N 
ATOM      4  C   UNL     1       1.853   7.810  19.811  0.00  0.00    +0.000 A 
ATOM      5  C   UNL     1       2.496   7.250  18.717  0.00  0.00    +0.000 A 
ATOM      6  C   UNL     1       2.656   5.864  18.660  0.00  0.00    +0.000 A 
ATOM      7  C   UNL     1       2.158   5.044  19.674  0.00  0.00    +0.000 A 
ATOM      8  C   UNL     1       1.603   5.738  20.758  0.00  0.00    +0.000 A 
ATOM      9  N   UNL     1       1.469   7.088  20.872  0.00  0.00    +0.000 NA
ATOM     10  H   UNL     1       1.242   9.476  20.786  0.00  0.00    +0.000 HD
ENDROOT
BRANCH   7  11
ATOM     11  N   UNL     1       2.210   3.664  19.616  0.00  0.00    +0.000 N 
ATOM     12  C   UNL     1       3.151   2.876  20.416  0.00  0.00    +0.000 C 
ATOM     13  C   UNL     1       4.196   2.210  19.524  0.00  0.00    +0.000 C 
ATOM     14  C   UNL     1       3.534   1.403  18.408  0.00  0.00    +0.000 C 
ATOM     15  C   UNL     1       2.561   2.274  17.618  0.00  0.00    +0.000 C 
ATOM     16  C   UNL     1       1.531   2.944  18.532  0.00  0.00    +0.000 C 
ENDBRANCH   7  11
BRANCH   1  17
ATOM     17  C   UNL     1       0.790  11.310  18.949  0.00  0.00    +0.000 C 
BRANCH  17  23
ATOM     18  C   UNL     1      -2.096  11.532  17.543  0.00  0.00    +0.000 C 
ATOM     19  C   UNL     1      -1.729  11.876  18.941  0.00  0.00    +0.000 A 
ATOM     20  N   UNL     1      -2.579  12.390  19.811  0.00  0.00    +0.000 NA
ATOM     21  C   UNL     1      -1.868  12.633  20.951  0.00  0.00    +0.000 A 
ATOM     22  C   UNL     1      -0.567  12.233  20.794  0.00  0.00    +0.000 A 
ATOM     23  N   UNL     1      -0.489  11.731  19.513  0.00  0.00    +0.000 N 
ENDBRANCH  17  23
ENDBRANCH   1  17
TORSDOF 3
ENDMDL
