MODEL 1
REMARK VINA RESULT:      -8.2      0.000      0.000
REMARK  Name = 
REMARK  7 active torsions:
REMARK  status: ('A' for Active; 'I' for Inactive)
REMARK    1  A    between atoms: C_1  and  C_2
REMARK    2  A    between atoms: C_2  and  C_3
REMARK    3  A    between atoms: C_3  and  C_4
REMARK    4  A    between atoms: C_4  and  C_5
REMARK    5  A    between atoms: C_7  and  N_8
REMARK    6  A    between atoms: C_11  and  C_12
REMARK    7  A    between atoms: C_23  and  C_24
REMARK                            x       y       z     vdW  Elec       q    Type
REMARK                         _______ _______ _______ _____ _____    ______ ____
ROOT
ATOM      1  C   UNL     1       5.272   5.577  17.845  0.00  0.00    +0.000 A 
ATOM      2  C   UNL     1       4.694   6.811  17.633  0.00  0.00    +0.000 A 
ATOM      3  C   UNL     1       3.318   6.859  17.640  0.00  0.00    +0.000 A 
ATOM      4  N   UNL     1       2.581   5.756  17.840  0.00  0.00    +0.000 NA
ATOM      5  C   UNL     1       3.203   4.586  18.027  0.00  0.00    +0.000 A 
ATOM      6  N   UNL     1       2.407   3.467  18.254  0.00  0.00    +0.000 N 
ATOM      7  C   UNL     1       0.990   3.393  18.337  0.00  0.00    +0.000 C 
ATOM      8  C   UNL     1       1.154   2.324  19.413  0.00  0.00    +0.000 C 
ATOM      9  C   UNL     1       2.662   2.317  19.077  0.00  0.00    +0.000 C 
ATOM     10  N   UNL     1       4.538   4.467  18.058  0.00  0.00    +0.000 NA
ENDROOT
BRANCH   3  11
ATOM     11  N   UNL     1       2.689   8.112  17.480  0.00  0.00    +0.000 N 
ATOM     12  C   UNL     1       1.872   8.708  18.375  0.00  0.00    +0.000 A 
ATOM     13  C   UNL     1       2.042   8.662  19.779  0.00  0.00    +0.000 A 
ATOM     14  C   UNL     1       0.998   9.388  20.289  0.00  0.00    +0.000 A 
ATOM     15  N   UNL     1       0.288   9.827  19.211  0.00  0.00    +0.000 N 
ATOM     16  N   UNL     1       0.830   9.472  18.033  0.00  0.00    +0.000 NA
ATOM     17  H   UNL     1       2.421   8.265  16.515  0.00  0.00    +0.000 HD
ATOM     18  H   UNL     1      -0.560  10.383  19.200  0.00  0.00    +0.000 HD
BRANCH  14  19
ATOM     19  C   UNL     1       0.713   9.603  21.757  0.00  0.00    +0.000 C 
ATOM     20  C   UNL     1      -0.121  10.863  22.119  0.00  0.00    +0.000 C 
ATOM     21  C   UNL     1      -0.866   9.996  23.150  0.00  0.00    +0.000 C 
ATOM     22  C   UNL     1      -0.511   8.786  22.269  0.00  0.00    +0.000 C 
ENDBRANCH  14  19
ENDBRANCH   3  11
BRANCH   9  23
ATOM     23  C   UNL     1       3.652   2.433  20.289  0.00  0.00    +0.000 C 
ATOM     24  N   UNL     1       4.976   2.180  20.019  0.00  0.00    +0.000 N 
ATOM     25  O   UNL     1       3.346   2.769  21.436  0.00  0.00    +0.000 OA
ATOM     26  H   UNL     1       5.253   1.734  19.157  0.00  0.00    +0.000 HD
ATOM     27  H   UNL     1       5.595   2.122  20.817  0.00  0.00    +0.000 HD
ENDBRANCH   9  23
BRANCH   1  28
ATOM     28  C   UNL     1       6.774   5.443  17.869  0.00  0.00    +0.000 C 
BRANCH  28  29
ATOM     29  C   UNL     1       7.332   4.534  16.771  0.00  0.00    +0.000 C 
BRANCH  29  31
ATOM     30  C   UNL     1       6.240   3.908  14.590  0.00  0.00    +0.000 C 
ATOM     31  C   UNL     1       6.977   4.997  15.355  0.00  0.00    +0.000 C 
ENDBRANCH  29  31
ENDBRANCH  28  29
ENDBRANCH   1  28
TORSDOF 6
ENDMDL
MODEL 2
REMARK VINA RESULT:      -8.2      1.144      1.421
REMARK  Name = 
REMARK  7 active torsions:
REMARK  status: ('A' for Active; 'I' for Inactive)
REMARK    1  A    between atoms: C_1  and  C_2
REMARK    2  A    between atoms: C_2  and  C_3
REMARK    3  A    between atoms: C_3  and  C_4
REMARK    4  A    between atoms: C_4  and  C_5
REMARK    5  A    between atoms: C_7  and  N_8
REMARK    6  A    between atoms: C_11  and  C_12
REMARK    7  A    between atoms: C_23  and  C_24
REMARK                            x       y       z     vdW  Elec       q    Type
REMARK                         _______ _______ _______ _____ _____    ______ ____
ROOT
ATOM      1  C   UNL     1       5.081   4.624  16.526  0.00  0.00    +0.000 A 
ATOM      2  C   UNL     1       4.877   5.984  16.636  0.00  0.00    +0.000 A 
ATOM      3  C   UNL     1       3.718   6.387  17.260  0.00  0.00    +0.000 A 
ATOM      4  N   UNL     1       2.832   5.497  17.732  0.00  0.00    +0.000 NA
ATOM      5  C   UNL     1       3.083   4.191  17.583  0.00  0.00    +0.000 A 
ATOM      6  N   UNL     1       2.153   3.297  18.104  0.00  0.00    +0.000 N 
ATOM      7  C   UNL     1       0.952   3.583  18.810  0.00  0.00    +0.000 C 
ATOM      8  C   UNL     1       1.213   2.345  19.664  0.00  0.00    +0.000 C 
ATOM      9  C   UNL     1       2.360   2.001  18.688  0.00  0.00    +0.000 C 
ATOM     10  N   UNL     1       4.201   3.724  17.009  0.00  0.00    +0.000 NA
ENDROOT
BRANCH   3  11
ATOM     11  N   UNL     1       3.498   7.769  17.439  0.00  0.00    +0.000 N 
ATOM     12  C   UNL     1       2.579   8.325  18.257  0.00  0.00    +0.000 A 
ATOM     13  C   UNL     1       2.223   7.822  19.531  0.00  0.00    +0.000 A 
ATOM     14  C   UNL     1       1.265   8.683  20.000  0.00  0.00    +0.000 A 
ATOM     15  N   UNL     1       1.109   9.630  19.031  0.00  0.00    +0.000 N 
ATOM     16  N   UNL     1       1.936   9.465  17.984  0.00  0.00    +0.000 NA
ATOM     17  H   UNL     1       3.635   8.276  16.573  0.00  0.00    +0.000 HD
ATOM     18  H   UNL     1       0.476  10.421  19.021  0.00  0.00    +0.000 HD
BRANCH  14  19
ATOM     19  C   UNL     1       0.535   8.551  21.316  0.00  0.00    +0.000 C 
ATOM     20  C   UNL     1       1.256   9.131  22.564  0.00  0.00    +0.000 C 
ATOM     21  C   UNL     1      -0.112   9.663  23.028  0.00  0.00    +0.000 C 
ATOM     22  C   UNL     1      -0.520   9.674  21.545  0.00  0.00    +0.000 C 
ENDBRANCH  14  19
ENDBRANCH   3  11
BRANCH   9  23
ATOM     23  C   UNL     1       3.749   1.652  19.332  0.00  0.00    +0.000 C 
ATOM     24  N   UNL     1       4.472   0.658  18.717  0.00  0.00    +0.000 N 
ATOM     25  O   UNL     1       4.251   2.220  20.305  0.00  0.00    +0.000 OA
ATOM     26  H   UNL     1       4.040   0.046  18.040  0.00  0.00    +0.000 HD
ATOM     27  H   UNL     1       5.300   0.338  19.201  0.00  0.00    +0.000 HD
ENDBRANCH   9  23
BRANCH   1  28
ATOM     28  C   UNL     1       6.335   4.101  15.871  0.00  0.00    +0.000 C 
BRANCH  28  29
ATOM     29  C   UNL     1       6.522   4.572  14.427  0.00  0.00    +0.000 C 
BRANCH  29  31
ATOM     30  C   UNL     1       6.400   3.434  12.184  0.00  0.00    +0.000 C 
ATOM     31  C   UNL     1       5.621   3.844  13.425  0.00  0.00    +0.000 C 
ENDBRANCH  29  31
ENDBRANCH  28  29
ENDBRANCH   1  28
TORSDOF 6
ENDMDL
MODEL 3
REMARK VINA RESULT:      -8.2      0.945      1.539
REMARK  Name = 
REMARK  7 active torsions:
REMARK  status: ('A' for Active; 'I' for Inactive)
REMARK    1  A    between atoms: C_1  and  C_2
REMARK    2  A    between atoms: C_2  and  C_3
REMARK    3  A    between atoms: C_3  and  C_4
REMARK    4  A    between atoms: C_4  and  C_5
REMARK    5  A    between atoms: C_7  and  N_8
REMARK    6  A    between atoms: C_11  and  C_12
REMARK    7  A    between atoms: C_23  and  C_24
REMARK                            x       y       z     vdW  Elec       q    Type
REMARK                         _______ _______ _______ _____ _____    ______ ____
ROOT
ATOM      1  C   UNL     1       5.229   5.601  17.901  0.00  0.00    +0.000 A 
ATOM      2  C   UNL     1       4.632   6.824  17.671  0.00  0.00    +0.000 A 
ATOM      3  C   UNL     1       3.256   6.844  17.642  0.00  0.00    +0.000 A 
ATOM      4  N   UNL     1       2.536   5.728  17.826  0.00  0.00    +0.000 NA
ATOM      5  C   UNL     1       3.176   4.570  18.032  0.00  0.00    +0.000 A 
ATOM      6  N   UNL     1       2.396   3.436  18.241  0.00  0.00    +0.000 N 
ATOM      7  C   UNL     1       0.979   3.335  18.287  0.00  0.00    +0.000 C 
ATOM      8  C   UNL     1       1.136   2.271  19.371  0.00  0.00    +0.000 C 
ATOM      9  C   UNL     1       2.652   2.294  19.073  0.00  0.00    +0.000 C 
ATOM     10  N   UNL     1       4.511   4.477  18.098  0.00  0.00    +0.000 NA
ENDROOT
BRANCH   3  11
ATOM     11  N   UNL     1       2.607   8.084  17.463  0.00  0.00    +0.000 N 
ATOM     12  C   UNL     1       1.802   8.694  18.359  0.00  0.00    +0.000 A 
ATOM     13  C   UNL     1       2.004   8.689  19.760  0.00  0.00    +0.000 A 
ATOM     14  C   UNL     1       0.961   9.415  20.274  0.00  0.00    +0.000 A 
ATOM     15  N   UNL     1       0.222   9.815  19.201  0.00  0.00    +0.000 N 
ATOM     16  N   UNL     1       0.742   9.435  18.021  0.00  0.00    +0.000 NA
ATOM     17  H   UNL     1       2.316   8.208  16.500  0.00  0.00    +0.000 HD
ATOM     18  H   UNL     1      -0.633  10.360  19.193  0.00  0.00    +0.000 HD
BRANCH  14  19
ATOM     19  C   UNL     1       0.706   9.666  21.741  0.00  0.00    +0.000 C 
ATOM     20  C   UNL     1      -0.173  10.900  22.085  0.00  0.00    +0.000 C 
ATOM     21  C   UNL     1      -0.851  10.037  23.165  0.00  0.00    +0.000 C 
ATOM     22  C   UNL     1      -0.467   8.815  22.313  0.00  0.00    +0.000 C 
ENDBRANCH  14  19
ENDBRANCH   3  11
BRANCH   9  23
ATOM     23  C   UNL     1       3.608   2.431  20.310  0.00  0.00    +0.000 C 
ATOM     24  N   UNL     1       4.930   2.120  20.096  0.00  0.00    +0.000 N 
ATOM     25  O   UNL     1       3.279   2.831  21.430  0.00  0.00    +0.000 OA
ATOM     26  H   UNL     1       5.217   1.624  19.264  0.00  0.00    +0.000 HD
ATOM     27  H   UNL     1       5.521   2.078  20.915  0.00  0.00    +0.000 HD
ENDBRANCH   9  23
BRANCH   1  28
ATOM     28  C   UNL     1       6.732   5.497  17.964  0.00  0.00    +0.000 C 
BRANCH  28  29
ATOM     29  C   UNL     1       7.462   6.697  17.357  0.00  0.00    +0.000 C 
BRANCH  29  31
ATOM     30  C   UNL     1       8.204   9.018  17.993  0.00  0.00    +0.000 C 
ATOM     31  C   UNL     1       8.202   7.550  18.392  0.00  0.00    +0.000 C 
ENDBRANCH  29  31
ENDBRANCH  28  29
ENDBRANCH   1  28
TORSDOF 6
ENDMDL
MODEL 4
REMARK VINA RESULT:      -8.0      2.132      7.401
REMARK  Name = 
REMARK  7 active torsions:
REMARK  status: ('A' for Active; 'I' for Inactive)
REMARK    1  A    between atoms: C_1  and  C_2
REMARK    2  A    between atoms: C_2  and  C_3
REMARK    3  A    between atoms: C_3  and  C_4
REMARK    4  A    between atoms: C_4  and  C_5
REMARK    5  A    between atoms: C_7  and  N_8
REMARK    6  A    between atoms: C_11  and  C_12
REMARK    7  A    between atoms: C_23  and  C_24
REMARK                            x       y       z     vdW  Elec       q    Type
REMARK                         _______ _______ _______ _____ _____    ______ ____
ROOT
ATOM      1  C   UNL     1       2.665   6.999  19.064  0.00  0.00    +0.000 A 
ATOM      2  C   UNL     1       3.663   7.410  18.205  0.00  0.00    +0.000 A 
ATOM      3  C   UNL     1       4.645   6.489  17.914  0.00  0.00    +0.000 A 
ATOM      4  N   UNL     1       4.629   5.258  18.445  0.00  0.00    +0.000 NA
ATOM      5  C   UNL     1       3.639   4.926  19.282  0.00  0.00    +0.000 A 
ATOM      6  N   UNL     1       3.643   3.633  19.797  0.00  0.00    +0.000 N 
ATOM      7  C   UNL     1       4.563   2.581  19.536  0.00  0.00    +0.000 C 
ATOM      8  C   UNL     1       3.396   1.600  19.626  0.00  0.00    +0.000 C 
ATOM      9  C   UNL     1       2.536   2.780  20.130  0.00  0.00    +0.000 C 
ATOM     10  N   UNL     1       2.636   5.759  19.593  0.00  0.00    +0.000 NA
ENDROOT
BRANCH   3  11
ATOM     11  N   UNL     1       5.654   6.853  16.997  0.00  0.00    +0.000 N 
ATOM     12  C   UNL     1       6.185   6.054  16.046  0.00  0.00    +0.000 A 
ATOM     13  C   UNL     1       5.457   5.104  15.292  0.00  0.00    +0.000 A 
ATOM     14  C   UNL     1       6.380   4.526  14.459  0.00  0.00    +0.000 A 
ATOM     15  N   UNL     1       7.565   5.142  14.733  0.00  0.00    +0.000 N 
ATOM     16  N   UNL     1       7.462   6.113  15.657  0.00  0.00    +0.000 NA
ATOM     17  H   UNL     1       6.322   7.484  17.422  0.00  0.00    +0.000 HD
ATOM     18  H   UNL     1       8.475   4.967  14.322  0.00  0.00    +0.000 HD
BRANCH  14  19
ATOM     19  C   UNL     1       6.100   3.413  13.477  0.00  0.00    +0.000 C 
ATOM     20  C   UNL     1       4.790   3.538  12.650  0.00  0.00    +0.000 C 
ATOM     21  C   UNL     1       5.585   3.029  11.434  0.00  0.00    +0.000 C 
ATOM     22  C   UNL     1       6.840   3.597  12.118  0.00  0.00    +0.000 C 
ENDBRANCH  14  19
ENDBRANCH   3  11
BRANCH   9  23
ATOM     23  C   UNL     1       1.151   2.991  19.422  0.00  0.00    +0.000 C 
ATOM     24  N   UNL     1       0.207   3.696  20.131  0.00  0.00    +0.000 N 
ATOM     25  O   UNL     1       0.864   2.618  18.282  0.00  0.00    +0.000 OA
ATOM     26  H   UNL     1       0.321   3.866  21.119  0.00  0.00    +0.000 HD
ATOM     27  H   UNL     1      -0.725   3.720  19.738  0.00  0.00    +0.000 HD
ENDBRANCH   9  23
BRANCH   1  28
ATOM     28  C   UNL     1       1.543   7.942  19.420  0.00  0.00    +0.000 C 
BRANCH  28  29
ATOM     29  C   UNL     1       1.459   8.269  20.913  0.00  0.00    +0.000 C 
BRANCH  29  31
ATOM     30  C   UNL     1       0.106   9.280  22.781  0.00  0.00    +0.000 C 
ATOM     31  C   UNL     1       0.072   8.743  21.358  0.00  0.00    +0.000 C 
ENDBRANCH  29  31
ENDBRANCH  28  29
ENDBRANCH   1  28
TORSDOF 6
ENDMDL
MODEL 5
REMARK VINA RESULT:      -8.0      0.978      1.480
REMARK  Name = 
REMARK  7 active torsions:
REMARK  status: ('A' for Active; 'I' for Inactive)
REMARK    1  A    between atoms: C_1  and  C_2
REMARK    2  A    between atoms: C_2  and  C_3
REMARK    3  A    between atoms: C_3  and  C_4
REMARK    4  A    between atoms: C_4  and  C_5
REMARK    5  A    between atoms: C_7  and  N_8
REMARK    6  A    between atoms: C_11  and  C_12
REMARK    7  A    between atoms: C_23  and  C_24
REMARK                            x       y       z     vdW  Elec       q    Type
REMARK                         _______ _______ _______ _____ _____    ______ ____
ROOT
ATOM      1  C   UNL     1       4.729   4.901  16.463  0.00  0.00    +0.000 A 
ATOM      2  C   UNL     1       4.548   6.263  16.584  0.00  0.00    +0.000 A 
ATOM      3  C   UNL     1       3.517   6.680  17.396  0.00  0.00    +0.000 A 
ATOM      4  N   UNL     1       2.729   5.801  18.032  0.00  0.00    +0.000 NA
ATOM      5  C   UNL     1       2.950   4.492  17.864  0.00  0.00    +0.000 A 
ATOM      6  N   UNL     1       2.127   3.609  18.557  0.00  0.00    +0.000 N 
ATOM      7  C   UNL     1       1.070   3.910  19.459  0.00  0.00    +0.000 C 
ATOM      8  C   UNL     1       1.479   2.687  20.275  0.00  0.00    +0.000 C 
ATOM      9  C   UNL     1       2.436   2.323  19.118  0.00  0.00    +0.000 C 
ATOM     10  N   UNL     1       3.949   4.012  17.110  0.00  0.00    +0.000 NA
ENDROOT
BRANCH   3  11
ATOM     11  N   UNL     1       3.332   8.066  17.587  0.00  0.00    +0.000 N 
ATOM     12  C   UNL     1       2.382   8.639  18.357  0.00  0.00    +0.000 A 
ATOM     13  C   UNL     1       1.930   8.127  19.596  0.00  0.00    +0.000 A 
ATOM     14  C   UNL     1       0.974   9.012  20.021  0.00  0.00    +0.000 A 
ATOM     15  N   UNL     1       0.909   9.979  19.062  0.00  0.00    +0.000 N 
ATOM     16  N   UNL     1       1.794   9.804  18.066  0.00  0.00    +0.000 NA
ATOM     17  H   UNL     1       3.539   8.582  16.740  0.00  0.00    +0.000 HD
ATOM     18  H   UNL     1       0.304  10.792  19.028  0.00  0.00    +0.000 HD
BRANCH  14  19
ATOM     19  C   UNL     1       0.159   8.883  21.286  0.00  0.00    +0.000 C 
ATOM     20  C   UNL     1       0.918   9.121  22.621  0.00  0.00    +0.000 C 
ATOM     21  C   UNL     1      -0.323   9.886  23.117  0.00  0.00    +0.000 C 
ATOM     22  C   UNL     1      -0.633  10.178  21.638  0.00  0.00    +0.000 C 
ENDBRANCH  14  19
ENDBRANCH   3  11
BRANCH   9  23
ATOM     23  C   UNL     1       3.916   1.981  19.512  0.00  0.00    +0.000 C 
ATOM     24  N   UNL     1       4.446   0.841  18.957  0.00  0.00    +0.000 N 
ATOM     25  O   UNL     1       4.642   2.668  20.235  0.00  0.00    +0.000 OA
ATOM     26  H   UNL     1       3.852   0.157  18.511  0.00  0.00    +0.000 HD
ATOM     27  H   UNL     1       5.347   0.546  19.309  0.00  0.00    +0.000 HD
ENDBRANCH   9  23
BRANCH   1  28
ATOM     28  C   UNL     1       5.848   4.364  15.606  0.00  0.00    +0.000 C 
BRANCH  28  29
ATOM     29  C   UNL     1       7.240   4.827  16.043  0.00  0.00    +0.000 C 
BRANCH  29  31
ATOM     30  C   UNL     1       7.678   5.783  18.331  0.00  0.00    +0.000 C 
ATOM     31  C   UNL     1       7.558   4.509  17.507  0.00  0.00    +0.000 C 
ENDBRANCH  29  31
ENDBRANCH  28  29
ENDBRANCH   1  28
TORSDOF 6
ENDMDL
MODEL 6
REMARK VINA RESULT:      -7.9      2.325      7.348
REMARK  Name = 
REMARK  7 active torsions:
REMARK  status: ('A' for Active; 'I' for Inactive)
REMARK    1  A    between atoms: C_1  and  C_2
REMARK    2  A    between atoms: C_2  and  C_3
REMARK    3  A    between atoms: C_3  and  C_4
REMARK    4  A    between atoms: C_4  and  C_5
REMARK    5  A    between atoms: C_7  and  N_8
REMARK    6  A    between atoms: C_11  and  C_12
REMARK    7  A    between atoms: C_23  and  C_24
REMARK                            x       y       z     vdW  Elec       q    Type
REMARK                         _______ _______ _______ _____ _____    ______ ____
ROOT
ATOM      1  C   UNL     1       2.783   7.111  18.788  0.00  0.00    +0.000 A 
ATOM      2  C   UNL     1       3.773   7.463  17.895  0.00  0.00    +0.000 A 
ATOM      3  C   UNL     1       4.756   6.528  17.663  0.00  0.00    +0.000 A 
ATOM      4  N   UNL     1       4.750   5.338  18.280  0.00  0.00    +0.000 NA
ATOM      5  C   UNL     1       3.767   5.062  19.146  0.00  0.00    +0.000 A 
ATOM      6  N   UNL     1       3.779   3.809  19.752  0.00  0.00    +0.000 N 
ATOM      7  C   UNL     1       4.701   2.744  19.560  0.00  0.00    +0.000 C 
ATOM      8  C   UNL     1       3.539   1.769  19.727  0.00  0.00    +0.000 C 
ATOM      9  C   UNL     1       2.678   2.978  20.152  0.00  0.00    +0.000 C 
ATOM     10  N   UNL     1       2.763   5.912  19.404  0.00  0.00    +0.000 NA
ENDROOT
BRANCH   3  11
ATOM     11  N   UNL     1       5.758   6.829  16.715  0.00  0.00    +0.000 N 
ATOM     12  C   UNL     1       6.238   5.986  15.775  0.00  0.00    +0.000 A 
ATOM     13  C   UNL     1       5.459   5.043  15.063  0.00  0.00    +0.000 A 
ATOM     14  C   UNL     1       6.341   4.409  14.228  0.00  0.00    +0.000 A 
ATOM     15  N   UNL     1       7.554   4.987  14.459  0.00  0.00    +0.000 N 
ATOM     16  N   UNL     1       7.507   5.986  15.358  0.00  0.00    +0.000 NA
ATOM     17  H   UNL     1       6.459   7.446  17.108  0.00  0.00    +0.000 HD
ATOM     18  H   UNL     1       8.447   4.767  14.034  0.00  0.00    +0.000 HD
BRANCH  14  19
ATOM     19  C   UNL     1       5.999   3.282  13.282  0.00  0.00    +0.000 C 
ATOM     20  C   UNL     1       4.734   3.482  12.402  0.00  0.00    +0.000 C 
ATOM     21  C   UNL     1       5.521   2.852  11.239  0.00  0.00    +0.000 C 
ATOM     22  C   UNL     1       6.798   3.340  11.946  0.00  0.00    +0.000 C 
ENDBRANCH  14  19
ENDBRANCH   3  11
BRANCH   9  23
ATOM     23  C   UNL     1       1.287   3.134  19.441  0.00  0.00    +0.000 C 
ATOM     24  N   UNL     1       0.314   3.801  20.147  0.00  0.00    +0.000 N 
ATOM     25  O   UNL     1       1.018   2.749  18.301  0.00  0.00    +0.000 OA
ATOM     26  H   UNL     1       0.419   3.976  21.136  0.00  0.00    +0.000 HD
ATOM     27  H   UNL     1      -0.617   3.788  19.753  0.00  0.00    +0.000 HD
ENDBRANCH   9  23
BRANCH   1  28
ATOM     28  C   UNL     1       1.659   8.073  19.085  0.00  0.00    +0.000 C 
BRANCH  28  29
ATOM     29  C   UNL     1       1.606   9.273  18.136  0.00  0.00    +0.000 C 
BRANCH  29  31
ATOM     30  C   UNL     1      -0.177  10.684  19.220  0.00  0.00    +0.000 C 
ATOM     31  C   UNL     1       0.204   9.873  17.990  0.00  0.00    +0.000 C 
ENDBRANCH  29  31
ENDBRANCH  28  29
ENDBRANCH   1  28
TORSDOF 6
ENDMDL
MODEL 7
REMARK VINA RESULT:      -7.9      2.415      7.562
REMARK  Name = 
REMARK  7 active torsions:
REMARK  status: ('A' for Active; 'I' for Inactive)
REMARK    1  A    between atoms: C_1  and  C_2
REMARK    2  A    between atoms: C_2  and  C_3
REMARK    3  A    between atoms: C_3  and  C_4
REMARK    4  A    between atoms: C_4  and  C_5
REMARK    5  A    between atoms: C_7  and  N_8
REMARK    6  A    between atoms: C_11  and  C_12
REMARK    7  A    between atoms: C_23  and  C_24
REMARK                            x       y       z     vdW  Elec       q    Type
REMARK                         _______ _______ _______ _____ _____    ______ ____
ROOT
ATOM      1  C   UNL     1       3.037   5.706  19.257  0.00  0.00    +0.000 A 
ATOM      2  C   UNL     1       4.216   5.764  18.544  0.00  0.00    +0.000 A 
ATOM      3  C   UNL     1       4.452   6.918  17.832  0.00  0.00    +0.000 A 
ATOM      4  N   UNL     1       3.574   7.931  17.831  0.00  0.00    +0.000 NA
ATOM      5  C   UNL     1       2.441   7.808  18.534  0.00  0.00    +0.000 A 
ATOM      6  N   UNL     1       1.563   8.888  18.528  0.00  0.00    +0.000 N 
ATOM      7  C   UNL     1       1.713  10.145  17.881  0.00  0.00    +0.000 C 
ATOM      8  C   UNL     1       1.007  10.790  19.071  0.00  0.00    +0.000 C 
ATOM      9  C   UNL     1       0.693   9.362  19.568  0.00  0.00    +0.000 C 
ATOM     10  N   UNL     1       2.155   6.726  19.271  0.00  0.00    +0.000 NA
ENDROOT
BRANCH   3  11
ATOM     11  N   UNL     1       5.672   7.037  17.133  0.00  0.00    +0.000 N 
ATOM     12  C   UNL     1       6.195   6.119  16.291  0.00  0.00    +0.000 A 
ATOM     13  C   UNL     1       5.441   5.321  15.398  0.00  0.00    +0.000 A 
ATOM     14  C   UNL     1       6.364   4.541  14.752  0.00  0.00    +0.000 A 
ATOM     15  N   UNL     1       7.577   4.902  15.257  0.00  0.00    +0.000 N 
ATOM     16  N   UNL     1       7.506   5.899  16.157  0.00  0.00    +0.000 NA
ATOM     17  H   UNL     1       6.364   7.526  17.687  0.00  0.00    +0.000 HD
ATOM     18  H   UNL     1       8.492   4.529  15.028  0.00  0.00    +0.000 HD
BRANCH  14  19
ATOM     19  C   UNL     1       6.050   3.484  13.718  0.00  0.00    +0.000 C 
ATOM     20  C   UNL     1       4.756   3.699  12.886  0.00  0.00    +0.000 C 
ATOM     21  C   UNL     1       5.542   3.211  11.656  0.00  0.00    +0.000 C 
ATOM     22  C   UNL     1       6.812   3.696  12.376  0.00  0.00    +0.000 C 
ENDBRANCH  14  19
ENDBRANCH   3  11
BRANCH   9  23
ATOM     23  C   UNL     1       1.033   9.050  21.069  0.00  0.00    +0.000 C 
ATOM     24  N   UNL     1       0.669   7.808  21.530  0.00  0.00    +0.000 N 
ATOM     25  O   UNL     1       1.629   9.806  21.840  0.00  0.00    +0.000 OA
ATOM     26  H   UNL     1       0.030   7.227  21.006  0.00  0.00    +0.000 HD
ATOM     27  H   UNL     1       0.763   7.651  22.524  0.00  0.00    +0.000 HD
ENDBRANCH   9  23
BRANCH   1  28
ATOM     28  C   UNL     1       2.712   4.483  20.078  0.00  0.00    +0.000 C 
BRANCH  28  29
ATOM     29  C   UNL     1       1.373   3.834  19.719  0.00  0.00    +0.000 C 
BRANCH  29  31
ATOM     30  C   UNL     1       2.325   2.311  17.954  0.00  0.00    +0.000 C 
ATOM     31  C   UNL     1       1.287   3.381  18.258  0.00  0.00    +0.000 C 
ENDBRANCH  29  31
ENDBRANCH  28  29
ENDBRANCH   1  28
TORSDOF 6
ENDMDL
MODEL 8
REMARK VINA RESULT:      -7.7      2.452      2.969
REMARK  Name = 
REMARK  7 active torsions:
REMARK  status: ('A' for Active; 'I' for Inactive)
REMARK    1  A    between atoms: C_1  and  C_2
REMARK    2  A    between atoms: C_2  and  C_3
REMARK    3  A    between atoms: C_3  and  C_4
REMARK    4  A    between atoms: C_4  and  C_5
REMARK    5  A    between atoms: C_7  and  N_8
REMARK    6  A    between atoms: C_11  and  C_12
REMARK    7  A    between atoms: C_23  and  C_24
REMARK                            x       y       z     vdW  Elec       q    Type
REMARK                         _______ _______ _______ _____ _____    ______ ____
ROOT
ATOM      1  C   UNL     1       3.834   6.499  17.302  0.00  0.00    +0.000 A 
ATOM      2  C   UNL     1       3.410   7.688  17.857  0.00  0.00    +0.000 A 
ATOM      3  C   UNL     1       2.442   7.604  18.833  0.00  0.00    +0.000 A 
ATOM      4  N   UNL     1       1.937   6.423  19.217  0.00  0.00    +0.000 NA
ATOM      5  C   UNL     1       2.383   5.306  18.630  0.00  0.00    +0.000 A 
ATOM      6  N   UNL     1       1.852   4.096  19.069  0.00  0.00    +0.000 N 
ATOM      7  C   UNL     1       0.894   3.873  20.096  0.00  0.00    +0.000 C 
ATOM      8  C   UNL     1       1.643   2.591  20.452  0.00  0.00    +0.000 C 
ATOM      9  C   UNL     1       2.480   2.808  19.172  0.00  0.00    +0.000 C 
ATOM     10  N   UNL     1       3.340   5.307  17.692  0.00  0.00    +0.000 NA
ENDROOT
BRANCH   3  11
ATOM     11  N   UNL     1       2.021   8.794  19.463  0.00  0.00    +0.000 N 
ATOM     12  C   UNL     1       1.099   9.658  18.986  0.00  0.00    +0.000 A 
ATOM     13  C   UNL     1      -0.075   9.284  18.290  0.00  0.00    +0.000 A 
ATOM     14  C   UNL     1      -0.706  10.464  17.995  0.00  0.00    +0.000 A 
ATOM     15  N   UNL     1       0.079  11.448  18.518  0.00  0.00    +0.000 N 
ATOM     16  N   UNL     1       1.156  10.981  19.174  0.00  0.00    +0.000 NA
ATOM     17  H   UNL     1       2.788   9.241  19.950  0.00  0.00    +0.000 HD
ATOM     18  H   UNL     1      -0.062  12.451  18.483  0.00  0.00    +0.000 HD
BRANCH  14  19
ATOM     19  C   UNL     1      -1.994  10.599  17.217  0.00  0.00    +0.000 C 
ATOM     20  C   UNL     1      -3.098   9.551  17.526  0.00  0.00    +0.000 C 
ATOM     21  C   UNL     1      -4.122  10.698  17.440  0.00  0.00    +0.000 C 
ATOM     22  C   UNL     1      -2.973  11.644  17.831  0.00  0.00    +0.000 C 
ENDBRANCH  14  19
ENDBRANCH   3  11
BRANCH   9  23
ATOM     23  C   UNL     1       4.039   2.713  19.329  0.00  0.00    +0.000 C 
ATOM     24  N   UNL     1       4.775   2.835  18.174  0.00  0.00    +0.000 N 
ATOM     25  O   UNL     1       4.646   2.583  20.395  0.00  0.00    +0.000 OA
ATOM     26  H   UNL     1       4.334   2.764  17.269  0.00  0.00    +0.000 HD
ATOM     27  H   UNL     1       5.765   2.643  18.249  0.00  0.00    +0.000 HD
ENDBRANCH   9  23
BRANCH   1  28
ATOM     28  C   UNL     1       4.905   6.503  16.239  0.00  0.00    +0.000 C 
BRANCH  28  29
ATOM     29  C   UNL     1       6.130   5.657  16.591  0.00  0.00    +0.000 C 
BRANCH  29  31
ATOM     30  C   UNL     1       7.543   7.540  17.485  0.00  0.00    +0.000 C 
ATOM     31  C   UNL     1       6.915   6.189  17.794  0.00  0.00    +0.000 C 
ENDBRANCH  29  31
ENDBRANCH  28  29
ENDBRANCH   1  28
TORSDOF 6
ENDMDL
MODEL 9
REMARK VINA RESULT:      -7.7      2.381      7.736
REMARK  Name = 
REMARK  7 active torsions:
REMARK  status: ('A' for Active; 'I' for Inactive)
REMARK    1  A    between atoms: C_1  and  C_2
REMARK    2  A    between atoms: C_2  and  C_3
REMARK    3  A    between atoms: C_3  and  C_4
REMARK    4  A    between atoms: C_4  and  C_5
REMARK    5  A    between atoms: C_7  and  N_8
REMARK    6  A    between atoms: C_11  and  C_12
REMARK    7  A    between atoms: C_23  and  C_24
REMARK                            x       y       z     vdW  Elec       q    Type
REMARK                         _______ _______ _______ _____ _____    ______ ____
ROOT
ATOM      1  C   UNL     1       2.440   5.546  18.368  0.00  0.00    +0.000 A 
ATOM      2  C   UNL     1       3.707   5.622  17.828  0.00  0.00    +0.000 A 
ATOM      3  C   UNL     1       4.173   6.880  17.519  0.00  0.00    +0.000 A 
ATOM      4  N   UNL     1       3.427   7.973  17.731  0.00  0.00    +0.000 NA
ATOM      5  C   UNL     1       2.200   7.831  18.247  0.00  0.00    +0.000 A 
ATOM      6  N   UNL     1       1.462   8.989  18.474  0.00  0.00    +0.000 N 
ATOM      7  C   UNL     1       1.846  10.339  18.249  0.00  0.00    +0.000 C 
ATOM      8  C   UNL     1       1.059  10.724  19.499  0.00  0.00    +0.000 C 
ATOM      9  C   UNL     1       0.515   9.279  19.514  0.00  0.00    +0.000 C 
ATOM     10  N   UNL     1       1.689   6.642  18.595  0.00  0.00    +0.000 NA
ENDROOT
BRANCH   3  11
ATOM     11  N   UNL     1       5.484   7.004  17.014  0.00  0.00    +0.000 N 
ATOM     12  C   UNL     1       6.117   6.109  16.225  0.00  0.00    +0.000 A 
ATOM     13  C   UNL     1       5.497   5.357  15.199  0.00  0.00    +0.000 A 
ATOM     14  C   UNL     1       6.496   4.585  14.667  0.00  0.00    +0.000 A 
ATOM     15  N   UNL     1       7.625   4.908  15.361  0.00  0.00    +0.000 N 
ATOM     16  N   UNL     1       7.432   5.871  16.278  0.00  0.00    +0.000 NA
ATOM     17  H   UNL     1       6.092   7.461  17.683  0.00  0.00    +0.000 HD
ATOM     18  H   UNL     1       8.559   4.528  15.256  0.00  0.00    +0.000 HD
BRANCH  14  19
ATOM     19  C   UNL     1       6.328   3.573  13.559  0.00  0.00    +0.000 C 
ATOM     20  C   UNL     1       4.991   3.632  12.770  0.00  0.00    +0.000 C 
ATOM     21  C   UNL     1       5.807   3.377  11.490  0.00  0.00    +0.000 C 
ATOM     22  C   UNL     1       7.002   4.011  12.223  0.00  0.00    +0.000 C 
ENDBRANCH  14  19
ENDBRANCH   3  11
BRANCH   9  23
ATOM     23  C   UNL     1       0.601   8.510  20.880  0.00  0.00    +0.000 C 
ATOM     24  N   UNL     1       1.865   8.237  21.346  0.00  0.00    +0.000 N 
ATOM     25  O   UNL     1      -0.361   8.177  21.577  0.00  0.00    +0.000 OA
ATOM     26  H   UNL     1       2.670   8.323  20.743  0.00  0.00    +0.000 HD
ATOM     27  H   UNL     1       1.926   7.629  22.152  0.00  0.00    +0.000 HD
ENDBRANCH   9  23
BRANCH   1  28
ATOM     28  C   UNL     1       1.864   4.205  18.750  0.00  0.00    +0.000 C 
BRANCH  28  29
ATOM     29  C   UNL     1       1.033   4.233  20.036  0.00  0.00    +0.000 C 
BRANCH  29  31
ATOM     30  C   UNL     1       2.600   2.881  21.470  0.00  0.00    +0.000 C 
ATOM     31  C   UNL     1       1.195   2.975  20.894  0.00  0.00    +0.000 C 
ENDBRANCH  29  31
ENDBRANCH  28  29
ENDBRANCH   1  28
TORSDOF 6
ENDMDL
