MODEL 1
REMARK VINA RESULT:      -7.1      0.000      0.000
REMARK  Name = 
REMARK  12 active torsions:
REMARK  status: ('A' for Active; 'I' for Inactive)
REMARK    1  A    between atoms: C_1  and  O_2
REMARK    2  A    between atoms: O_2  and  C_3
REMARK    3  A    between atoms: C_6  and  C_7
REMARK    4  A    between atoms: C_7  and  N_8
REMARK    5  A    between atoms: C_19  and  C_20
REMARK    6  A    between atoms: C_20  and  N_21
REMARK    7  A    between atoms: N_21  and  C_22
REMARK    8  A    between atoms: N_21  and  C_25
REMARK    9  A    between atoms: C_22  and  C_23
REMARK   10  A    between atoms: C_22  and  C_24
REMARK   11  A    between atoms: C_25  and  C_26
REMARK   12  A    between atoms: C_25  and  C_27
REMARK                            x       y       z     vdW  Elec       q    Type
REMARK                         _______ _______ _______ _____ _____    ______ ____
ROOT
ATOM      1  C   UNL     1       3.132   4.334  18.362  0.00  0.00    +0.000 A 
ATOM      2  C   UNL     1       1.829   4.784  18.120  0.00  0.00    +0.000 A 
ATOM      3  C   UNL     1       1.563   6.144  17.962  0.00  0.00    +0.000 A 
ATOM      4  C   UNL     1       2.588   7.084  18.075  0.00  0.00    +0.000 A 
ATOM      5  C   UNL     1       3.910   6.620  18.204  0.00  0.00    +0.000 A 
ATOM      6  C   UNL     1       4.204   5.244  18.325  0.00  0.00    +0.000 A 
ENDROOT
BRANCH   1   8
ATOM      7  C   UNL     1       2.726   2.066  17.802  0.00  0.00    +0.000 C 
ATOM      8  O   UNL     1       3.416   3.015  18.619  0.00  0.00    +0.000 OA
ENDBRANCH   1   8
BRANCH   4   9
ATOM      9  C   UNL     1       2.264   8.568  18.088  0.00  0.00    +0.000 C 
BRANCH   9  10
ATOM     10  N   UNL     1       1.162   8.979  18.987  0.00  0.00    +0.000 NA
ATOM     11  C   UNL     1       0.746  10.376  18.763  0.00  0.00    +0.000 C 
ATOM     12  C   UNL     1      -0.450  10.768  19.636  0.00  0.00    +0.000 C 
ATOM     13  N   UNL     1      -0.205  10.402  21.008  0.00  0.00    +0.000 N 
ATOM     14  C   UNL     1       0.574   9.383  21.396  0.00  0.00    +0.000 A 
ATOM     15  N   UNL     1       0.560   9.152  22.680  0.00  0.00    +0.000 NA
ATOM     16  N   UNL     1      -0.319  10.092  23.164  0.00  0.00    +0.000 N 
ATOM     17  C   UNL     1      -0.824  10.866  22.126  0.00  0.00    +0.000 A 
ATOM     18  O   UNL     1      -1.654  11.752  22.217  0.00  0.00    +0.000 OA
ATOM     19  C   UNL     1       1.444   8.651  20.404  0.00  0.00    +0.000 C 
ATOM     20  H   UNL     1      -0.569  10.161  24.139  0.00  0.00    +0.000 HD
ENDBRANCH   9  10
ENDBRANCH   4   9
BRANCH   6  21
ATOM     21  C   UNL     1       5.656   4.778  18.253  0.00  0.00    +0.000 C 
BRANCH  21  22
ATOM     22  N   UNL     1       6.487   5.389  17.185  0.00  0.00    +0.000 NA
BRANCH  22  23
ATOM     23  C   UNL     1       7.630   6.160  17.747  0.00  0.00    +0.000 C 
ATOM     24  C   UNL     1       7.598   7.684  17.537  0.00  0.00    +0.000 C 
ATOM     25  C   UNL     1       7.935   5.851  19.221  0.00  0.00    +0.000 C 
ENDBRANCH  22  23
BRANCH  22  26
ATOM     26  C   UNL     1       6.804   4.460  16.066  0.00  0.00    +0.000 C 
ATOM     27  C   UNL     1       5.709   3.466  15.658  0.00  0.00    +0.000 C 
ATOM     28  C   UNL     1       7.282   5.207  14.802  0.00  0.00    +0.000 C 
ENDBRANCH  22  26
ENDBRANCH  21  22
ENDBRANCH   6  21
TORSDOF 7
ENDMDL
MODEL 2
REMARK VINA RESULT:      -7.1      1.691      2.499
REMARK  Name = 
REMARK  12 active torsions:
REMARK  status: ('A' for Active; 'I' for Inactive)
REMARK    1  A    between atoms: C_1  and  O_2
REMARK    2  A    between atoms: O_2  and  C_3
REMARK    3  A    between atoms: C_6  and  C_7
REMARK    4  A    between atoms: C_7  and  N_8
REMARK    5  A    between atoms: C_19  and  C_20
REMARK    6  A    between atoms: C_20  and  N_21
REMARK    7  A    between atoms: N_21  and  C_22
REMARK    8  A    between atoms: N_21  and  C_25
REMARK    9  A    between atoms: C_22  and  C_23
REMARK   10  A    between atoms: C_22  and  C_24
REMARK   11  A    between atoms: C_25  and  C_26
REMARK   12  A    between atoms: C_25  and  C_27
REMARK                            x       y       z     vdW  Elec       q    Type
REMARK                         _______ _______ _______ _____ _____    ______ ____
ROOT
ATOM      1  C   UNL     1       3.363   3.439  18.473  0.00  0.00    +0.000 A 
ATOM      2  C   UNL     1       1.966   3.502  18.517  0.00  0.00    +0.000 A 
ATOM      3  C   UNL     1       1.320   4.486  19.265  0.00  0.00    +0.000 A 
ATOM      4  C   UNL     1       2.057   5.407  20.010  0.00  0.00    +0.000 A 
ATOM      5  C   UNL     1       3.458   5.412  19.873  0.00  0.00    +0.000 A 
ATOM      6  C   UNL     1       4.128   4.448  19.087  0.00  0.00    +0.000 A 
ENDROOT
BRANCH   1   8
ATOM      7  C   UNL     1       3.827   1.117  18.363  0.00  0.00    +0.000 C 
ATOM      8  O   UNL     1       4.031   2.427  17.828  0.00  0.00    +0.000 OA
ENDBRANCH   1   8
BRANCH   4   9
ATOM      9  C   UNL     1       1.351   6.355  20.965  0.00  0.00    +0.000 C 
BRANCH   9  10
ATOM     10  N   UNL     1       1.591   7.797  20.736  0.00  0.00    +0.000 NA
ATOM     11  C   UNL     1       0.574   8.645  21.384  0.00  0.00    +0.000 C 
ATOM     12  C   UNL     1       0.875  10.137  21.217  0.00  0.00    +0.000 C 
ATOM     13  N   UNL     1       1.148  10.437  19.834  0.00  0.00    +0.000 N 
ATOM     14  C   UNL     1       1.667   9.568  18.956  0.00  0.00    +0.000 A 
ATOM     15  N   UNL     1       1.947  10.082  17.790  0.00  0.00    +0.000 NA
ATOM     16  N   UNL     1       1.595  11.403  17.930  0.00  0.00    +0.000 N 
ATOM     17  C   UNL     1       1.115  11.645  19.212  0.00  0.00    +0.000 A 
ATOM     18  O   UNL     1       0.762  12.718  19.666  0.00  0.00    +0.000 OA
ATOM     19  C   UNL     1       1.816   8.107  19.305  0.00  0.00    +0.000 C 
ATOM     20  H   UNL     1       1.714  12.085  17.196  0.00  0.00    +0.000 HD
ENDBRANCH   9  10
ENDBRANCH   4   9
BRANCH   6  21
ATOM     21  C   UNL     1       5.618   4.617  18.803  0.00  0.00    +0.000 C 
BRANCH  21  22
ATOM     22  N   UNL     1       5.977   5.633  17.782  0.00  0.00    +0.000 NA
BRANCH  22  23
ATOM     23  C   UNL     1       7.371   6.125  17.959  0.00  0.00    +0.000 C 
ATOM     24  C   UNL     1       7.623   7.606  17.628  0.00  0.00    +0.000 C 
ATOM     25  C   UNL     1       7.988   5.792  19.327  0.00  0.00    +0.000 C 
ENDBRANCH  22  23
BRANCH  22  26
ATOM     26  C   UNL     1       5.580   5.260  16.397  0.00  0.00    +0.000 C 
ATOM     27  C   UNL     1       5.213   6.407  15.447  0.00  0.00    +0.000 C 
ATOM     28  C   UNL     1       6.635   4.370  15.704  0.00  0.00    +0.000 C 
ENDBRANCH  22  26
ENDBRANCH  21  22
ENDBRANCH   6  21
TORSDOF 7
ENDMDL
MODEL 3
REMARK VINA RESULT:      -7.0      0.957      1.523
REMARK  Name = 
REMARK  12 active torsions:
REMARK  status: ('A' for Active; 'I' for Inactive)
REMARK    1  A    between atoms: C_1  and  O_2
REMARK    2  A    between atoms: O_2  and  C_3
REMARK    3  A    between atoms: C_6  and  C_7
REMARK    4  A    between atoms: C_7  and  N_8
REMARK    5  A    between atoms: C_19  and  C_20
REMARK    6  A    between atoms: C_20  and  N_21
REMARK    7  A    between atoms: N_21  and  C_22
REMARK    8  A    between atoms: N_21  and  C_25
REMARK    9  A    between atoms: C_22  and  C_23
REMARK   10  A    between atoms: C_22  and  C_24
REMARK   11  A    between atoms: C_25  and  C_26
REMARK   12  A    between atoms: C_25  and  C_27
REMARK                            x       y       z     vdW  Elec       q    Type
REMARK                         _______ _______ _______ _____ _____    ______ ____
ROOT
ATOM      1  C   UNL     1       3.573   4.203  18.733  0.00  0.00    +0.000 A 
ATOM      2  C   UNL     1       2.187   4.336  18.594  0.00  0.00    +0.000 A 
ATOM      3  C   UNL     1       1.619   5.565  18.257  0.00  0.00    +0.000 A 
ATOM      4  C   UNL     1       2.423   6.693  18.085  0.00  0.00    +0.000 A 
ATOM      5  C   UNL     1       3.820   6.530  18.114  0.00  0.00    +0.000 A 
ATOM      6  C   UNL     1       4.415   5.284  18.413  0.00  0.00    +0.000 A 
ENDROOT
BRANCH   1   8
ATOM      7  C   UNL     1       3.600   1.835  18.617  0.00  0.00    +0.000 C 
ATOM      8  O   UNL     1       4.158   3.035  19.158  0.00  0.00    +0.000 OA
ENDBRANCH   1   8
BRANCH   4   9
ATOM      9  C   UNL     1       1.788   8.061  17.903  0.00  0.00    +0.000 C 
BRANCH   9  10
ATOM     10  N   UNL     1       1.583   8.845  19.142  0.00  0.00    +0.000 NA
ATOM     11  C   UNL     1       1.436   7.987  20.332  0.00  0.00    +0.000 C 
ATOM     12  C   UNL     1       1.310   8.805  21.621  0.00  0.00    +0.000 C 
ATOM     13  N   UNL     1       0.310   9.830  21.463  0.00  0.00    +0.000 N 
ATOM     14  C   UNL     1      -0.012  10.405  20.297  0.00  0.00    +0.000 A 
ATOM     15  N   UNL     1      -0.856  11.395  20.398  0.00  0.00    +0.000 NA
ATOM     16  N   UNL     1      -1.087  11.481  21.751  0.00  0.00    +0.000 N 
ATOM     17  C   UNL     1      -0.345  10.522  22.432  0.00  0.00    +0.000 A 
ATOM     18  O   UNL     1      -0.294  10.365  23.638  0.00  0.00    +0.000 OA
ATOM     19  C   UNL     1       0.515   9.861  18.991  0.00  0.00    +0.000 C 
ATOM     20  H   UNL     1      -1.689  12.177  22.163  0.00  0.00    +0.000 HD
ENDBRANCH   9  10
ENDBRANCH   4   9
BRANCH   6  21
ATOM     21  C   UNL     1       5.920   5.108  18.229  0.00  0.00    +0.000 C 
BRANCH  21  22
ATOM     22  N   UNL     1       6.572   6.025  17.261  0.00  0.00    +0.000 NA
BRANCH  22  23
ATOM     23  C   UNL     1       7.785   6.666  17.839  0.00  0.00    +0.000 C 
ATOM     24  C   UNL     1       7.854   8.201  17.758  0.00  0.00    +0.000 C 
ATOM     25  C   UNL     1       8.118   6.211  19.269  0.00  0.00    +0.000 C 
ENDBRANCH  22  23
BRANCH  22  26
ATOM     26  C   UNL     1       6.716   5.453  15.895  0.00  0.00    +0.000 C 
ATOM     27  C   UNL     1       6.945   3.939  15.796  0.00  0.00    +0.000 C 
ATOM     28  C   UNL     1       5.534   5.830  14.975  0.00  0.00    +0.000 C 
ENDBRANCH  22  26
ENDBRANCH  21  22
ENDBRANCH   6  21
TORSDOF 7
ENDMDL
MODEL 4
REMARK VINA RESULT:      -6.9      2.083      2.475
REMARK  Name = 
REMARK  12 active torsions:
REMARK  status: ('A' for Active; 'I' for Inactive)
REMARK    1  A    between atoms: C_1  and  O_2
REMARK    2  A    between atoms: O_2  and  C_3
REMARK    3  A    between atoms: C_6  and  C_7
REMARK    4  A    between atoms: C_7  and  N_8
REMARK    5  A    between atoms: C_19  and  C_20
REMARK    6  A    between atoms: C_20  and  N_21
REMARK    7  A    between atoms: N_21  and  C_22
REMARK    8  A    between atoms: N_21  and  C_25
REMARK    9  A    between atoms: C_22  and  C_23
REMARK   10  A    between atoms: C_22  and  C_24
REMARK   11  A    between atoms: C_25  and  C_26
REMARK   12  A    between atoms: C_25  and  C_27
REMARK                            x       y       z     vdW  Elec       q    Type
REMARK                         _______ _______ _______ _____ _____    ______ ____
ROOT
ATOM      1  C   UNL     1       3.527   5.778  19.160  0.00  0.00    +0.000 A 
ATOM      2  C   UNL     1       2.590   6.463  19.942  0.00  0.00    +0.000 A 
ATOM      3  C   UNL     1       2.039   7.667  19.504  0.00  0.00    +0.000 A 
ATOM      4  C   UNL     1       2.438   8.227  18.289  0.00  0.00    +0.000 A 
ATOM      5  C   UNL     1       3.292   7.482  17.456  0.00  0.00    +0.000 A 
ATOM      6  C   UNL     1       3.828   6.241  17.865  0.00  0.00    +0.000 A 
ENDROOT
BRANCH   1   8
ATOM      7  C   UNL     1       3.310   3.529  19.877  0.00  0.00    +0.000 C 
ATOM      8  O   UNL     1       4.162   4.644  19.602  0.00  0.00    +0.000 OA
ENDBRANCH   1   8
BRANCH   4   9
ATOM      9  C   UNL     1       1.977   9.624  17.906  0.00  0.00    +0.000 C 
BRANCH   9  10
ATOM     10  N   UNL     1       0.757  10.109  18.589  0.00  0.00    +0.000 NA
ATOM     11  C   UNL     1      -0.468   9.827  17.818  0.00  0.00    +0.000 C 
ATOM     12  C   UNL     1      -1.733  10.253  18.568  0.00  0.00    +0.000 C 
ATOM     13  N   UNL     1      -1.594  11.605  19.048  0.00  0.00    +0.000 N 
ATOM     14  C   UNL     1      -0.428  12.185  19.362  0.00  0.00    +0.000 A 
ATOM     15  N   UNL     1      -0.541  13.372  19.891  0.00  0.00    +0.000 NA
ATOM     16  N   UNL     1      -1.900  13.572  19.941  0.00  0.00    +0.000 N 
ATOM     17  C   UNL     1      -2.573  12.464  19.438  0.00  0.00    +0.000 A 
ATOM     18  O   UNL     1      -3.780  12.310  19.383  0.00  0.00    +0.000 OA
ATOM     19  C   UNL     1       0.884  11.517  19.030  0.00  0.00    +0.000 C 
ATOM     20  H   UNL     1      -2.320  14.403  20.328  0.00  0.00    +0.000 HD
ENDBRANCH   9  10
ENDBRANCH   4   9
BRANCH   6  21
ATOM     21  C   UNL     1       4.577   5.377  16.853  0.00  0.00    +0.000 C 
BRANCH  21  22
ATOM     22  N   UNL     1       5.962   5.802  16.529  0.00  0.00    +0.000 NA
BRANCH  22  23
ATOM     23  C   UNL     1       6.663   6.353  17.721  0.00  0.00    +0.000 C 
ATOM     24  C   UNL     1       7.513   5.362  18.536  0.00  0.00    +0.000 C 
ATOM     25  C   UNL     1       7.483   7.622  17.439  0.00  0.00    +0.000 C 
ENDBRANCH  22  23
BRANCH  22  26
ATOM     26  C   UNL     1       6.719   4.812  15.716  0.00  0.00    +0.000 C 
ATOM     27  C   UNL     1       6.021   3.479  15.417  0.00  0.00    +0.000 C 
ATOM     28  C   UNL     1       7.223   5.410  14.385  0.00  0.00    +0.000 C 
ENDBRANCH  22  26
ENDBRANCH  21  22
ENDBRANCH   6  21
TORSDOF 7
ENDMDL
MODEL 5
REMARK VINA RESULT:      -6.9      1.718      2.588
REMARK  Name = 
REMARK  12 active torsions:
REMARK  status: ('A' for Active; 'I' for Inactive)
REMARK    1  A    between atoms: C_1  and  O_2
REMARK    2  A    between atoms: O_2  and  C_3
REMARK    3  A    between atoms: C_6  and  C_7
REMARK    4  A    between atoms: C_7  and  N_8
REMARK    5  A    between atoms: C_19  and  C_20
REMARK    6  A    between atoms: C_20  and  N_21
REMARK    7  A    between atoms: N_21  and  C_22
REMARK    8  A    between atoms: N_21  and  C_25
REMARK    9  A    between atoms: C_22  and  C_23
REMARK   10  A    between atoms: C_22  and  C_24
REMARK   11  A    between atoms: C_25  and  C_26
REMARK   12  A    between atoms: C_25  and  C_27
REMARK                            x       y       z     vdW  Elec       q    Type
REMARK                         _______ _______ _______ _____ _____    ______ ____
ROOT
ATOM      1  C   UNL     1       3.312   3.358  18.250  0.00  0.00    +0.000 A 
ATOM      2  C   UNL     1       1.920   3.448  18.356  0.00  0.00    +0.000 A 
ATOM      3  C   UNL     1       1.328   4.426  19.155  0.00  0.00    +0.000 A 
ATOM      4  C   UNL     1       2.116   5.312  19.891  0.00  0.00    +0.000 A 
ATOM      5  C   UNL     1       3.509   5.291  19.694  0.00  0.00    +0.000 A 
ATOM      6  C   UNL     1       4.124   4.334  18.857  0.00  0.00    +0.000 A 
ENDROOT
BRANCH   1   8
ATOM      7  C   UNL     1       3.971   1.081  18.211  0.00  0.00    +0.000 C 
ATOM      8  O   UNL     1       3.931   2.349  17.552  0.00  0.00    +0.000 OA
ENDBRANCH   1   8
BRANCH   4   9
ATOM      9  C   UNL     1       1.472   6.248  20.899  0.00  0.00    +0.000 C 
BRANCH   9  10
ATOM     10  N   UNL     1       1.691   7.694  20.667  0.00  0.00    +0.000 NA
ATOM     11  C   UNL     1       0.674   8.529  21.333  0.00  0.00    +0.000 C 
ATOM     12  C   UNL     1       0.954  10.025  21.161  0.00  0.00    +0.000 C 
ATOM     13  N   UNL     1       1.201  10.328  19.774  0.00  0.00    +0.000 N 
ATOM     14  C   UNL     1       1.715   9.466  18.886  0.00  0.00    +0.000 A 
ATOM     15  N   UNL     1       1.969   9.983  17.716  0.00  0.00    +0.000 NA
ATOM     16  N   UNL     1       1.603  11.300  17.862  0.00  0.00    +0.000 N 
ATOM     17  C   UNL     1       1.143  11.536  19.153  0.00  0.00    +0.000 A 
ATOM     18  O   UNL     1       0.785  12.605  19.613  0.00  0.00    +0.000 OA
ATOM     19  C   UNL     1       1.887   8.007  19.233  0.00  0.00    +0.000 C 
ATOM     20  H   UNL     1       1.701  11.984  17.127  0.00  0.00    +0.000 HD
ENDBRANCH   9  10
ENDBRANCH   4   9
BRANCH   6  21
ATOM     21  C   UNL     1       5.605   4.479  18.513  0.00  0.00    +0.000 C 
BRANCH  21  22
ATOM     22  N   UNL     1       5.988   5.715  17.785  0.00  0.00    +0.000 NA
BRANCH  22  23
ATOM     23  C   UNL     1       7.052   6.471  18.503  0.00  0.00    +0.000 C 
ATOM     24  C   UNL     1       8.132   5.632  19.207  0.00  0.00    +0.000 C 
ATOM     25  C   UNL     1       7.722   7.569  17.661  0.00  0.00    +0.000 C 
ENDBRANCH  22  23
BRANCH  22  26
ATOM     26  C   UNL     1       6.192   5.514  16.325  0.00  0.00    +0.000 C 
ATOM     27  C   UNL     1       6.374   4.069  15.842  0.00  0.00    +0.000 C 
ATOM     28  C   UNL     1       5.080   6.175  15.482  0.00  0.00    +0.000 C 
ENDBRANCH  22  26
ENDBRANCH  21  22
ENDBRANCH   6  21
TORSDOF 7
ENDMDL
MODEL 6
REMARK VINA RESULT:      -6.8      1.984      3.215
REMARK  Name = 
REMARK  12 active torsions:
REMARK  status: ('A' for Active; 'I' for Inactive)
REMARK    1  A    between atoms: C_1  and  O_2
REMARK    2  A    between atoms: O_2  and  C_3
REMARK    3  A    between atoms: C_6  and  C_7
REMARK    4  A    between atoms: C_7  and  N_8
REMARK    5  A    between atoms: C_19  and  C_20
REMARK    6  A    between atoms: C_20  and  N_21
REMARK    7  A    between atoms: N_21  and  C_22
REMARK    8  A    between atoms: N_21  and  C_25
REMARK    9  A    between atoms: C_22  and  C_23
REMARK   10  A    between atoms: C_22  and  C_24
REMARK   11  A    between atoms: C_25  and  C_26
REMARK   12  A    between atoms: C_25  and  C_27
REMARK                            x       y       z     vdW  Elec       q    Type
REMARK                         _______ _______ _______ _____ _____    ______ ____
ROOT
ATOM      1  C   UNL     1       3.009   4.854  19.135  0.00  0.00    +0.000 A 
ATOM      2  C   UNL     1       1.970   4.741  20.065  0.00  0.00    +0.000 A 
ATOM      3  C   UNL     1       1.358   5.878  20.593  0.00  0.00    +0.000 A 
ATOM      4  C   UNL     1       1.795   7.152  20.226  0.00  0.00    +0.000 A 
ATOM      5  C   UNL     1       2.760   7.261  19.208  0.00  0.00    +0.000 A 
ATOM      6  C   UNL     1       3.362   6.121  18.633  0.00  0.00    +0.000 A 
ENDROOT
BRANCH   1   8
ATOM      7  C   UNL     1       4.419   3.022  19.659  0.00  0.00    +0.000 C 
ATOM      8  O   UNL     1       3.699   3.762  18.670  0.00  0.00    +0.000 OA
ENDBRANCH   1   8
BRANCH   4   9
ATOM      9  C   UNL     1       1.254   8.379  20.941  0.00  0.00    +0.000 C 
BRANCH   9  10
ATOM     10  N   UNL     1       1.121   9.599  20.114  0.00  0.00    +0.000 NA
ATOM     11  C   UNL     1       1.193  10.833  20.918  0.00  0.00    +0.000 C 
ATOM     12  C   UNL     1       1.141  12.092  20.049  0.00  0.00    +0.000 C 
ATOM     13  N   UNL     1       0.038  12.013  19.125  0.00  0.00    +0.000 N 
ATOM     14  C   UNL     1      -0.469  10.871  18.642  0.00  0.00    +0.000 A 
ATOM     15  N   UNL     1      -1.384  11.031  17.726  0.00  0.00    +0.000 NA
ATOM     16  N   UNL     1      -1.464  12.397  17.590  0.00  0.00    +0.000 N 
ATOM     17  C   UNL     1      -0.562  13.024  18.443  0.00  0.00    +0.000 A 
ATOM     18  O   UNL     1      -0.359  14.221  18.532  0.00  0.00    +0.000 OA
ATOM     19  C   UNL     1      -0.048   9.536  19.205  0.00  0.00    +0.000 C 
ATOM     20  H   UNL     1      -2.077  12.849  16.929  0.00  0.00    +0.000 HD
ENDBRANCH   9  10
ENDBRANCH   4   9
BRANCH   6  21
ATOM     21  C   UNL     1       4.245   6.281  17.397  0.00  0.00    +0.000 C 
BRANCH  21  22
ATOM     22  N   UNL     1       5.586   5.647  17.466  0.00  0.00    +0.000 NA
BRANCH  22  23
ATOM     23  C   UNL     1       6.045   5.181  16.128  0.00  0.00    +0.000 C 
ATOM     24  C   UNL     1       6.022   3.662  15.886  0.00  0.00    +0.000 C 
ATOM     25  C   UNL     1       5.376   5.901  14.946  0.00  0.00    +0.000 C 
ENDBRANCH  22  23
BRANCH  22  26
ATOM     26  C   UNL     1       6.573   6.415  18.272  0.00  0.00    +0.000 C 
ATOM     27  C   UNL     1       7.620   5.602  19.045  0.00  0.00    +0.000 C 
ATOM     28  C   UNL     1       7.306   7.487  17.437  0.00  0.00    +0.000 C 
ENDBRANCH  22  26
ENDBRANCH  21  22
ENDBRANCH   6  21
TORSDOF 7
ENDMDL
MODEL 7
REMARK VINA RESULT:      -6.7      2.460      3.818
REMARK  Name = 
REMARK  12 active torsions:
REMARK  status: ('A' for Active; 'I' for Inactive)
REMARK    1  A    between atoms: C_1  and  O_2
REMARK    2  A    between atoms: O_2  and  C_3
REMARK    3  A    between atoms: C_6  and  C_7
REMARK    4  A    between atoms: C_7  and  N_8
REMARK    5  A    between atoms: C_19  and  C_20
REMARK    6  A    between atoms: C_20  and  N_21
REMARK    7  A    between atoms: N_21  and  C_22
REMARK    8  A    between atoms: N_21  and  C_25
REMARK    9  A    between atoms: C_22  and  C_23
REMARK   10  A    between atoms: C_22  and  C_24
REMARK   11  A    between atoms: C_25  and  C_26
REMARK   12  A    between atoms: C_25  and  C_27
REMARK                            x       y       z     vdW  Elec       q    Type
REMARK                         _______ _______ _______ _____ _____    ______ ____
ROOT
ATOM      1  C   UNL     1       2.053   6.486  20.086  0.00  0.00    +0.000 A 
ATOM      2  C   UNL     1       1.338   7.447  20.810  0.00  0.00    +0.000 A 
ATOM      3  C   UNL     1       1.143   8.728  20.295  0.00  0.00    +0.000 A 
ATOM      4  C   UNL     1       1.686   9.085  19.060  0.00  0.00    +0.000 A 
ATOM      5  C   UNL     1       2.305   8.086  18.287  0.00  0.00    +0.000 A 
ATOM      6  C   UNL     1       2.477   6.772  18.775  0.00  0.00    +0.000 A 
ENDROOT
BRANCH   1   8
ATOM      7  C   UNL     1       1.254   4.332  20.668  0.00  0.00    +0.000 C 
ATOM      8  O   UNL     1       2.349   5.249  20.603  0.00  0.00    +0.000 OA
ENDBRANCH   1   8
BRANCH   4   9
ATOM      9  C   UNL     1       1.630  10.530  18.591  0.00  0.00    +0.000 C 
BRANCH   9  10
ATOM     10  N   UNL     1       0.276  11.074  18.343  0.00  0.00    +0.000 NA
ATOM     11  C   UNL     1      -0.246  11.829  19.497  0.00  0.00    +0.000 C 
ATOM     12  C   UNL     1      -1.609  12.462  19.203  0.00  0.00    +0.000 C 
ATOM     13  N   UNL     1      -2.503  11.479  18.644  0.00  0.00    +0.000 N 
ATOM     14  C   UNL     1      -2.113  10.417  17.926  0.00  0.00    +0.000 A 
ATOM     15  N   UNL     1      -3.091   9.723  17.413  0.00  0.00    +0.000 NA
ATOM     16  N   UNL     1      -4.214  10.405  17.820  0.00  0.00    +0.000 N 
ATOM     17  C   UNL     1      -3.859  11.520  18.571  0.00  0.00    +0.000 A 
ATOM     18  O   UNL     1      -4.616  12.351  19.040  0.00  0.00    +0.000 OA
ATOM     19  C   UNL     1      -0.654  10.045  17.821  0.00  0.00    +0.000 C 
ATOM     20  H   UNL     1      -5.149  10.129  17.562  0.00  0.00    +0.000 HD
ENDBRANCH   9  10
ENDBRANCH   4   9
BRANCH   6  21
ATOM     21  C   UNL     1       2.963   5.678  17.827  0.00  0.00    +0.000 C 
BRANCH  21  22
ATOM     22  N   UNL     1       4.260   5.043  18.173  0.00  0.00    +0.000 NA
BRANCH  22  23
ATOM     23  C   UNL     1       4.185   3.558  18.099  0.00  0.00    +0.000 C 
ATOM     24  C   UNL     1       4.419   2.792  19.412  0.00  0.00    +0.000 C 
ATOM     25  C   UNL     1       2.917   3.025  17.412  0.00  0.00    +0.000 C 
ENDBRANCH  22  23
BRANCH  22  26
ATOM     26  C   UNL     1       5.434   5.679  17.517  0.00  0.00    +0.000 C 
ATOM     27  C   UNL     1       6.746   4.882  17.519  0.00  0.00    +0.000 C 
ATOM     28  C   UNL     1       5.130   6.116  16.068  0.00  0.00    +0.000 C 
ENDBRANCH  22  26
ENDBRANCH  21  22
ENDBRANCH   6  21
TORSDOF 7
ENDMDL
MODEL 8
REMARK VINA RESULT:      -6.6      2.987      4.924
REMARK  Name = 
REMARK  12 active torsions:
REMARK  status: ('A' for Active; 'I' for Inactive)
REMARK    1  A    between atoms: C_1  and  O_2
REMARK    2  A    between atoms: O_2  and  C_3
REMARK    3  A    between atoms: C_6  and  C_7
REMARK    4  A    between atoms: C_7  and  N_8
REMARK    5  A    between atoms: C_19  and  C_20
REMARK    6  A    between atoms: C_20  and  N_21
REMARK    7  A    between atoms: N_21  and  C_22
REMARK    8  A    between atoms: N_21  and  C_25
REMARK    9  A    between atoms: C_22  and  C_23
REMARK   10  A    between atoms: C_22  and  C_24
REMARK   11  A    between atoms: C_25  and  C_26
REMARK   12  A    between atoms: C_25  and  C_27
REMARK                            x       y       z     vdW  Elec       q    Type
REMARK                         _______ _______ _______ _____ _____    ______ ____
ROOT
ATOM      1  C   UNL     1       3.146   7.191  17.883  0.00  0.00    +0.000 A 
ATOM      2  C   UNL     1       3.002   8.510  17.440  0.00  0.00    +0.000 A 
ATOM      3  C   UNL     1       2.204   9.414  18.139  0.00  0.00    +0.000 A 
ATOM      4  C   UNL     1       1.506   9.009  19.278  0.00  0.00    +0.000 A 
ATOM      5  C   UNL     1       1.742   7.718  19.784  0.00  0.00    +0.000 A 
ATOM      6  C   UNL     1       2.580   6.801  19.111  0.00  0.00    +0.000 A 
ENDROOT
BRANCH   1   8
ATOM      7  C   UNL     1       5.110   6.675  16.661  0.00  0.00    +0.000 C 
ATOM      8  O   UNL     1       3.843   6.249  17.168  0.00  0.00    +0.000 OA
ENDBRANCH   1   8
BRANCH   4   9
ATOM      9  C   UNL     1       0.496   9.942  19.926  0.00  0.00    +0.000 C 
BRANCH   9  10
ATOM     10  N   UNL     1      -0.454  10.603  19.003  0.00  0.00    +0.000 NA
ATOM     11  C   UNL     1      -1.595  11.211  19.713  0.00  0.00    +0.000 C 
ATOM     12  C   UNL     1      -2.528  11.967  18.763  0.00  0.00    +0.000 C 
ATOM     13  N   UNL     1      -2.865  11.138  17.633  0.00  0.00    +0.000 N 
ATOM     14  C   UNL     1      -2.081  10.172  17.138  0.00  0.00    +0.000 A 
ATOM     15  N   UNL     1      -2.524   9.627  16.039  0.00  0.00    +0.000 NA
ATOM     16  N   UNL     1      -3.690  10.312  15.790  0.00  0.00    +0.000 N 
ATOM     17  C   UNL     1      -3.904  11.277  16.768  0.00  0.00    +0.000 A 
ATOM     18  O   UNL     1      -4.822  12.076  16.811  0.00  0.00    +0.000 OA
ATOM     19  C   UNL     1      -0.840   9.726  17.874  0.00  0.00    +0.000 C 
ATOM     20  H   UNL     1      -4.269  10.138  14.983  0.00  0.00    +0.000 HD
ENDBRANCH   9  10
ENDBRANCH   4   9
BRANCH   6  21
ATOM     21  C   UNL     1       2.968   5.495  19.800  0.00  0.00    +0.000 C 
BRANCH  21  22
ATOM     22  N   UNL     1       2.454   4.250  19.176  0.00  0.00    +0.000 NA
BRANCH  22  23
ATOM     23  C   UNL     1       3.550   3.284  18.885  0.00  0.00    +0.000 C 
ATOM     24  C   UNL     1       3.649   2.777  17.436  0.00  0.00    +0.000 C 
ATOM     25  C   UNL     1       4.936   3.741  19.366  0.00  0.00    +0.000 C 
ENDBRANCH  22  23
BRANCH  22  26
ATOM     26  C   UNL     1       1.247   3.695  19.849  0.00  0.00    +0.000 C 
ATOM     27  C   UNL     1       0.528   2.540  19.140  0.00  0.00    +0.000 C 
ATOM     28  C   UNL     1       1.530   3.274  21.307  0.00  0.00    +0.000 C 
ENDBRANCH  22  26
ENDBRANCH  21  22
ENDBRANCH   6  21
TORSDOF 7
ENDMDL
MODEL 9
REMARK VINA RESULT:      -6.6      1.666      2.207
REMARK  Name = 
REMARK  12 active torsions:
REMARK  status: ('A' for Active; 'I' for Inactive)
REMARK    1  A    between atoms: C_1  and  O_2
REMARK    2  A    between atoms: O_2  and  C_3
REMARK    3  A    between atoms: C_6  and  C_7
REMARK    4  A    between atoms: C_7  and  N_8
REMARK    5  A    between atoms: C_19  and  C_20
REMARK    6  A    between atoms: C_20  and  N_21
REMARK    7  A    between atoms: N_21  and  C_22
REMARK    8  A    between atoms: N_21  and  C_25
REMARK    9  A    between atoms: C_22  and  C_23
REMARK   10  A    between atoms: C_22  and  C_24
REMARK   11  A    between atoms: C_25  and  C_26
REMARK   12  A    between atoms: C_25  and  C_27
REMARK                            x       y       z     vdW  Elec       q    Type
REMARK                         _______ _______ _______ _____ _____    ______ ____
ROOT
ATOM      1  C   UNL     1       2.933   3.727  19.309  0.00  0.00    +0.000 A 
ATOM      2  C   UNL     1       1.629   4.022  19.723  0.00  0.00    +0.000 A 
ATOM      3  C   UNL     1       1.295   5.300  20.168  0.00  0.00    +0.000 A 
ATOM      4  C   UNL     1       2.265   6.302  20.240  0.00  0.00    +0.000 A 
ATOM      5  C   UNL     1       3.544   6.034  19.717  0.00  0.00    +0.000 A 
ATOM      6  C   UNL     1       3.889   4.756  19.225  0.00  0.00    +0.000 A 
ENDROOT
BRANCH   1   8
ATOM      7  C   UNL     1       2.691   1.921  17.793  0.00  0.00    +0.000 C 
ATOM      8  O   UNL     1       3.322   2.457  18.959  0.00  0.00    +0.000 OA
ENDBRANCH   1   8
BRANCH   4   9
ATOM      9  C   UNL     1       1.941   7.632  20.898  0.00  0.00    +0.000 C 
BRANCH   9  10
ATOM     10  N   UNL     1       0.928   8.462  20.207  0.00  0.00    +0.000 NA
ATOM     11  C   UNL     1       1.453   9.075  18.973  0.00  0.00    +0.000 C 
ATOM     12  C   UNL     1       0.377   9.862  18.218  0.00  0.00    +0.000 C 
ATOM     13  N   UNL     1      -0.308  10.756  19.117  0.00  0.00    +0.000 N 
ATOM     14  C   UNL     1      -0.463  10.542  20.430  0.00  0.00    +0.000 A 
ATOM     15  N   UNL     1      -1.220  11.417  21.033  0.00  0.00    +0.000 NA
ATOM     16  N   UNL     1      -1.602  12.262  20.019  0.00  0.00    +0.000 N 
ATOM     17  C   UNL     1      -1.058  11.847  18.809  0.00  0.00    +0.000 A 
ATOM     18  O   UNL     1      -1.240  12.355  17.718  0.00  0.00    +0.000 OA
ATOM     19  C   UNL     1       0.267   9.418  21.125  0.00  0.00    +0.000 C 
ATOM     20  H   UNL     1      -2.222  13.045  20.160  0.00  0.00    +0.000 HD
ENDBRANCH   9  10
ENDBRANCH   4   9
BRANCH   6  21
ATOM     21  C   UNL     1       5.211   4.570  18.482  0.00  0.00    +0.000 C 
BRANCH  21  22
ATOM     22  N   UNL     1       5.721   5.757  17.751  0.00  0.00    +0.000 NA
BRANCH  22  23
ATOM     23  C   UNL     1       6.905   6.356  18.428  0.00  0.00    +0.000 C 
ATOM     24  C   UNL     1       7.940   5.371  18.999  0.00  0.00    +0.000 C 
ATOM     25  C   UNL     1       7.623   7.435  17.602  0.00  0.00    +0.000 C 
ENDBRANCH  22  23
BRANCH  22  26
ATOM     26  C   UNL     1       5.834   5.554  16.281  0.00  0.00    +0.000 C 
ATOM     27  C   UNL     1       5.559   4.140  15.752  0.00  0.00    +0.000 C 
ATOM     28  C   UNL     1       4.968   6.552  15.483  0.00  0.00    +0.000 C 
ENDBRANCH  22  26
ENDBRANCH  21  22
ENDBRANCH   6  21
TORSDOF 7
ENDMDL
