MODEL 1
REMARK VINA RESULT:      -7.5      0.000      0.000
REMARK  Name = 
REMARK  4 active torsions:
REMARK  status: ('A' for Active; 'I' for Inactive)
REMARK    1  A    between atoms: C_1  and  C_2
REMARK    2  A    between atoms: C_5  and  S_6
REMARK    3  A    between atoms: S_6  and  N_9
REMARK    4  A    between atoms: C_15  and  C_16
REMARK                            x       y       z     vdW  Elec       q    Type
REMARK                         _______ _______ _______ _____ _____    ______ ____
ROOT
ATOM      1  N   UNL     1       2.236   5.900  20.709  0.00  0.00    +0.000 N 
ATOM      2  C   UNL     1       1.973   7.043  19.981  0.00  0.00    +0.000 C 
ATOM      3  N   UNL     1       2.204   7.175  18.725  0.00  0.00    +0.000 NA
ATOM      4  C   UNL     1       1.953   8.455  18.295  0.00  0.00    +0.000 C 
ATOM      5  O   UNL     1       2.183   8.871  17.167  0.00  0.00    +0.000 OA
ATOM      6  C   UNL     1       1.381   9.297  19.383  0.00  0.00    +0.000 C 
ATOM      7  C   UNL     1       1.032  10.567  19.163  0.00  0.00    +0.000 C 
ATOM      8  S   UNL     1       1.323   8.389  20.844  0.00  0.00    +0.000 S 
ATOM      9  H   UNL     1       2.394   5.941  21.710  0.00  0.00    +0.000 HD
ENDROOT
BRANCH   7  10
ATOM     10  C   UNL     1       0.489  11.461  20.173  0.00  0.00    +0.000 A 
ATOM     11  C   UNL     1      -0.777  11.256  20.709  0.00  0.00    +0.000 A 
ATOM     12  C   UNL     1      -1.236  12.147  21.673  0.00  0.00    +0.000 A 
ATOM     13  C   UNL     1      -0.421  13.205  22.063  0.00  0.00    +0.000 A 
ATOM     14  C   UNL     1       0.823  13.330  21.468  0.00  0.00    +0.000 A 
ATOM     15  N   UNL     1       1.295  12.482  20.530  0.00  0.00    +0.000 NA
ENDBRANCH   7  10
BRANCH   1  16
ATOM     16  S   UNL     1       2.394   4.382  20.041  0.00  0.00    +0.000 S 
ATOM     17  O   UNL     1       1.214   4.132  19.256  0.00  0.00    +0.000 OA
ATOM     18  O   UNL     1       2.776   3.507  21.130  0.00  0.00    +0.000 OA
BRANCH  16  23
ATOM     19  C   UNL     1       7.227   4.712  16.404  0.00  0.00    +0.000 C 
ATOM     20  C   UNL     1       6.025   4.643  17.300  0.00  0.00    +0.000 A 
ATOM     21  C   UNL     1       4.797   4.175  16.812  0.00  0.00    +0.000 A 
ATOM     22  C   UNL     1       3.680   4.126  17.643  0.00  0.00    +0.000 A 
ATOM     23  C   UNL     1       3.796   4.539  18.972  0.00  0.00    +0.000 A 
ATOM     24  C   UNL     1       5.013   5.004  19.478  0.00  0.00    +0.000 A 
ATOM     25  C   UNL     1       6.126   5.055  18.637  0.00  0.00    +0.000 A 
ENDBRANCH  16  23
ENDBRANCH   1  16
TORSDOF 3
ENDMDL
MODEL 2
REMARK VINA RESULT:      -7.3      0.147      1.002
REMARK  Name = 
REMARK  4 active torsions:
REMARK  status: ('A' for Active; 'I' for Inactive)
REMARK    1  A    between atoms: C_1  and  C_2
REMARK    2  A    between atoms: C_5  and  S_6
REMARK    3  A    between atoms: S_6  and  N_9
REMARK    4  A    between atoms: C_15  and  C_16
REMARK                            x       y       z     vdW  Elec       q    Type
REMARK                         _______ _______ _______ _____ _____    ______ ____
ROOT
ATOM      1  N   UNL     1       2.276   5.800  20.649  0.00  0.00    +0.000 N 
ATOM      2  C   UNL     1       2.013   6.952  19.935  0.00  0.00    +0.000 C 
ATOM      3  N   UNL     1       2.241   7.098  18.679  0.00  0.00    +0.000 NA
ATOM      4  C   UNL     1       1.993   8.384  18.266  0.00  0.00    +0.000 C 
ATOM      5  O   UNL     1       2.220   8.812  17.142  0.00  0.00    +0.000 OA
ATOM      6  C   UNL     1       1.427   9.215  19.365  0.00  0.00    +0.000 C 
ATOM      7  C   UNL     1       1.082  10.489  19.161  0.00  0.00    +0.000 C 
ATOM      8  S   UNL     1       1.371   8.290  20.816  0.00  0.00    +0.000 S 
ATOM      9  H   UNL     1       2.437   5.829  21.650  0.00  0.00    +0.000 HD
ENDROOT
BRANCH   7  10
ATOM     10  C   UNL     1       0.545  11.373  20.183  0.00  0.00    +0.000 A 
ATOM     11  C   UNL     1      -0.678  11.112  20.790  0.00  0.00    +0.000 A 
ATOM     12  C   UNL     1      -1.133  11.997  21.762  0.00  0.00    +0.000 A 
ATOM     13  C   UNL     1      -0.356  13.103  22.089  0.00  0.00    +0.000 A 
ATOM     14  C   UNL     1       0.847  13.282  21.428  0.00  0.00    +0.000 A 
ATOM     15  N   UNL     1       1.313  12.441  20.479  0.00  0.00    +0.000 NA
ENDBRANCH   7  10
BRANCH   1  16
ATOM     16  S   UNL     1       2.426   4.290  19.962  0.00  0.00    +0.000 S 
ATOM     17  O   UNL     1       1.244   4.055  19.176  0.00  0.00    +0.000 OA
ATOM     18  O   UNL     1       2.805   3.400  21.041  0.00  0.00    +0.000 OA
BRANCH  16  23
ATOM     19  C   UNL     1       7.181   5.053  16.289  0.00  0.00    +0.000 C 
ATOM     20  C   UNL     1       6.009   4.851  17.204  0.00  0.00    +0.000 A 
ATOM     21  C   UNL     1       6.099   5.181  18.562  0.00  0.00    +0.000 A 
ATOM     22  C   UNL     1       5.013   4.980  19.411  0.00  0.00    +0.000 A 
ATOM     23  C   UNL     1       3.827   4.453  18.894  0.00  0.00    +0.000 A 
ATOM     24  C   UNL     1       3.717   4.123  17.540  0.00  0.00    +0.000 A 
ATOM     25  C   UNL     1       4.812   4.323  16.698  0.00  0.00    +0.000 A 
ENDBRANCH  16  23
ENDBRANCH   1  16
TORSDOF 3
ENDMDL
MODEL 3
REMARK VINA RESULT:      -7.2      0.720      1.031
REMARK  Name = 
REMARK  4 active torsions:
REMARK  status: ('A' for Active; 'I' for Inactive)
REMARK    1  A    between atoms: C_1  and  C_2
REMARK    2  A    between atoms: C_5  and  S_6
REMARK    3  A    between atoms: S_6  and  N_9
REMARK    4  A    between atoms: C_15  and  C_16
REMARK                            x       y       z     vdW  Elec       q    Type
REMARK                         _______ _______ _______ _____ _____    ______ ____
ROOT
ATOM      1  N   UNL     1       2.431   5.621  20.741  0.00  0.00    +0.000 N 
ATOM      2  C   UNL     1       2.104   6.764  20.039  0.00  0.00    +0.000 C 
ATOM      3  N   UNL     1       2.296   6.924  18.779  0.00  0.00    +0.000 NA
ATOM      4  C   UNL     1       1.985   8.200  18.377  0.00  0.00    +0.000 C 
ATOM      5  O   UNL     1       2.168   8.642  17.251  0.00  0.00    +0.000 OA
ATOM      6  C   UNL     1       1.410   9.002  19.493  0.00  0.00    +0.000 C 
ATOM      7  C   UNL     1       1.007  10.261  19.303  0.00  0.00    +0.000 C 
ATOM      8  S   UNL     1       1.426   8.070  20.941  0.00  0.00    +0.000 S 
ATOM      9  H   UNL     1       2.614   5.653  21.738  0.00  0.00    +0.000 HD
ENDROOT
BRANCH   7  10
ATOM     10  C   UNL     1       0.457  11.117  20.342  0.00  0.00    +0.000 A 
ATOM     11  C   UNL     1       0.937  12.406  20.541  0.00  0.00    +0.000 A 
ATOM     12  C   UNL     1       0.365  13.173  21.551  0.00  0.00    +0.000 A 
ATOM     13  C   UNL     1      -0.658  12.628  22.321  0.00  0.00    +0.000 A 
ATOM     14  C   UNL     1      -1.066  11.333  22.050  0.00  0.00    +0.000 A 
ATOM     15  N   UNL     1      -0.529  10.565  21.078  0.00  0.00    +0.000 NA
ENDBRANCH   7  10
BRANCH   1  16
ATOM     16  S   UNL     1       2.629   4.121  20.044  0.00  0.00    +0.000 S 
ATOM     17  O   UNL     1       1.417   3.814  19.331  0.00  0.00    +0.000 OA
ATOM     18  O   UNL     1       3.126   3.258  21.096  0.00  0.00    +0.000 OA
BRANCH  16  23
ATOM     19  C   UNL     1       7.175   4.749  16.090  0.00  0.00    +0.000 C 
ATOM     20  C   UNL     1       6.044   4.607  17.066  0.00  0.00    +0.000 A 
ATOM     21  C   UNL     1       4.756   4.277  16.624  0.00  0.00    +0.000 A 
ATOM     22  C   UNL     1       3.706   4.160  17.533  0.00  0.00    +0.000 A 
ATOM     23  C   UNL     1       3.950   4.366  18.892  0.00  0.00    +0.000 A 
ATOM     24  C   UNL     1       5.229   4.690  19.353  0.00  0.00    +0.000 A 
ATOM     25  C   UNL     1       6.274   4.811  18.435  0.00  0.00    +0.000 A 
ENDBRANCH  16  23
ENDBRANCH   1  16
TORSDOF 3
ENDMDL
MODEL 4
REMARK VINA RESULT:      -7.1      2.106      2.581
REMARK  Name = 
REMARK  4 active torsions:
REMARK  status: ('A' for Active; 'I' for Inactive)
REMARK    1  A    between atoms: C_1  and  C_2
REMARK    2  A    between atoms: C_5  and  S_6
REMARK    3  A    between atoms: S_6  and  N_9
REMARK    4  A    between atoms: C_15  and  C_16
REMARK                            x       y       z     vdW  Elec       q    Type
REMARK                         _______ _______ _______ _____ _____    ______ ____
ROOT
ATOM      1  N   UNL     1       2.735   6.807  18.168  0.00  0.00    +0.000 N 
ATOM      2  C   UNL     1       2.148   7.641  19.100  0.00  0.00    +0.000 C 
ATOM      3  N   UNL     1       1.772   7.272  20.272  0.00  0.00    +0.000 NA
ATOM      4  C   UNL     1       1.116   8.280  20.934  0.00  0.00    +0.000 C 
ATOM      5  O   UNL     1       0.574   8.162  22.024  0.00  0.00    +0.000 OA
ATOM      6  C   UNL     1       1.122   9.547  20.149  0.00  0.00    +0.000 C 
ATOM      7  C   UNL     1       0.567  10.662  20.632  0.00  0.00    +0.000 C 
ATOM      8  S   UNL     1       1.875   9.277  18.625  0.00  0.00    +0.000 S 
ATOM      9  H   UNL     1       2.678   7.009  17.176  0.00  0.00    +0.000 HD
ENDROOT
BRANCH   7  10
ATOM     10  C   UNL     1       0.511  11.930  19.924  0.00  0.00    +0.000 A 
ATOM     11  C   UNL     1      -0.504  12.203  19.015  0.00  0.00    +0.000 A 
ATOM     12  C   UNL     1      -0.499  13.437  18.373  0.00  0.00    +0.000 A 
ATOM     13  C   UNL     1       0.514  14.346  18.658  0.00  0.00    +0.000 A 
ATOM     14  C   UNL     1       1.485  13.983  19.575  0.00  0.00    +0.000 A 
ATOM     15  N   UNL     1       1.507  12.793  20.212  0.00  0.00    +0.000 NA
ENDBRANCH   7  10
BRANCH   1  16
ATOM     16  S   UNL     1       3.513   5.384  18.547  0.00  0.00    +0.000 S 
ATOM     17  O   UNL     1       2.507   4.363  18.672  0.00  0.00    +0.000 OA
ATOM     18  O   UNL     1       4.408   5.701  19.641  0.00  0.00    +0.000 OA
BRANCH  16  23
ATOM     19  C   UNL     1       6.763   4.297  13.552  0.00  0.00    +0.000 C 
ATOM     20  C   UNL     1       5.971   4.570  14.797  0.00  0.00    +0.000 A 
ATOM     21  C   UNL     1       5.614   5.880  15.143  0.00  0.00    +0.000 A 
ATOM     22  C   UNL     1       4.889   6.130  16.306  0.00  0.00    +0.000 A 
ATOM     23  C   UNL     1       4.513   5.062  17.123  0.00  0.00    +0.000 A 
ATOM     24  C   UNL     1       4.855   3.747  16.791  0.00  0.00    +0.000 A 
ATOM     25  C   UNL     1       5.585   3.506  15.626  0.00  0.00    +0.000 A 
ENDBRANCH  16  23
ENDBRANCH   1  16
TORSDOF 3
ENDMDL
MODEL 5
REMARK VINA RESULT:      -7.1      2.115      2.526
REMARK  Name = 
REMARK  4 active torsions:
REMARK  status: ('A' for Active; 'I' for Inactive)
REMARK    1  A    between atoms: C_1  and  C_2
REMARK    2  A    between atoms: C_5  and  S_6
REMARK    3  A    between atoms: S_6  and  N_9
REMARK    4  A    between atoms: C_15  and  C_16
REMARK                            x       y       z     vdW  Elec       q    Type
REMARK                         _______ _______ _______ _____ _____    ______ ____
ROOT
ATOM      1  N   UNL     1       2.549   6.905  18.182  0.00  0.00    +0.000 N 
ATOM      2  C   UNL     1       2.043   7.764  19.136  0.00  0.00    +0.000 C 
ATOM      3  N   UNL     1       1.737   7.421  20.336  0.00  0.00    +0.000 NA
ATOM      4  C   UNL     1       1.148   8.454  21.023  0.00  0.00    +0.000 C 
ATOM      5  O   UNL     1       0.675   8.364  22.149  0.00  0.00    +0.000 OA
ATOM      6  C   UNL     1       1.132   9.709  20.221  0.00  0.00    +0.000 C 
ATOM      7  C   UNL     1       0.634  10.843  20.721  0.00  0.00    +0.000 C 
ATOM      8  S   UNL     1       1.777   9.400  18.655  0.00  0.00    +0.000 S 
ATOM      9  H   UNL     1       2.433   7.094  17.192  0.00  0.00    +0.000 HD
ENDROOT
BRANCH   7  10
ATOM     10  C   UNL     1       0.561  12.102  19.998  0.00  0.00    +0.000 A 
ATOM     11  C   UNL     1      -0.453  12.347  19.080  0.00  0.00    +0.000 A 
ATOM     12  C   UNL     1      -0.465  13.574  18.424  0.00  0.00    +0.000 A 
ATOM     13  C   UNL     1       0.530  14.504  18.706  0.00  0.00    +0.000 A 
ATOM     14  C   UNL     1       1.501  14.168  19.634  0.00  0.00    +0.000 A 
ATOM     15  N   UNL     1       1.540  12.986  20.284  0.00  0.00    +0.000 NA
ENDBRANCH   7  10
BRANCH   1  16
ATOM     16  S   UNL     1       3.318   5.469  18.531  0.00  0.00    +0.000 S 
ATOM     17  O   UNL     1       2.305   4.451  18.631  0.00  0.00    +0.000 OA
ATOM     18  O   UNL     1       4.211   5.756  19.635  0.00  0.00    +0.000 OA
BRANCH  16  23
ATOM     19  C   UNL     1       6.915   4.432  13.769  0.00  0.00    +0.000 C 
ATOM     20  C   UNL     1       6.011   4.685  14.940  0.00  0.00    +0.000 A 
ATOM     21  C   UNL     1       5.543   3.622  15.724  0.00  0.00    +0.000 A 
ATOM     22  C   UNL     1       4.694   3.861  16.802  0.00  0.00    +0.000 A 
ATOM     23  C   UNL     1       4.320   5.172  17.103  0.00  0.00    +0.000 A 
ATOM     24  C   UNL     1       4.782   6.246  16.337  0.00  0.00    +0.000 A 
ATOM     25  C   UNL     1       5.628   5.998  15.255  0.00  0.00    +0.000 A 
ENDBRANCH  16  23
ENDBRANCH   1  16
TORSDOF 3
ENDMDL
MODEL 6
REMARK VINA RESULT:      -7.1      2.451      3.237
REMARK  Name = 
REMARK  4 active torsions:
REMARK  status: ('A' for Active; 'I' for Inactive)
REMARK    1  A    between atoms: C_1  and  C_2
REMARK    2  A    between atoms: C_5  and  S_6
REMARK    3  A    between atoms: S_6  and  N_9
REMARK    4  A    between atoms: C_15  and  C_16
REMARK                            x       y       z     vdW  Elec       q    Type
REMARK                         _______ _______ _______ _____ _____    ______ ____
ROOT
ATOM      1  N   UNL     1       3.732   6.496  17.488  0.00  0.00    +0.000 N 
ATOM      2  C   UNL     1       2.950   7.123  18.437  0.00  0.00    +0.000 C 
ATOM      3  N   UNL     1       2.708   6.650  19.607  0.00  0.00    +0.000 NA
ATOM      4  C   UNL     1       1.807   7.429  20.291  0.00  0.00    +0.000 C 
ATOM      5  O   UNL     1       1.334   7.152  21.385  0.00  0.00    +0.000 OA
ATOM      6  C   UNL     1       1.451   8.657  19.526  0.00  0.00    +0.000 C 
ATOM      7  C   UNL     1       0.615   9.568  20.031  0.00  0.00    +0.000 C 
ATOM      8  S   UNL     1       2.228   8.625  17.990  0.00  0.00    +0.000 S 
ATOM      9  H   UNL     1       3.609   6.686  16.499  0.00  0.00    +0.000 HD
ENDROOT
BRANCH   7  10
ATOM     10  C   UNL     1       0.200  10.780  19.343  0.00  0.00    +0.000 A 
ATOM     11  C   UNL     1      -1.035  10.862  18.712  0.00  0.00    +0.000 A 
ATOM     12  C   UNL     1      -1.370  12.051  18.073  0.00  0.00    +0.000 A 
ATOM     13  C   UNL     1      -0.466  13.107  18.086  0.00  0.00    +0.000 A 
ATOM     14  C   UNL     1       0.743  12.930  18.737  0.00  0.00    +0.000 A 
ATOM     15  N   UNL     1       1.097  11.787  19.364  0.00  0.00    +0.000 NA
ENDBRANCH   7  10
BRANCH   1  16
ATOM     16  S   UNL     1       4.880   5.340  17.837  0.00  0.00    +0.000 S 
ATOM     17  O   UNL     1       4.191   4.199  18.380  0.00  0.00    +0.000 OA
ATOM     18  O   UNL     1       5.915   6.023  18.585  0.00  0.00    +0.000 OA
BRANCH  16  23
ATOM     19  C   UNL     1       7.154   4.128  12.355  0.00  0.00    +0.000 C 
ATOM     20  C   UNL     1       6.598   4.416  13.719  0.00  0.00    +0.000 A 
ATOM     21  C   UNL     1       7.374   5.074  14.682  0.00  0.00    +0.000 A 
ATOM     22  C   UNL     1       6.858   5.328  15.951  0.00  0.00    +0.000 A 
ATOM     23  C   UNL     1       5.555   4.928  16.254  0.00  0.00    +0.000 A 
ATOM     24  C   UNL     1       4.763   4.276  15.304  0.00  0.00    +0.000 A 
ATOM     25  C   UNL     1       5.290   4.021  14.037  0.00  0.00    +0.000 A 
ENDBRANCH  16  23
ENDBRANCH   1  16
TORSDOF 3
ENDMDL
MODEL 7
REMARK VINA RESULT:      -7.1      2.474      8.489
REMARK  Name = 
REMARK  4 active torsions:
REMARK  status: ('A' for Active; 'I' for Inactive)
REMARK    1  A    between atoms: C_1  and  C_2
REMARK    2  A    between atoms: C_5  and  S_6
REMARK    3  A    between atoms: S_6  and  N_9
REMARK    4  A    between atoms: C_15  and  C_16
REMARK                            x       y       z     vdW  Elec       q    Type
REMARK                         _______ _______ _______ _____ _____    ______ ____
ROOT
ATOM      1  N   UNL     1       1.882   9.534  18.422  0.00  0.00    +0.000 N 
ATOM      2  C   UNL     1       2.234   8.232  18.716  0.00  0.00    +0.000 C 
ATOM      3  N   UNL     1       1.729   7.540  19.673  0.00  0.00    +0.000 NA
ATOM      4  C   UNL     1       2.353   6.323  19.802  0.00  0.00    +0.000 C 
ATOM      5  O   UNL     1       2.130   5.515  20.693  0.00  0.00    +0.000 OA
ATOM      6  C   UNL     1       3.360   6.106  18.726  0.00  0.00    +0.000 C 
ATOM      7  C   UNL     1       4.054   4.967  18.648  0.00  0.00    +0.000 C 
ATOM      8  S   UNL     1       3.464   7.514  17.742  0.00  0.00    +0.000 S 
ATOM      9  H   UNL     1       2.522  10.153  17.937  0.00  0.00    +0.000 HD
ENDROOT
BRANCH   7  10
ATOM     10  C   UNL     1       5.068   4.685  17.645  0.00  0.00    +0.000 A 
ATOM     11  C   UNL     1       4.723   4.214  16.385  0.00  0.00    +0.000 A 
ATOM     12  C   UNL     1       5.743   3.967  15.472  0.00  0.00    +0.000 A 
ATOM     13  C   UNL     1       7.062   4.195  15.849  0.00  0.00    +0.000 A 
ATOM     14  C   UNL     1       7.308   4.661  17.130  0.00  0.00    +0.000 A 
ATOM     15  N   UNL     1       6.340   4.909  18.037  0.00  0.00    +0.000 NA
ENDBRANCH   7  10
BRANCH   1  16
ATOM     16  S   UNL     1       0.444  10.239  18.880  0.00  0.00    +0.000 S 
ATOM     17  O   UNL     1       0.213   9.890  20.257  0.00  0.00    +0.000 OA
ATOM     18  O   UNL     1      -0.510   9.901  17.845  0.00  0.00    +0.000 OA
BRANCH  16  23
ATOM     19  C   UNL     1       1.637  16.173  18.643  0.00  0.00    +0.000 C 
ATOM     20  C   UNL     1       1.340  14.703  18.687  0.00  0.00    +0.000 A 
ATOM     21  C   UNL     1       2.356  13.763  18.467  0.00  0.00    +0.000 A 
ATOM     22  C   UNL     1       2.074  12.399  18.495  0.00  0.00    +0.000 A 
ATOM     23  C   UNL     1       0.770  11.974  18.754  0.00  0.00    +0.000 A 
ATOM     24  C   UNL     1      -0.256  12.897  18.981  0.00  0.00    +0.000 A 
ATOM     25  C   UNL     1       0.035  14.261  18.946  0.00  0.00    +0.000 A 
ENDBRANCH  16  23
ENDBRANCH   1  16
TORSDOF 3
ENDMDL
MODEL 8
REMARK VINA RESULT:      -7.0      2.507      3.171
REMARK  Name = 
REMARK  4 active torsions:
REMARK  status: ('A' for Active; 'I' for Inactive)
REMARK    1  A    between atoms: C_1  and  C_2
REMARK    2  A    between atoms: C_5  and  S_6
REMARK    3  A    between atoms: S_6  and  N_9
REMARK    4  A    between atoms: C_15  and  C_16
REMARK                            x       y       z     vdW  Elec       q    Type
REMARK                         _______ _______ _______ _____ _____    ______ ____
ROOT
ATOM      1  N   UNL     1       3.733   6.583  17.339  0.00  0.00    +0.000 N 
ATOM      2  C   UNL     1       2.964   7.192  18.311  0.00  0.00    +0.000 C 
ATOM      3  N   UNL     1       2.726   6.690  19.469  0.00  0.00    +0.000 NA
ATOM      4  C   UNL     1       1.837   7.459  20.180  0.00  0.00    +0.000 C 
ATOM      5  O   UNL     1       1.369   7.158  21.270  0.00  0.00    +0.000 OA
ATOM      6  C   UNL     1       1.488   8.710  19.451  0.00  0.00    +0.000 C 
ATOM      7  C   UNL     1       0.664   9.616  19.986  0.00  0.00    +0.000 C 
ATOM      8  S   UNL     1       2.253   8.712  17.909  0.00  0.00    +0.000 S 
ATOM      9  H   UNL     1       3.605   6.801  16.357  0.00  0.00    +0.000 HD
ENDROOT
BRANCH   7  10
ATOM     10  C   UNL     1       0.256  10.849  19.334  0.00  0.00    +0.000 A 
ATOM     11  C   UNL     1      -0.953  10.939  18.656  0.00  0.00    +0.000 A 
ATOM     12  C   UNL     1      -1.283  12.149  18.054  0.00  0.00    +0.000 A 
ATOM     13  C   UNL     1      -0.399  13.218  18.150  0.00  0.00    +0.000 A 
ATOM     14  C   UNL     1       0.785  13.032  18.843  0.00  0.00    +0.000 A 
ATOM     15  N   UNL     1       1.133  11.869  19.435  0.00  0.00    +0.000 NA
ENDBRANCH   7  10
BRANCH   1  16
ATOM     16  S   UNL     1       4.872   5.408  17.649  0.00  0.00    +0.000 S 
ATOM     17  O   UNL     1       4.178   4.266  18.184  0.00  0.00    +0.000 OA
ATOM     18  O   UNL     1       5.929   6.065  18.390  0.00  0.00    +0.000 OA
BRANCH  16  23
ATOM     19  C   UNL     1       7.102   3.864  12.233  0.00  0.00    +0.000 C 
ATOM     20  C   UNL     1       6.543   4.258  13.568  0.00  0.00    +0.000 A 
ATOM     21  C   UNL     1       5.218   3.954  13.905  0.00  0.00    +0.000 A 
ATOM     22  C   UNL     1       4.699   4.334  15.141  0.00  0.00    +0.000 A 
ATOM     23  C   UNL     1       5.515   5.014  16.048  0.00  0.00    +0.000 A 
ATOM     24  C   UNL     1       6.841   5.321  15.731  0.00  0.00    +0.000 A 
ATOM     25  C   UNL     1       7.352   4.941  14.489  0.00  0.00    +0.000 A 
ENDBRANCH  16  23
ENDBRANCH   1  16
TORSDOF 3
ENDMDL
MODEL 9
REMARK VINA RESULT:      -6.9      2.421      8.510
REMARK  Name = 
REMARK  4 active torsions:
REMARK  status: ('A' for Active; 'I' for Inactive)
REMARK    1  A    between atoms: C_1  and  C_2
REMARK    2  A    between atoms: C_5  and  S_6
REMARK    3  A    between atoms: S_6  and  N_9
REMARK    4  A    between atoms: C_15  and  C_16
REMARK                            x       y       z     vdW  Elec       q    Type
REMARK                         _______ _______ _______ _____ _____    ______ ____
ROOT
ATOM      1  N   UNL     1       1.817   9.511  18.430  0.00  0.00    +0.000 N 
ATOM      2  C   UNL     1       2.186   8.215  18.729  0.00  0.00    +0.000 C 
ATOM      3  N   UNL     1       1.672   7.513  19.675  0.00  0.00    +0.000 NA
ATOM      4  C   UNL     1       2.314   6.307  19.815  0.00  0.00    +0.000 C 
ATOM      5  O   UNL     1       2.086   5.493  20.701  0.00  0.00    +0.000 OA
ATOM      6  C   UNL     1       3.349   6.110  18.762  0.00  0.00    +0.000 C 
ATOM      7  C   UNL     1       4.064   4.983  18.697  0.00  0.00    +0.000 C 
ATOM      8  S   UNL     1       3.450   7.521  17.781  0.00  0.00    +0.000 S 
ATOM      9  H   UNL     1       2.457  10.142  17.959  0.00  0.00    +0.000 HD
ENDROOT
BRANCH   7  10
ATOM     10  C   UNL     1       5.105   4.721  17.717  0.00  0.00    +0.000 A 
ATOM     11  C   UNL     1       6.448   4.883  18.033  0.00  0.00    +0.000 A 
ATOM     12  C   UNL     1       7.393   4.613  17.048  0.00  0.00    +0.000 A 
ATOM     13  C   UNL     1       6.966   4.196  15.793  0.00  0.00    +0.000 A 
ATOM     14  C   UNL     1       5.605   4.067  15.571  0.00  0.00    +0.000 A 
ATOM     15  N   UNL     1       4.665   4.323  16.505  0.00  0.00    +0.000 NA
ENDBRANCH   7  10
BRANCH   1  16
ATOM     16  S   UNL     1       0.358  10.190  18.857  0.00  0.00    +0.000 S 
ATOM     17  O   UNL     1       0.058   9.760  20.197  0.00  0.00    +0.000 OA
ATOM     18  O   UNL     1      -0.544   9.917  17.757  0.00  0.00    +0.000 OA
BRANCH  16  23
ATOM     19  C   UNL     1       1.403  16.153  18.643  0.00  0.00    +0.000 C 
ATOM     20  C   UNL     1       1.146  14.676  18.711  0.00  0.00    +0.000 A 
ATOM     21  C   UNL     1      -0.136  14.188  19.000  0.00  0.00    +0.000 A 
ATOM     22  C   UNL     1      -0.368  12.817  19.075  0.00  0.00    +0.000 A 
ATOM     23  C   UNL     1       0.687  11.929  18.851  0.00  0.00    +0.000 A 
ATOM     24  C   UNL     1       1.971  12.398  18.556  0.00  0.00    +0.000 A 
ATOM     25  C   UNL     1       2.195  13.773  18.487  0.00  0.00    +0.000 A 
ENDBRANCH  16  23
ENDBRANCH   1  16
TORSDOF 3
ENDMDL
