MODEL 1
REMARK VINA RESULT:      -7.4      0.000      0.000
REMARK  Name = 
REMARK  6 active torsions:
REMARK  status: ('A' for Active; 'I' for Inactive)
REMARK    1  A    between atoms: C_5  and  C_6
REMARK    2  A    between atoms: C_6  and  C_7
REMARK    3  A    between atoms: C_7  and  C_8
REMARK    4  A    between atoms: C_8  and  C_9
REMARK    5  A    between atoms: C_9  and  N_10
REMARK    6  A    between atoms: N_13  and  C_14
REMARK                            x       y       z     vdW  Elec       q    Type
REMARK                         _______ _______ _______ _____ _____    ______ ____
ROOT
ATOM      1  N   UNL     1       3.267   2.023  19.912  0.00  0.00    +0.000 NA
ATOM      2  C   UNL     1       2.854   2.072  18.488  0.00  0.00    +0.000 C 
ATOM      3  C   UNL     1       3.160   3.408  17.774  0.00  0.00    +0.000 C 
ATOM      4  N   UNL     1       4.594   3.712  17.895  0.00  0.00    +0.000 N 
ATOM      5  C   UNL     1       5.151   3.638  19.255  0.00  0.00    +0.000 C 
ATOM      6  C   UNL     1       4.723   2.326  19.961  0.00  0.00    +0.000 C 
ENDROOT
BRANCH   4   7
ATOM      7  C   UNL     1       5.345   4.058  16.791  0.00  0.00    +0.000 A 
ATOM      8  C   UNL     1       6.663   4.524  16.916  0.00  0.00    +0.000 A 
ATOM      9  C   UNL     1       7.418   4.918  15.804  0.00  0.00    +0.000 A 
ATOM     10  C   UNL     1       6.859   4.846  14.535  0.00  0.00    +0.000 A 
ATOM     11 CL   UNL     1       7.775   5.337  13.165  0.00  0.00    +0.000 Cl
ATOM     12  C   UNL     1       5.563   4.381  14.374  0.00  0.00    +0.000 A 
ATOM     13  C   UNL     1       4.818   3.993  15.492  0.00  0.00    +0.000 A 
ENDBRANCH   4   7
BRANCH   1  14
ATOM     14  C   UNL     1       2.519   2.969  20.754  0.00  0.00    +0.000 C 
BRANCH  14  15
ATOM     15  C   UNL     1       1.087   3.210  20.265  0.00  0.00    +0.000 C 
BRANCH  15  16
ATOM     16  C   UNL     1       0.755   4.700  20.306  0.00  0.00    +0.000 C 
BRANCH  16  17
ATOM     17  C   UNL     1       1.994   5.531  20.633  0.00  0.00    +0.000 C 
BRANCH  17  22
ATOM     18  F   UNL     1       2.117  10.259  17.574  0.00  0.00    +0.000 F 
ATOM     19  C   UNL     1       2.085   9.134  18.299  0.00  0.00    +0.000 A 
ATOM     20  C   UNL     1       1.478   9.142  19.549  0.00  0.00    +0.000 A 
ATOM     21  C   UNL     1       1.449   7.971  20.306  0.00  0.00    +0.000 A 
ATOM     22  C   UNL     1       2.035   6.795  19.814  0.00  0.00    +0.000 A 
ATOM     23  C   UNL     1       2.630   6.803  18.544  0.00  0.00    +0.000 A 
ATOM     24  C   UNL     1       2.657   7.974  17.788  0.00  0.00    +0.000 A 
ENDBRANCH  17  22
ENDBRANCH  16  17
ENDBRANCH  15  16
ENDBRANCH  14  15
ENDBRANCH   1  14
TORSDOF 6
ENDMDL
MODEL 2
REMARK VINA RESULT:      -7.3      5.955      7.890
REMARK  Name = 
REMARK  6 active torsions:
REMARK  status: ('A' for Active; 'I' for Inactive)
REMARK    1  A    between atoms: C_5  and  C_6
REMARK    2  A    between atoms: C_6  and  C_7
REMARK    3  A    between atoms: C_7  and  C_8
REMARK    4  A    between atoms: C_8  and  C_9
REMARK    5  A    between atoms: C_9  and  N_10
REMARK    6  A    between atoms: N_13  and  C_14
REMARK                            x       y       z     vdW  Elec       q    Type
REMARK                         _______ _______ _______ _____ _____    ______ ____
ROOT
ATOM      1  N   UNL     1       6.914   6.318  16.635  0.00  0.00    +0.000 NA
ATOM      2  C   UNL     1       7.221   5.502  17.835  0.00  0.00    +0.000 C 
ATOM      3  C   UNL     1       6.321   5.791  19.057  0.00  0.00    +0.000 C 
ATOM      4  N   UNL     1       4.910   5.621  18.680  0.00  0.00    +0.000 N 
ATOM      5  C   UNL     1       4.484   6.331  17.463  0.00  0.00    +0.000 C 
ATOM      6  C   UNL     1       5.482   6.091  16.301  0.00  0.00    +0.000 C 
ENDROOT
BRANCH   4   7
ATOM      7  C   UNL     1       4.055   4.852  19.442  0.00  0.00    +0.000 A 
ATOM      8  C   UNL     1       4.187   3.457  19.513  0.00  0.00    +0.000 A 
ATOM      9  C   UNL     1       3.297   2.665  20.249  0.00  0.00    +0.000 A 
ATOM     10  C   UNL     1       2.253   3.267  20.938  0.00  0.00    +0.000 A 
ATOM     11 CL   UNL     1       1.149   2.302  21.837  0.00  0.00    +0.000 Cl
ATOM     12  C   UNL     1       2.099   4.644  20.898  0.00  0.00    +0.000 A 
ATOM     13  C   UNL     1       2.991   5.424  20.157  0.00  0.00    +0.000 A 
ENDBRANCH   4   7
BRANCH   1  14
ATOM     14  C   UNL     1       7.170   7.752  16.840  0.00  0.00    +0.000 C 
BRANCH  14  15
ATOM     15  C   UNL     1       8.198   8.028  17.944  0.00  0.00    +0.000 C 
BRANCH  15  16
ATOM     16  C   UNL     1       8.423   9.531  18.094  0.00  0.00    +0.000 C 
BRANCH  16  17
ATOM     17  C   UNL     1       9.237   9.844  19.348  0.00  0.00    +0.000 C 
BRANCH  17  22
ATOM     18  F   UNL     1      12.332  14.500  18.662  0.00  0.00    +0.000 F 
ATOM     19  C   UNL     1      11.600  13.392  18.827  0.00  0.00    +0.000 A 
ATOM     20  C   UNL     1      11.411  12.530  17.753  0.00  0.00    +0.000 A 
ATOM     21  C   UNL     1      10.644  11.378  17.924  0.00  0.00    +0.000 A 
ATOM     22  C   UNL     1      10.059  11.094  19.167  0.00  0.00    +0.000 A 
ATOM     23  C   UNL     1      10.273  11.968  20.243  0.00  0.00    +0.000 A 
ATOM     24  C   UNL     1      11.041  13.119  20.070  0.00  0.00    +0.000 A 
ENDBRANCH  17  22
ENDBRANCH  16  17
ENDBRANCH  15  16
ENDBRANCH  14  15
ENDBRANCH   1  14
TORSDOF 6
ENDMDL
MODEL 3
REMARK VINA RESULT:      -7.3      5.953      7.533
REMARK  Name = 
REMARK  6 active torsions:
REMARK  status: ('A' for Active; 'I' for Inactive)
REMARK    1  A    between atoms: C_5  and  C_6
REMARK    2  A    between atoms: C_6  and  C_7
REMARK    3  A    between atoms: C_7  and  C_8
REMARK    4  A    between atoms: C_8  and  C_9
REMARK    5  A    between atoms: C_9  and  N_10
REMARK    6  A    between atoms: N_13  and  C_14
REMARK                            x       y       z     vdW  Elec       q    Type
REMARK                         _______ _______ _______ _____ _____    ______ ____
ROOT
ATOM      1  N   UNL     1       7.353   6.546  16.881  0.00  0.00    +0.000 NA
ATOM      2  C   UNL     1       7.285   5.098  17.195  0.00  0.00    +0.000 C 
ATOM      3  C   UNL     1       6.388   4.742  18.401  0.00  0.00    +0.000 C 
ATOM      4  N   UNL     1       5.035   5.274  18.181  0.00  0.00    +0.000 N 
ATOM      5  C   UNL     1       4.960   6.694  17.800  0.00  0.00    +0.000 C 
ATOM      6  C   UNL     1       5.959   7.016  16.658  0.00  0.00    +0.000 C 
ENDROOT
BRANCH   4   7
ATOM      7  C   UNL     1       3.920   4.478  18.343  0.00  0.00    +0.000 A 
ATOM      8  C   UNL     1       3.994   3.233  18.987  0.00  0.00    +0.000 A 
ATOM      9  C   UNL     1       2.875   2.400  19.119  0.00  0.00    +0.000 A 
ATOM     10  C   UNL     1       1.652   2.809  18.606  0.00  0.00    +0.000 A 
ATOM     11 CL   UNL     1       0.276   1.788  18.753  0.00  0.00    +0.000 Cl
ATOM     12  C   UNL     1       1.541   4.037  17.973  0.00  0.00    +0.000 A 
ATOM     13  C   UNL     1       2.664   4.859  17.845  0.00  0.00    +0.000 A 
ENDBRANCH   4   7
BRANCH   1  14
ATOM     14  C   UNL     1       7.993   7.330  17.948  0.00  0.00    +0.000 C 
BRANCH  14  15
ATOM     15  C   UNL     1       8.023   8.834  17.655  0.00  0.00    +0.000 C 
BRANCH  15  16
ATOM     16  C   UNL     1       8.800   9.572  18.744  0.00  0.00    +0.000 C 
BRANCH  16  17
ATOM     17  C   UNL     1       9.592  10.740  18.160  0.00  0.00    +0.000 C 
BRANCH  17  22
ATOM     18  F   UNL     1      10.429  14.743  22.034  0.00  0.00    +0.000 F 
ATOM     19  C   UNL     1      10.227  13.794  21.112  0.00  0.00    +0.000 A 
ATOM     20  C   UNL     1       9.847  12.519  21.515  0.00  0.00    +0.000 A 
ATOM     21  C   UNL     1       9.642  11.528  20.555  0.00  0.00    +0.000 A 
ATOM     22  C   UNL     1       9.823  11.813  19.193  0.00  0.00    +0.000 A 
ATOM     23  C   UNL     1      10.192  13.109  18.805  0.00  0.00    +0.000 A 
ATOM     24  C   UNL     1      10.396  14.098  19.766  0.00  0.00    +0.000 A 
ENDBRANCH  17  22
ENDBRANCH  16  17
ENDBRANCH  15  16
ENDBRANCH  14  15
ENDBRANCH   1  14
TORSDOF 6
ENDMDL
MODEL 4
REMARK VINA RESULT:      -7.2      6.108      7.755
REMARK  Name = 
REMARK  6 active torsions:
REMARK  status: ('A' for Active; 'I' for Inactive)
REMARK    1  A    between atoms: C_5  and  C_6
REMARK    2  A    between atoms: C_6  and  C_7
REMARK    3  A    between atoms: C_7  and  C_8
REMARK    4  A    between atoms: C_8  and  C_9
REMARK    5  A    between atoms: C_9  and  N_10
REMARK    6  A    between atoms: N_13  and  C_14
REMARK                            x       y       z     vdW  Elec       q    Type
REMARK                         _______ _______ _______ _____ _____    ______ ____
ROOT
ATOM      1  N   UNL     1       7.662   6.513  17.367  0.00  0.00    +0.000 NA
ATOM      2  C   UNL     1       7.511   5.259  18.144  0.00  0.00    +0.000 C 
ATOM      3  C   UNL     1       6.287   5.229  19.087  0.00  0.00    +0.000 C 
ATOM      4  N   UNL     1       5.065   5.493  18.314  0.00  0.00    +0.000 N 
ATOM      5  C   UNL     1       5.101   6.681  17.446  0.00  0.00    +0.000 C 
ATOM      6  C   UNL     1       6.401   6.714  16.602  0.00  0.00    +0.000 C 
ENDROOT
BRANCH   4   7
ATOM      7  C   UNL     1       3.960   4.675  18.424  0.00  0.00    +0.000 A 
ATOM      8  C   UNL     1       4.046   3.400  19.005  0.00  0.00    +0.000 A 
ATOM      9  C   UNL     1       2.939   2.544  19.082  0.00  0.00    +0.000 A 
ATOM     10  C   UNL     1       1.715   2.961  18.577  0.00  0.00    +0.000 A 
ATOM     11 CL   UNL     1       0.353   1.915  18.657  0.00  0.00    +0.000 Cl
ATOM     12  C   UNL     1       1.592   4.218  18.005  0.00  0.00    +0.000 A 
ATOM     13  C   UNL     1       2.705   5.062  17.931  0.00  0.00    +0.000 A 
ENDBRANCH   4   7
BRANCH   1  14
ATOM     14  C   UNL     1       7.935   7.682  18.218  0.00  0.00    +0.000 C 
BRANCH  14  15
ATOM     15  C   UNL     1       8.315   8.933  17.420  0.00  0.00    +0.000 C 
BRANCH  15  16
ATOM     16  C   UNL     1       8.249  10.171  18.311  0.00  0.00    +0.000 C 
BRANCH  16  17
ATOM     17  C   UNL     1       9.460  10.246  19.240  0.00  0.00    +0.000 C 
BRANCH  17  22
ATOM     18  F   UNL     1      12.333  15.027  18.455  0.00  0.00    +0.000 F 
ATOM     19  C   UNL     1      11.647  13.893  18.640  0.00  0.00    +0.000 A 
ATOM     20  C   UNL     1      11.380  13.459  19.933  0.00  0.00    +0.000 A 
ATOM     21  C   UNL     1      10.670  12.274  20.126  0.00  0.00    +0.000 A 
ATOM     22  C   UNL     1      10.234  11.522  19.025  0.00  0.00    +0.000 A 
ATOM     23  C   UNL     1      10.500  11.984  17.728  0.00  0.00    +0.000 A 
ATOM     24  C   UNL     1      11.210  13.169  17.537  0.00  0.00    +0.000 A 
ENDBRANCH  17  22
ENDBRANCH  16  17
ENDBRANCH  15  16
ENDBRANCH  14  15
ENDBRANCH   1  14
TORSDOF 6
ENDMDL
MODEL 5
REMARK VINA RESULT:      -7.2      5.698      7.692
REMARK  Name = 
REMARK  6 active torsions:
REMARK  status: ('A' for Active; 'I' for Inactive)
REMARK    1  A    between atoms: C_5  and  C_6
REMARK    2  A    between atoms: C_6  and  C_7
REMARK    3  A    between atoms: C_7  and  C_8
REMARK    4  A    between atoms: C_8  and  C_9
REMARK    5  A    between atoms: C_9  and  N_10
REMARK    6  A    between atoms: N_13  and  C_14
REMARK                            x       y       z     vdW  Elec       q    Type
REMARK                         _______ _______ _______ _____ _____    ______ ____
ROOT
ATOM      1  N   UNL     1       7.399   5.793  16.694  0.00  0.00    +0.000 NA
ATOM      2  C   UNL     1       7.530   5.257  18.070  0.00  0.00    +0.000 C 
ATOM      3  C   UNL     1       6.395   5.669  19.034  0.00  0.00    +0.000 C 
ATOM      4  N   UNL     1       5.099   5.277  18.463  0.00  0.00    +0.000 N 
ATOM      5  C   UNL     1       4.861   5.695  17.071  0.00  0.00    +0.000 C 
ATOM      6  C   UNL     1       6.077   5.352  16.172  0.00  0.00    +0.000 C 
ENDROOT
BRANCH   4   7
ATOM      7  C   UNL     1       4.173   4.577  19.207  0.00  0.00    +0.000 A 
ATOM      8  C   UNL     1       3.163   5.233  19.930  0.00  0.00    +0.000 A 
ATOM      9  C   UNL     1       2.246   4.532  20.723  0.00  0.00    +0.000 A 
ATOM     10  C   UNL     1       2.323   3.148  20.801  0.00  0.00    +0.000 A 
ATOM     11 CL   UNL     1       1.208   2.280  21.780  0.00  0.00    +0.000 Cl
ATOM     12  C   UNL     1       3.302   2.468  20.093  0.00  0.00    +0.000 A 
ATOM     13  C   UNL     1       4.214   3.177  19.306  0.00  0.00    +0.000 A 
ENDBRANCH   4   7
BRANCH   1  14
ATOM     14  C   UNL     1       7.505   7.260  16.642  0.00  0.00    +0.000 C 
BRANCH  14  15
ATOM     15  C   UNL     1       7.883   7.885  17.989  0.00  0.00    +0.000 C 
BRANCH  15  16
ATOM     16  C   UNL     1       8.136   9.382  17.827  0.00  0.00    +0.000 C 
BRANCH  16  17
ATOM     17  C   UNL     1       9.092   9.899  18.900  0.00  0.00    +0.000 C 
BRANCH  17  22
ATOM     18  F   UNL     1      11.822  14.518  17.186  0.00  0.00    +0.000 F 
ATOM     19  C   UNL     1      11.172  13.423  17.597  0.00  0.00    +0.000 A 
ATOM     20  C   UNL     1      11.885  12.381  18.179  0.00  0.00    +0.000 A 
ATOM     21  C   UNL     1      11.209  11.238  18.601  0.00  0.00    +0.000 A 
ATOM     22  C   UNL     1       9.820  11.134  18.434  0.00  0.00    +0.000 A 
ATOM     23  C   UNL     1       9.115  12.201  17.859  0.00  0.00    +0.000 A 
ATOM     24  C   UNL     1       9.793  13.344  17.437  0.00  0.00    +0.000 A 
ENDBRANCH  17  22
ENDBRANCH  16  17
ENDBRANCH  15  16
ENDBRANCH  14  15
ENDBRANCH   1  14
TORSDOF 6
ENDMDL
MODEL 6
REMARK VINA RESULT:      -7.2      3.545      6.644
REMARK  Name = 
REMARK  6 active torsions:
REMARK  status: ('A' for Active; 'I' for Inactive)
REMARK    1  A    between atoms: C_5  and  C_6
REMARK    2  A    between atoms: C_6  and  C_7
REMARK    3  A    between atoms: C_7  and  C_8
REMARK    4  A    between atoms: C_8  and  C_9
REMARK    5  A    between atoms: C_9  and  N_10
REMARK    6  A    between atoms: N_13  and  C_14
REMARK                            x       y       z     vdW  Elec       q    Type
REMARK                         _______ _______ _______ _____ _____    ______ ____
ROOT
ATOM      1  N   UNL     1       3.508   4.296  19.899  0.00  0.00    +0.000 NA
ATOM      2  C   UNL     1       4.044   5.602  19.447  0.00  0.00    +0.000 C 
ATOM      3  C   UNL     1       2.979   6.584  18.909  0.00  0.00    +0.000 C 
ATOM      4  N   UNL     1       1.942   6.792  19.930  0.00  0.00    +0.000 N 
ATOM      5  C   UNL     1       1.364   5.569  20.513  0.00  0.00    +0.000 C 
ATOM      6  C   UNL     1       2.477   4.576  20.936  0.00  0.00    +0.000 C 
ENDROOT
BRANCH   4   7
ATOM      7  C   UNL     1       1.539   8.061  20.292  0.00  0.00    +0.000 A 
ATOM      8  C   UNL     1       1.292   8.399  21.631  0.00  0.00    +0.000 A 
ATOM      9  C   UNL     1       0.841   9.672  22.003  0.00  0.00    +0.000 A 
ATOM     10  C   UNL     1       0.636  10.638  21.027  0.00  0.00    +0.000 A 
ATOM     11 CL   UNL     1       0.074  12.201  21.472  0.00  0.00    +0.000 Cl
ATOM     12  C   UNL     1       0.881  10.341  19.695  0.00  0.00    +0.000 A 
ATOM     13  C   UNL     1       1.327   9.066  19.336  0.00  0.00    +0.000 A 
ENDBRANCH   4   7
BRANCH   1  14
ATOM     14  C   UNL     1       2.928   3.507  18.801  0.00  0.00    +0.000 C 
BRANCH  14  15
ATOM     15  C   UNL     1       3.981   2.944  17.841  0.00  0.00    +0.000 C 
BRANCH  15  16
ATOM     16  C   UNL     1       4.091   3.825  16.599  0.00  0.00    +0.000 C 
BRANCH  16  17
ATOM     17  C   UNL     1       5.533   3.895  16.099  0.00  0.00    +0.000 C 
BRANCH  17  22
ATOM     18  F   UNL     1       8.483   7.814  18.869  0.00  0.00    +0.000 F 
ATOM     19  C   UNL     1       7.785   6.882  18.209  0.00  0.00    +0.000 A 
ATOM     20  C   UNL     1       6.887   7.270  17.222  0.00  0.00    +0.000 A 
ATOM     21  C   UNL     1       6.156   6.299  16.538  0.00  0.00    +0.000 A 
ATOM     22  C   UNL     1       6.320   4.941  16.847  0.00  0.00    +0.000 A 
ATOM     23  C   UNL     1       7.242   4.567  17.835  0.00  0.00    +0.000 A 
ATOM     24  C   UNL     1       7.972   5.539  18.518  0.00  0.00    +0.000 A 
ENDBRANCH  17  22
ENDBRANCH  16  17
ENDBRANCH  15  16
ENDBRANCH  14  15
ENDBRANCH   1  14
TORSDOF 6
ENDMDL
MODEL 7
REMARK VINA RESULT:      -7.1      0.268      1.021
REMARK  Name = 
REMARK  6 active torsions:
REMARK  status: ('A' for Active; 'I' for Inactive)
REMARK    1  A    between atoms: C_5  and  C_6
REMARK    2  A    between atoms: C_6  and  C_7
REMARK    3  A    between atoms: C_7  and  C_8
REMARK    4  A    between atoms: C_8  and  C_9
REMARK    5  A    between atoms: C_9  and  N_10
REMARK    6  A    between atoms: N_13  and  C_14
REMARK                            x       y       z     vdW  Elec       q    Type
REMARK                         _______ _______ _______ _____ _____    ______ ____
ROOT
ATOM      1  N   UNL     1       3.491   2.179  19.817  0.00  0.00    +0.000 NA
ATOM      2  C   UNL     1       3.041   2.147  18.404  0.00  0.00    +0.000 C 
ATOM      3  C   UNL     1       3.302   3.450  17.616  0.00  0.00    +0.000 C 
ATOM      4  N   UNL     1       4.732   3.786  17.682  0.00  0.00    +0.000 N 
ATOM      5  C   UNL     1       5.326   3.792  19.028  0.00  0.00    +0.000 C 
ATOM      6  C   UNL     1       4.942   2.510  19.812  0.00  0.00    +0.000 C 
ENDROOT
BRANCH   4   7
ATOM      7  C   UNL     1       5.447   4.088  16.542  0.00  0.00    +0.000 A 
ATOM      8  C   UNL     1       6.740   4.630  16.608  0.00  0.00    +0.000 A 
ATOM      9  C   UNL     1       7.457   4.981  15.457  0.00  0.00    +0.000 A 
ATOM     10  C   UNL     1       6.884   4.785  14.207  0.00  0.00    +0.000 A 
ATOM     11 CL   UNL     1       7.752   5.222  12.789  0.00  0.00    +0.000 Cl
ATOM     12  C   UNL     1       5.613   4.243  14.104  0.00  0.00    +0.000 A 
ATOM     13  C   UNL     1       4.906   3.900  15.261  0.00  0.00    +0.000 A 
ENDBRANCH   4   7
BRANCH   1  14
ATOM     14  C   UNL     1       2.747   3.153  20.630  0.00  0.00    +0.000 C 
BRANCH  14  15
ATOM     15  C   UNL     1       1.249   3.189  20.307  0.00  0.00    +0.000 C 
BRANCH  15  16
ATOM     16  C   UNL     1       0.729   4.624  20.363  0.00  0.00    +0.000 C 
BRANCH  16  17
ATOM     17  C   UNL     1       1.808   5.582  20.862  0.00  0.00    +0.000 C 
BRANCH  17  22
ATOM     18  F   UNL     1       2.320  10.052  17.472  0.00  0.00    +0.000 F 
ATOM     19  C   UNL     1       2.201   8.991  18.280  0.00  0.00    +0.000 A 
ATOM     20  C   UNL     1       2.774   7.781  17.910  0.00  0.00    +0.000 A 
ATOM     21  C   UNL     1       2.646   6.675  18.749  0.00  0.00    +0.000 A 
ATOM     22  C   UNL     1       1.937   6.779  19.955  0.00  0.00    +0.000 A 
ATOM     23  C   UNL     1       1.379   8.013  20.320  0.00  0.00    +0.000 A 
ATOM     24  C   UNL     1       1.509   9.118  19.479  0.00  0.00    +0.000 A 
ENDBRANCH  17  22
ENDBRANCH  16  17
ENDBRANCH  15  16
ENDBRANCH  14  15
ENDBRANCH   1  14
TORSDOF 6
ENDMDL
MODEL 8
REMARK VINA RESULT:      -7.1      5.359      7.144
REMARK  Name = 
REMARK  6 active torsions:
REMARK  status: ('A' for Active; 'I' for Inactive)
REMARK    1  A    between atoms: C_5  and  C_6
REMARK    2  A    between atoms: C_6  and  C_7
REMARK    3  A    between atoms: C_7  and  C_8
REMARK    4  A    between atoms: C_8  and  C_9
REMARK    5  A    between atoms: C_9  and  N_10
REMARK    6  A    between atoms: N_13  and  C_14
REMARK                            x       y       z     vdW  Elec       q    Type
REMARK                         _______ _______ _______ _____ _____    ______ ____
ROOT
ATOM      1  N   UNL     1       7.557   6.603  16.960  0.00  0.00    +0.000 NA
ATOM      2  C   UNL     1       7.487   5.171  17.335  0.00  0.00    +0.000 C 
ATOM      3  C   UNL     1       6.510   4.854  18.489  0.00  0.00    +0.000 C 
ATOM      4  N   UNL     1       5.169   5.351  18.148  0.00  0.00    +0.000 N 
ATOM      5  C   UNL     1       5.102   6.750  17.696  0.00  0.00    +0.000 C 
ATOM      6  C   UNL     1       6.176   7.038  16.616  0.00  0.00    +0.000 C 
ENDROOT
BRANCH   4   7
ATOM      7  C   UNL     1       4.057   4.544  18.267  0.00  0.00    +0.000 A 
ATOM      8  C   UNL     1       2.797   4.957  17.806  0.00  0.00    +0.000 A 
ATOM      9  C   UNL     1       1.654   4.162  17.961  0.00  0.00    +0.000 A 
ATOM     10  C   UNL     1       1.759   2.925  18.582  0.00  0.00    +0.000 A 
ATOM     11 CL   UNL     1       0.360   1.947  18.786  0.00  0.00    +0.000 Cl
ATOM     12  C   UNL     1       2.990   2.481  19.040  0.00  0.00    +0.000 A 
ATOM     13  C   UNL     1       4.123   3.285  18.882  0.00  0.00    +0.000 A 
ENDBRANCH   4   7
BRANCH   1  14
ATOM     14  C   UNL     1       8.106   7.447  18.033  0.00  0.00    +0.000 C 
BRANCH  14  15
ATOM     15  C   UNL     1       8.050   8.945  17.710  0.00  0.00    +0.000 C 
BRANCH  15  16
ATOM     16  C   UNL     1       8.762   9.748  18.796  0.00  0.00    +0.000 C 
BRANCH  16  17
ATOM     17  C   UNL     1       9.670  10.814  18.185  0.00  0.00    +0.000 C 
BRANCH  17  22
ATOM     18  F   UNL     1       7.360  15.932  18.639  0.00  0.00    +0.000 F 
ATOM     19  C   UNL     1       7.905  14.715  18.533  0.00  0.00    +0.000 A 
ATOM     20  C   UNL     1       8.890  14.324  19.433  0.00  0.00    +0.000 A 
ATOM     21  C   UNL     1       9.462  13.058  19.319  0.00  0.00    +0.000 A 
ATOM     22  C   UNL     1       9.053  12.185  18.299  0.00  0.00    +0.000 A 
ATOM     23  C   UNL     1       8.048  12.591  17.409  0.00  0.00    +0.000 A 
ATOM     24  C   UNL     1       7.477  13.858  17.525  0.00  0.00    +0.000 A 
ENDBRANCH  17  22
ENDBRANCH  16  17
ENDBRANCH  15  16
ENDBRANCH  14  15
ENDBRANCH   1  14
TORSDOF 6
ENDMDL
MODEL 9
REMARK VINA RESULT:      -7.1      3.600      6.809
REMARK  Name = 
REMARK  6 active torsions:
REMARK  status: ('A' for Active; 'I' for Inactive)
REMARK    1  A    between atoms: C_5  and  C_6
REMARK    2  A    between atoms: C_6  and  C_7
REMARK    3  A    between atoms: C_7  and  C_8
REMARK    4  A    between atoms: C_8  and  C_9
REMARK    5  A    between atoms: C_9  and  N_10
REMARK    6  A    between atoms: N_13  and  C_14
REMARK                            x       y       z     vdW  Elec       q    Type
REMARK                         _______ _______ _______ _____ _____    ______ ____
ROOT
ATOM      1  N   UNL     1       3.578   4.547  19.790  0.00  0.00    +0.000 NA
ATOM      2  C   UNL     1       3.998   5.888  19.315  0.00  0.00    +0.000 C 
ATOM      3  C   UNL     1       2.838   6.801  18.858  0.00  0.00    +0.000 C 
ATOM      4  N   UNL     1       1.860   6.936  19.947  0.00  0.00    +0.000 N 
ATOM      5  C   UNL     1       1.403   5.675  20.555  0.00  0.00    +0.000 C 
ATOM      6  C   UNL     1       2.602   4.754  20.894  0.00  0.00    +0.000 C 
ENDROOT
BRANCH   4   7
ATOM      7  C   UNL     1       1.402   8.174  20.346  0.00  0.00    +0.000 A 
ATOM      8  C   UNL     1       1.239   9.226  19.431  0.00  0.00    +0.000 A 
ATOM      9  C   UNL     1       0.815  10.499  19.834  0.00  0.00    +0.000 A 
ATOM     10  C   UNL     1       0.540  10.738  21.174  0.00  0.00    +0.000 A 
ATOM     11 CL   UNL     1       0.030  12.300  21.680  0.00  0.00    +0.000 Cl
ATOM     12  C   UNL     1       0.681   9.718  22.103  0.00  0.00    +0.000 A 
ATOM     13  C   UNL     1       1.107   8.453  21.689  0.00  0.00    +0.000 A 
ENDBRANCH   4   7
BRANCH   1  14
ATOM     14  C   UNL     1       2.978   3.728  18.725  0.00  0.00    +0.000 C 
BRANCH  14  15
ATOM     15  C   UNL     1       4.019   3.056  17.822  0.00  0.00    +0.000 C 
BRANCH  15  16
ATOM     16  C   UNL     1       4.223   3.874  16.549  0.00  0.00    +0.000 C 
BRANCH  16  17
ATOM     17  C   UNL     1       5.693   3.889  16.133  0.00  0.00    +0.000 C 
BRANCH  17  22
ATOM     18  F   UNL     1       8.534   7.891  18.900  0.00  0.00    +0.000 F 
ATOM     19  C   UNL     1       7.855   6.941  18.244  0.00  0.00    +0.000 A 
ATOM     20  C   UNL     1       7.999   5.612  18.623  0.00  0.00    +0.000 A 
ATOM     21  C   UNL     1       7.297   4.622  17.937  0.00  0.00    +0.000 A 
ATOM     22  C   UNL     1       6.456   4.963  16.867  0.00  0.00    +0.000 A 
ATOM     23  C   UNL     1       6.312   6.311  16.508  0.00  0.00    +0.000 A 
ATOM     24  C   UNL     1       7.015   7.299  17.196  0.00  0.00    +0.000 A 
ENDBRANCH  17  22
ENDBRANCH  16  17
ENDBRANCH  15  16
ENDBRANCH  14  15
ENDBRANCH   1  14
TORSDOF 6
ENDMDL
