MODEL 1
REMARK VINA RESULT:      -6.9      0.000      0.000
REMARK  Name = 
REMARK  6 active torsions:
REMARK  status: ('A' for Active; 'I' for Inactive)
REMARK    1  A    between atoms: C_1  and  S_2
REMARK    2  A    between atoms: S_2  and  N_5
REMARK    3  A    between atoms: N_5  and  C_6
REMARK    4  A    between atoms: N_16  and  C_17
REMARK    5  A    between atoms: C_17  and  C_18
REMARK    6  A    between atoms: C_18  and  C_19
REMARK                            x       y       z     vdW  Elec       q    Type
REMARK                         _______ _______ _______ _____ _____    ______ ____
ROOT
ATOM      1  C   UNL     1      -0.977  11.354  22.503  0.00  0.00    +0.000 A 
ATOM      2  C   UNL     1      -0.798  10.204  23.285  0.00  0.00    +0.000 A 
ATOM      3  C   UNL     1      -0.270   9.037  22.724  0.00  0.00    +0.000 A 
ATOM      4  C   UNL     1       0.088   9.005  21.377  0.00  0.00    +0.000 A 
ATOM      5  C   UNL     1      -0.082  10.146  20.582  0.00  0.00    +0.000 A 
ATOM      6  C   UNL     1      -0.600  11.335  21.150  0.00  0.00    +0.000 A 
ATOM      7  O   UNL     1      -0.662  12.472  20.395  0.00  0.00    +0.000 OA
ATOM      8  C   UNL     1       0.114  12.639  19.244  0.00  0.00    +0.000 C 
ATOM      9  C   UNL     1       1.608  12.817  19.643  0.00  0.00    +0.000 C 
ATOM     10  C   UNL     1       1.816  14.136  20.412  0.00  0.00    +0.000 C 
ATOM     11  N   UNL     1       1.362  15.308  19.629  0.00  0.00    +0.000 NA
ATOM     12  C   UNL     1      -0.077  15.166  19.299  0.00  0.00    +0.000 C 
ATOM     13  C   UNL     1      -0.357  13.892  18.479  0.00  0.00    +0.000 C 
ATOM     14  C   UNL     1      -0.068  11.389  18.355  0.00  0.00    +0.000 C 
ATOM     15  C   UNL     1       0.305  10.173  19.155  0.00  0.00    +0.000 C 
ATOM     16  O   UNL     1       0.968   9.275  18.654  0.00  0.00    +0.000 OA
ENDROOT
BRANCH   1  17
ATOM     17  N   UNL     1      -1.475  12.537  23.105  0.00  0.00    +0.000 N 
ATOM     18  H   UNL     1      -1.110  12.738  24.047  0.00  0.00    +0.000 HD
BRANCH  17  20
ATOM     19  C   UNL     1      -4.119  12.813  21.497  0.00  0.00    +0.000 C 
ATOM     20  S   UNL     1      -3.205  12.840  23.062  0.00  0.00    +0.000 S 
ATOM     21  O   UNL     1      -3.375  14.176  23.801  0.00  0.00    +0.000 OA
ATOM     22  O   UNL     1      -3.789  11.858  24.092  0.00  0.00    +0.000 OA
ENDBRANCH  17  20
ENDBRANCH   1  17
BRANCH  11  23
ATOM     23  C   UNL     1       2.259  15.548  18.465  0.00  0.00    +0.000 C 
BRANCH  23  24
ATOM     24  C   UNL     1       3.109  16.822  18.579  0.00  0.00    +0.000 C 
BRANCH  24  25
ATOM     25  C   UNL     1       4.567  16.461  18.465  0.00  0.00    +0.000 A 
ATOM     26  C   UNL     1       4.960  15.192  18.009  0.00  0.00    +0.000 A 
ATOM     27  C   UNL     1       6.319  14.877  17.948  0.00  0.00    +0.000 A 
ATOM     28  C   UNL     1       7.269  15.821  18.338  0.00  0.00    +0.000 A 
ATOM     29  C   UNL     1       6.844  17.075  18.782  0.00  0.00    +0.000 A 
ATOM     30  N   UNL     1       5.516  17.365  18.836  0.00  0.00    +0.000 NA
ENDBRANCH  24  25
ENDBRANCH  23  24
ENDBRANCH  11  23
TORSDOF 5
ENDMDL
MODEL 2
REMARK VINA RESULT:      -6.6      7.796      9.551
REMARK  Name = 
REMARK  6 active torsions:
REMARK  status: ('A' for Active; 'I' for Inactive)
REMARK    1  A    between atoms: C_1  and  S_2
REMARK    2  A    between atoms: S_2  and  N_5
REMARK    3  A    between atoms: N_5  and  C_6
REMARK    4  A    between atoms: N_16  and  C_17
REMARK    5  A    between atoms: C_17  and  C_18
REMARK    6  A    between atoms: C_18  and  C_19
REMARK                            x       y       z     vdW  Elec       q    Type
REMARK                         _______ _______ _______ _____ _____    ______ ____
ROOT
ATOM      1  C   UNL     1       2.158   4.999  20.771  0.00  0.00    +0.000 A 
ATOM      2  C   UNL     1       1.574   4.046  21.617  0.00  0.00    +0.000 A 
ATOM      3  C   UNL     1       1.322   2.749  21.160  0.00  0.00    +0.000 A 
ATOM      4  C   UNL     1       1.655   2.387  19.855  0.00  0.00    +0.000 A 
ATOM      5  C   UNL     1       2.242   3.326  18.998  0.00  0.00    +0.000 A 
ATOM      6  C   UNL     1       2.514   4.636  19.461  0.00  0.00    +0.000 A 
ATOM      7  O   UNL     1       3.183   5.511  18.654  0.00  0.00    +0.000 OA
ATOM      8  C   UNL     1       3.958   5.078  17.574  0.00  0.00    +0.000 C 
ATOM      9  C   UNL     1       5.239   4.369  18.103  0.00  0.00    +0.000 C 
ATOM     10  C   UNL     1       6.159   5.370  18.829  0.00  0.00    +0.000 C 
ATOM     11  N   UNL     1       6.538   6.504  17.955  0.00  0.00    +0.000 NA
ATOM     12  C   UNL     1       5.319   7.216  17.499  0.00  0.00    +0.000 C 
ATOM     13  C   UNL     1       4.371   6.290  16.714  0.00  0.00    +0.000 C 
ATOM     14  C   UNL     1       3.106   4.107  16.729  0.00  0.00    +0.000 C 
ATOM     15  C   UNL     1       2.636   2.986  17.613  0.00  0.00    +0.000 C 
ATOM     16  O   UNL     1       2.651   1.829  17.218  0.00  0.00    +0.000 OA
ENDROOT
BRANCH   1  17
ATOM     17  N   UNL     1       2.441   6.296  21.270  0.00  0.00    +0.000 N 
ATOM     18  H   UNL     1       2.594   6.351  22.287  0.00  0.00    +0.000 HD
BRANCH  17  20
ATOM     19  C   UNL     1       1.689   8.421  19.132  0.00  0.00    +0.000 C 
ATOM     20  S   UNL     1       1.435   7.638  20.747  0.00  0.00    +0.000 S 
ATOM     21  O   UNL     1       1.529   8.653  21.896  0.00  0.00    +0.000 OA
ATOM     22  O   UNL     1      -0.005   7.126  20.925  0.00  0.00    +0.000 OA
ENDBRANCH  17  20
ENDBRANCH   1  17
BRANCH  11  23
ATOM     23  C   UNL     1       7.454   6.055  16.872  0.00  0.00    +0.000 C 
BRANCH  23  24
ATOM     24  C   UNL     1       7.243   4.598  16.435  0.00  0.00    +0.000 C 
BRANCH  24  25
ATOM     25  C   UNL     1       7.110   4.542  14.935  0.00  0.00    +0.000 A 
ATOM     26  C   UNL     1       6.172   3.691  14.328  0.00  0.00    +0.000 A 
ATOM     27  C   UNL     1       6.098   3.638  12.934  0.00  0.00    +0.000 A 
ATOM     28  C   UNL     1       6.952   4.426  12.162  0.00  0.00    +0.000 A 
ATOM     29  C   UNL     1       7.870   5.265  12.799  0.00  0.00    +0.000 A 
ATOM     30  N   UNL     1       7.929   5.304  14.157  0.00  0.00    +0.000 NA
ENDBRANCH  24  25
ENDBRANCH  23  24
ENDBRANCH  11  23
TORSDOF 5
ENDMDL
MODEL 3
REMARK VINA RESULT:      -6.5      2.768      7.616
REMARK  Name = 
REMARK  6 active torsions:
REMARK  status: ('A' for Active; 'I' for Inactive)
REMARK    1  A    between atoms: C_1  and  S_2
REMARK    2  A    between atoms: S_2  and  N_5
REMARK    3  A    between atoms: N_5  and  C_6
REMARK    4  A    between atoms: N_16  and  C_17
REMARK    5  A    between atoms: C_17  and  C_18
REMARK    6  A    between atoms: C_18  and  C_19
REMARK                            x       y       z     vdW  Elec       q    Type
REMARK                         _______ _______ _______ _____ _____    ______ ____
ROOT
ATOM      1  C   UNL     1       2.011  14.005  20.175  0.00  0.00    +0.000 A 
ATOM      2  C   UNL     1       2.763  14.133  18.998  0.00  0.00    +0.000 A 
ATOM      3  C   UNL     1       2.800  13.094  18.062  0.00  0.00    +0.000 A 
ATOM      4  C   UNL     1       2.086  11.919  18.288  0.00  0.00    +0.000 A 
ATOM      5  C   UNL     1       1.329  11.776  19.457  0.00  0.00    +0.000 A 
ATOM      6  C   UNL     1       1.274  12.831  20.400  0.00  0.00    +0.000 A 
ATOM      7  O   UNL     1       0.449  12.725  21.484  0.00  0.00    +0.000 OA
ATOM      8  C   UNL     1      -0.627  11.834  21.511  0.00  0.00    +0.000 C 
ATOM      9  C   UNL     1      -1.738  12.328  20.537  0.00  0.00    +0.000 C 
ATOM     10  C   UNL     1      -2.353  13.650  21.034  0.00  0.00    +0.000 C 
ATOM     11  N   UNL     1      -2.906  13.522  22.402  0.00  0.00    +0.000 NA
ATOM     12  C   UNL     1      -1.834  13.108  23.340  0.00  0.00    +0.000 C 
ATOM     13  C   UNL     1      -1.205  11.761  22.938  0.00  0.00    +0.000 C 
ATOM     14  C   UNL     1      -0.111  10.442  21.087  0.00  0.00    +0.000 C 
ATOM     15  C   UNL     1       0.533  10.559  19.734  0.00  0.00    +0.000 C 
ATOM     16  O   UNL     1       0.341   9.711  18.875  0.00  0.00    +0.000 OA
ENDROOT
BRANCH   1  17
ATOM     17  N   UNL     1       1.957  15.088  21.088  0.00  0.00    +0.000 N 
ATOM     18  H   UNL     1       2.036  14.829  22.082  0.00  0.00    +0.000 HD
BRANCH  17  20
ATOM     19  C   UNL     1      -0.323  16.342  19.390  0.00  0.00    +0.000 C 
ATOM     20  S   UNL     1       0.698  16.296  20.887  0.00  0.00    +0.000 S 
ATOM     21  O   UNL     1       1.413  17.634  21.133  0.00  0.00    +0.000 OA
ATOM     22  O   UNL     1      -0.150  16.178  22.165  0.00  0.00    +0.000 OA
ENDBRANCH  17  20
ENDBRANCH   1  17
BRANCH  11  23
ATOM     23  C   UNL     1      -4.119  12.660  22.404  0.00  0.00    +0.000 C 
BRANCH  23  24
ATOM     24  C   UNL     1      -5.299  13.234  21.606  0.00  0.00    +0.000 C 
BRANCH  24  25
ATOM     25  C   UNL     1      -5.826  12.179  20.669  0.00  0.00    +0.000 A 
ATOM     26  C   UNL     1      -5.357  12.090  19.348  0.00  0.00    +0.000 A 
ATOM     27  C   UNL     1      -5.892  11.123  18.495  0.00  0.00    +0.000 A 
ATOM     28  C   UNL     1      -6.883  10.258  18.960  0.00  0.00    +0.000 A 
ATOM     29  C   UNL     1      -7.324  10.371  20.280  0.00  0.00    +0.000 A 
ATOM     30  N   UNL     1      -6.792  11.319  21.098  0.00  0.00    +0.000 NA
ENDBRANCH  24  25
ENDBRANCH  23  24
ENDBRANCH  11  23
TORSDOF 5
ENDMDL
MODEL 4
REMARK VINA RESULT:      -6.4      0.938      1.321
REMARK  Name = 
REMARK  6 active torsions:
REMARK  status: ('A' for Active; 'I' for Inactive)
REMARK    1  A    between atoms: C_1  and  S_2
REMARK    2  A    between atoms: S_2  and  N_5
REMARK    3  A    between atoms: N_5  and  C_6
REMARK    4  A    between atoms: N_16  and  C_17
REMARK    5  A    between atoms: C_17  and  C_18
REMARK    6  A    between atoms: C_18  and  C_19
REMARK                            x       y       z     vdW  Elec       q    Type
REMARK                         _______ _______ _______ _____ _____    ______ ____
ROOT
ATOM      1  C   UNL     1      -1.019  11.430  22.506  0.00  0.00    +0.000 A 
ATOM      2  C   UNL     1      -0.885  10.266  23.277  0.00  0.00    +0.000 A 
ATOM      3  C   UNL     1      -0.381   9.092  22.710  0.00  0.00    +0.000 A 
ATOM      4  C   UNL     1      -0.002   9.066  21.368  0.00  0.00    +0.000 A 
ATOM      5  C   UNL     1      -0.128  10.220  20.585  0.00  0.00    +0.000 A 
ATOM      6  C   UNL     1      -0.622  11.416  21.159  0.00  0.00    +0.000 A 
ATOM      7  O   UNL     1      -0.641  12.563  20.417  0.00  0.00    +0.000 OA
ATOM      8  C   UNL     1       0.157  12.722  19.280  0.00  0.00    +0.000 C 
ATOM      9  C   UNL     1       1.650  12.854  19.704  0.00  0.00    +0.000 C 
ATOM     10  C   UNL     1       1.881  14.158  20.492  0.00  0.00    +0.000 C 
ATOM     11  N   UNL     1       1.473  15.351  19.716  0.00  0.00    +0.000 NA
ATOM     12  C   UNL     1       0.036  15.253  19.363  0.00  0.00    +0.000 C 
ATOM     13  C   UNL     1      -0.267  13.997  18.524  0.00  0.00    +0.000 C 
ATOM     14  C   UNL     1      -0.045  11.488  18.374  0.00  0.00    +0.000 C 
ATOM     15  C   UNL     1       0.282  10.252  19.164  0.00  0.00    +0.000 C 
ATOM     16  O   UNL     1       0.928   9.343  18.663  0.00  0.00    +0.000 OA
ENDROOT
BRANCH   1  17
ATOM     17  N   UNL     1      -1.494  12.619  23.115  0.00  0.00    +0.000 N 
ATOM     18  H   UNL     1      -1.070  12.846  24.025  0.00  0.00    +0.000 HD
BRANCH  17  20
ATOM     19  C   UNL     1      -4.175  12.531  24.682  0.00  0.00    +0.000 C 
ATOM     20  S   UNL     1      -3.228  12.897  23.181  0.00  0.00    +0.000 S 
ATOM     21  O   UNL     1      -3.779  12.145  21.960  0.00  0.00    +0.000 OA
ATOM     22  O   UNL     1      -3.397  14.357  22.728  0.00  0.00    +0.000 OA
ENDBRANCH  17  20
ENDBRANCH   1  17
BRANCH  11  23
ATOM     23  C   UNL     1       2.394  15.579  18.570  0.00  0.00    +0.000 C 
BRANCH  23  24
ATOM     24  C   UNL     1       3.388  16.730  18.783  0.00  0.00    +0.000 C 
BRANCH  24  25
ATOM     25  C   UNL     1       4.790  16.224  18.561  0.00  0.00    +0.000 A 
ATOM     26  C   UNL     1       5.902  17.006  18.916  0.00  0.00    +0.000 A 
ATOM     27  C   UNL     1       7.187  16.522  18.664  0.00  0.00    +0.000 A 
ATOM     28  C   UNL     1       7.355  15.273  18.067  0.00  0.00    +0.000 A 
ATOM     29  C   UNL     1       6.228  14.519  17.730  0.00  0.00    +0.000 A 
ATOM     30  N   UNL     1       4.983  15.006  17.981  0.00  0.00    +0.000 NA
ENDBRANCH  24  25
ENDBRANCH  23  24
ENDBRANCH  11  23
TORSDOF 5
ENDMDL
MODEL 5
REMARK VINA RESULT:      -6.4      4.090      6.156
REMARK  Name = 
REMARK  6 active torsions:
REMARK  status: ('A' for Active; 'I' for Inactive)
REMARK    1  A    between atoms: C_1  and  S_2
REMARK    2  A    between atoms: S_2  and  N_5
REMARK    3  A    between atoms: N_5  and  C_6
REMARK    4  A    between atoms: N_16  and  C_17
REMARK    5  A    between atoms: C_17  and  C_18
REMARK    6  A    between atoms: C_18  and  C_19
REMARK                            x       y       z     vdW  Elec       q    Type
REMARK                         _______ _______ _______ _____ _____    ______ ____
ROOT
ATOM      1  C   UNL     1      -3.527  13.445  21.444  0.00  0.00    +0.000 A 
ATOM      2  C   UNL     1      -4.676  13.386  22.245  0.00  0.00    +0.000 A 
ATOM      3  C   UNL     1      -5.823  12.725  21.796  0.00  0.00    +0.000 A 
ATOM      4  C   UNL     1      -5.835  12.112  20.543  0.00  0.00    +0.000 A 
ATOM      5  C   UNL     1      -4.695  12.160  19.732  0.00  0.00    +0.000 A 
ATOM      6  C   UNL     1      -3.525  12.813  20.189  0.00  0.00    +0.000 A 
ATOM      7  O   UNL     1      -2.386  12.762  19.438  0.00  0.00    +0.000 OA
ATOM      8  C   UNL     1      -2.189  11.784  18.458  0.00  0.00    +0.000 C 
ATOM      9  C   UNL     1      -1.969  10.401  19.139  0.00  0.00    +0.000 C 
ATOM     10  C   UNL     1      -0.650  10.386  19.935  0.00  0.00    +0.000 C 
ATOM     11  N   UNL     1       0.514  10.714  19.079  0.00  0.00    +0.000 NA
ATOM     12  C   UNL     1       0.332  12.058  18.477  0.00  0.00    +0.000 C 
ATOM     13  C   UNL     1      -0.945  12.136  17.618  0.00  0.00    +0.000 C 
ATOM     14  C   UNL     1      -3.437  11.753  17.550  0.00  0.00    +0.000 C 
ATOM     15  C   UNL     1      -4.648  11.505  18.406  0.00  0.00    +0.000 C 
ATOM     16  O   UNL     1      -5.522  10.731  18.043  0.00  0.00    +0.000 OA
ENDROOT
BRANCH   1  17
ATOM     17  N   UNL     1      -2.363  14.086  21.939  0.00  0.00    +0.000 N 
ATOM     18  H   UNL     1      -1.873  14.690  21.264  0.00  0.00    +0.000 HD
BRANCH  17  20
ATOM     19  C   UNL     1      -1.529  11.401  23.262  0.00  0.00    +0.000 C 
ATOM     20  S   UNL     1      -1.195  13.132  22.841  0.00  0.00    +0.000 S 
ATOM     21  O   UNL     1      -0.897  13.978  24.088  0.00  0.00    +0.000 OA
ATOM     22  O   UNL     1       0.117  13.296  22.055  0.00  0.00    +0.000 OA
ENDBRANCH  17  20
ENDBRANCH   1  17
BRANCH  11  23
ATOM     23  C   UNL     1       0.787   9.617  18.112  0.00  0.00    +0.000 C 
BRANCH  23  24
ATOM     24  C   UNL     1       2.279   9.304  17.923  0.00  0.00    +0.000 C 
BRANCH  24  25
ATOM     25  C   UNL     1       2.560   7.907  18.414  0.00  0.00    +0.000 A 
ATOM     26  C   UNL     1       3.308   7.009  17.636  0.00  0.00    +0.000 A 
ATOM     27  C   UNL     1       3.521   5.710  18.105  0.00  0.00    +0.000 A 
ATOM     28  C   UNL     1       2.991   5.320  19.335  0.00  0.00    +0.000 A 
ATOM     29  C   UNL     1       2.255   6.240  20.085  0.00  0.00    +0.000 A 
ATOM     30  N   UNL     1       2.057   7.500  19.613  0.00  0.00    +0.000 NA
ENDBRANCH  24  25
ENDBRANCH  23  24
ENDBRANCH  11  23
TORSDOF 5
ENDMDL
MODEL 6
REMARK VINA RESULT:      -6.4      4.084      6.723
REMARK  Name = 
REMARK  6 active torsions:
REMARK  status: ('A' for Active; 'I' for Inactive)
REMARK    1  A    between atoms: C_1  and  S_2
REMARK    2  A    between atoms: S_2  and  N_5
REMARK    3  A    between atoms: N_5  and  C_6
REMARK    4  A    between atoms: N_16  and  C_17
REMARK    5  A    between atoms: C_17  and  C_18
REMARK    6  A    between atoms: C_18  and  C_19
REMARK                            x       y       z     vdW  Elec       q    Type
REMARK                         _______ _______ _______ _____ _____    ______ ____
ROOT
ATOM      1  C   UNL     1      -3.325  13.373  20.766  0.00  0.00    +0.000 A 
ATOM      2  C   UNL     1      -4.696  13.505  21.026  0.00  0.00    +0.000 A 
ATOM      3  C   UNL     1      -5.640  12.901  20.189  0.00  0.00    +0.000 A 
ATOM      4  C   UNL     1      -5.225  12.155  19.086  0.00  0.00    +0.000 A 
ATOM      5  C   UNL     1      -3.859  12.011  18.815  0.00  0.00    +0.000 A 
ATOM      6  C   UNL     1      -2.899  12.607  19.668  0.00  0.00    +0.000 A 
ATOM      7  O   UNL     1      -1.570  12.372  19.457  0.00  0.00    +0.000 OA
ATOM      8  C   UNL     1      -1.121  11.277  18.713  0.00  0.00    +0.000 C 
ATOM      9  C   UNL     1      -1.369   9.965  19.515  0.00  0.00    +0.000 C 
ATOM     10  C   UNL     1      -0.493   9.924  20.782  0.00  0.00    +0.000 C 
ATOM     11  N   UNL     1       0.947  10.051  20.461  0.00  0.00    +0.000 NA
ATOM     12  C   UNL     1       1.192  11.329  19.750  0.00  0.00    +0.000 C 
ATOM     13  C   UNL     1       0.389  11.423  18.438  0.00  0.00    +0.000 C 
ATOM     14  C   UNL     1      -1.893  11.254  17.376  0.00  0.00    +0.000 C 
ATOM     15  C   UNL     1      -3.366  11.210  17.672  0.00  0.00    +0.000 C 
ATOM     16  O   UNL     1      -4.110  10.480  17.034  0.00  0.00    +0.000 OA
ENDROOT
BRANCH   1  17
ATOM     17  N   UNL     1      -2.387  13.961  21.653  0.00  0.00    +0.000 N 
ATOM     18  H   UNL     1      -1.434  14.066  21.278  0.00  0.00    +0.000 HD
BRANCH  17  20
ATOM     19  C   UNL     1      -3.589  13.828  24.515  0.00  0.00    +0.000 C 
ATOM     20  S   UNL     1      -2.314  13.378  23.309  0.00  0.00    +0.000 S 
ATOM     21  O   UNL     1      -0.908  13.772  23.787  0.00  0.00    +0.000 OA
ATOM     22  O   UNL     1      -2.159  11.854  23.169  0.00  0.00    +0.000 OA
ENDBRANCH  17  20
ENDBRANCH   1  17
BRANCH  11  23
ATOM     23  C   UNL     1       1.445   8.833  19.767  0.00  0.00    +0.000 C 
BRANCH  23  24
ATOM     24  C   UNL     1       1.911   7.717  20.714  0.00  0.00    +0.000 C 
BRANCH  24  25
ATOM     25  C   UNL     1       1.919   6.406  19.972  0.00  0.00    +0.000 A 
ATOM     26  C   UNL     1       1.394   5.244  20.561  0.00  0.00    +0.000 A 
ATOM     27  C   UNL     1       1.448   4.037  19.860  0.00  0.00    +0.000 A 
ATOM     28  C   UNL     1       2.020   3.997  18.588  0.00  0.00    +0.000 A 
ATOM     29  C   UNL     1       2.529   5.172  18.030  0.00  0.00    +0.000 A 
ATOM     30  N   UNL     1       2.469   6.339  18.727  0.00  0.00    +0.000 NA
ENDBRANCH  24  25
ENDBRANCH  23  24
ENDBRANCH  11  23
TORSDOF 5
ENDMDL
MODEL 7
REMARK VINA RESULT:      -6.4      3.925      6.078
REMARK  Name = 
REMARK  6 active torsions:
REMARK  status: ('A' for Active; 'I' for Inactive)
REMARK    1  A    between atoms: C_1  and  S_2
REMARK    2  A    between atoms: S_2  and  N_5
REMARK    3  A    between atoms: N_5  and  C_6
REMARK    4  A    between atoms: N_16  and  C_17
REMARK    5  A    between atoms: C_17  and  C_18
REMARK    6  A    between atoms: C_18  and  C_19
REMARK                            x       y       z     vdW  Elec       q    Type
REMARK                         _______ _______ _______ _____ _____    ______ ____
ROOT
ATOM      1  C   UNL     1      -4.202  13.074  20.637  0.00  0.00    +0.000 A 
ATOM      2  C   UNL     1      -5.571  12.839  20.444  0.00  0.00    +0.000 A 
ATOM      3  C   UNL     1      -6.018  12.101  19.344  0.00  0.00    +0.000 A 
ATOM      4  C   UNL     1      -5.104  11.586  18.425  0.00  0.00    +0.000 A 
ATOM      5  C   UNL     1      -3.733  11.810  18.604  0.00  0.00    +0.000 A 
ATOM      6  C   UNL     1      -3.274  12.542  19.726  0.00  0.00    +0.000 A 
ATOM      7  O   UNL     1      -1.932  12.664  19.949  0.00  0.00    +0.000 OA
ATOM      8  C   UNL     1      -1.004  11.788  19.378  0.00  0.00    +0.000 C 
ATOM      9  C   UNL     1      -1.131  10.386  20.045  0.00  0.00    +0.000 C 
ATOM     10  C   UNL     1      -0.708  10.445  21.526  0.00  0.00    +0.000 C 
ATOM     11  N   UNL     1       0.674  10.953  21.685  0.00  0.00    +0.000 NA
ATOM     12  C   UNL     1       0.780  12.313  21.101  0.00  0.00    +0.000 C 
ATOM     13  C   UNL     1       0.423  12.326  19.603  0.00  0.00    +0.000 C 
ATOM     14  C   UNL     1      -1.294  11.699  17.864  0.00  0.00    +0.000 C 
ATOM     15  C   UNL     1      -2.721  11.266  17.672  0.00  0.00    +0.000 C 
ATOM     16  O   UNL     1      -3.013  10.437  16.822  0.00  0.00    +0.000 OA
ENDROOT
BRANCH   1  17
ATOM     17  N   UNL     1      -3.771  13.790  21.782  0.00  0.00    +0.000 N 
ATOM     18  H   UNL     1      -2.788  14.097  21.765  0.00  0.00    +0.000 HD
BRANCH  17  20
ATOM     19  C   UNL     1      -5.892  12.925  23.881  0.00  0.00    +0.000 C 
ATOM     20  S   UNL     1      -4.168  13.154  23.371  0.00  0.00    +0.000 S 
ATOM     21  O   UNL     1      -3.398  14.060  24.345  0.00  0.00    +0.000 OA
ATOM     22  O   UNL     1      -3.354  11.853  23.474  0.00  0.00    +0.000 OA
ENDBRANCH  17  20
ENDBRANCH   1  17
BRANCH  11  23
ATOM     23  C   UNL     1       1.664   9.965  21.175  0.00  0.00    +0.000 C 
BRANCH  23  24
ATOM     24  C   UNL     1       1.315   8.504  21.495  0.00  0.00    +0.000 C 
BRANCH  24  25
ATOM     25  C   UNL     1       1.763   7.625  20.357  0.00  0.00    +0.000 A 
ATOM     26  C   UNL     1       2.005   8.164  19.083  0.00  0.00    +0.000 A 
ATOM     27  C   UNL     1       2.386   7.315  18.042  0.00  0.00    +0.000 A 
ATOM     28  C   UNL     1       2.521   5.946  18.275  0.00  0.00    +0.000 A 
ATOM     29  C   UNL     1       2.276   5.444  19.555  0.00  0.00    +0.000 A 
ATOM     30  N   UNL     1       1.906   6.284  20.557  0.00  0.00    +0.000 NA
ENDBRANCH  24  25
ENDBRANCH  23  24
ENDBRANCH  11  23
TORSDOF 5
ENDMDL
MODEL 8
REMARK VINA RESULT:      -6.3      6.206      9.313
REMARK  Name = 
REMARK  6 active torsions:
REMARK  status: ('A' for Active; 'I' for Inactive)
REMARK    1  A    between atoms: C_1  and  S_2
REMARK    2  A    between atoms: S_2  and  N_5
REMARK    3  A    between atoms: N_5  and  C_6
REMARK    4  A    between atoms: N_16  and  C_17
REMARK    5  A    between atoms: C_17  and  C_18
REMARK    6  A    between atoms: C_18  and  C_19
REMARK                            x       y       z     vdW  Elec       q    Type
REMARK                         _______ _______ _______ _____ _____    ______ ____
ROOT
ATOM      1  C   UNL     1       4.896   5.989  17.349  0.00  0.00    +0.000 A 
ATOM      2  C   UNL     1       5.272   4.976  16.454  0.00  0.00    +0.000 A 
ATOM      3  C   UNL     1       4.536   3.791  16.371  0.00  0.00    +0.000 A 
ATOM      4  C   UNL     1       3.413   3.603  17.176  0.00  0.00    +0.000 A 
ATOM      5  C   UNL     1       3.022   4.605  18.073  0.00  0.00    +0.000 A 
ATOM      6  C   UNL     1       3.754   5.814  18.149  0.00  0.00    +0.000 A 
ATOM      7  O   UNL     1       3.304   6.827  18.948  0.00  0.00    +0.000 OA
ATOM      8  C   UNL     1       1.975   6.897  19.375  0.00  0.00    +0.000 C 
ATOM      9  C   UNL     1       1.057   7.252  18.168  0.00  0.00    +0.000 C 
ATOM     10  C   UNL     1       1.348   8.677  17.659  0.00  0.00    +0.000 C 
ATOM     11  N   UNL     1       1.184   9.688  18.729  0.00  0.00    +0.000 NA
ATOM     12  C   UNL     1       2.101   9.384  19.854  0.00  0.00    +0.000 C 
ATOM     13  C   UNL     1       1.834   7.990  20.454  0.00  0.00    +0.000 C 
ATOM     14  C   UNL     1       1.587   5.526  19.970  0.00  0.00    +0.000 C 
ATOM     15  C   UNL     1       1.825   4.467  18.931  0.00  0.00    +0.000 C 
ATOM     16  O   UNL     1       1.015   3.567  18.760  0.00  0.00    +0.000 OA
ENDROOT
BRANCH   1  17
ATOM     17  N   UNL     1       5.635   7.198  17.385  0.00  0.00    +0.000 N 
ATOM     18  H   UNL     1       5.433   7.860  16.623  0.00  0.00    +0.000 HD
BRANCH  17  20
ATOM     19  C   UNL     1       8.057   6.112  19.000  0.00  0.00    +0.000 C 
ATOM     20  S   UNL     1       7.368   7.117  17.659  0.00  0.00    +0.000 S 
ATOM     21  O   UNL     1       7.804   8.587  17.763  0.00  0.00    +0.000 OA
ATOM     22  O   UNL     1       7.952   6.735  16.288  0.00  0.00    +0.000 OA
ENDBRANCH  17  20
ENDBRANCH   1  17
BRANCH  11  23
ATOM     23  C   UNL     1      -0.249   9.838  19.101  0.00  0.00    +0.000 C 
BRANCH  23  24
ATOM     24  C   UNL     1      -0.858  11.197  18.722  0.00  0.00    +0.000 C 
BRANCH  24  25
ATOM     25  C   UNL     1      -2.023  10.978  17.793  0.00  0.00    +0.000 A 
ATOM     26  C   UNL     1      -1.947  10.037  16.753  0.00  0.00    +0.000 A 
ATOM     27  C   UNL     1      -3.033   9.884  15.888  0.00  0.00    +0.000 A 
ATOM     28  C   UNL     1      -4.176  10.663  16.063  0.00  0.00    +0.000 A 
ATOM     29  C   UNL     1      -4.220  11.587  17.110  0.00  0.00    +0.000 A 
ATOM     30  N   UNL     1      -3.154  11.724  17.943  0.00  0.00    +0.000 NA
ENDBRANCH  24  25
ENDBRANCH  23  24
ENDBRANCH  11  23
TORSDOF 5
ENDMDL
MODEL 9
REMARK VINA RESULT:      -6.3      2.980      7.879
REMARK  Name = 
REMARK  6 active torsions:
REMARK  status: ('A' for Active; 'I' for Inactive)
REMARK    1  A    between atoms: C_1  and  S_2
REMARK    2  A    between atoms: S_2  and  N_5
REMARK    3  A    between atoms: N_5  and  C_6
REMARK    4  A    between atoms: N_16  and  C_17
REMARK    5  A    between atoms: C_17  and  C_18
REMARK    6  A    between atoms: C_18  and  C_19
REMARK                            x       y       z     vdW  Elec       q    Type
REMARK                         _______ _______ _______ _____ _____    ______ ____
ROOT
ATOM      1  C   UNL     1       1.664  14.264  19.932  0.00  0.00    +0.000 A 
ATOM      2  C   UNL     1       2.433  14.218  18.760  0.00  0.00    +0.000 A 
ATOM      3  C   UNL     1       2.592  13.018  18.061  0.00  0.00    +0.000 A 
ATOM      4  C   UNL     1       1.983  11.851  18.520  0.00  0.00    +0.000 A 
ATOM      5  C   UNL     1       1.209  11.880  19.687  0.00  0.00    +0.000 A 
ATOM      6  C   UNL     1       1.031  13.096  20.390  0.00  0.00    +0.000 A 
ATOM      7  O   UNL     1       0.189  13.138  21.465  0.00  0.00    +0.000 OA
ATOM      8  C   UNL     1      -0.801  12.172  21.667  0.00  0.00    +0.000 C 
ATOM      9  C   UNL     1      -1.924  12.346  20.603  0.00  0.00    +0.000 C 
ATOM     10  C   UNL     1      -2.672  13.677  20.809  0.00  0.00    +0.000 C 
ATOM     11  N   UNL     1      -3.249  13.781  22.169  0.00  0.00    +0.000 NA
ATOM     12  C   UNL     1      -2.170  13.674  23.182  0.00  0.00    +0.000 C 
ATOM     13  C   UNL     1      -1.408  12.340  23.074  0.00  0.00    +0.000 C 
ATOM     14  C   UNL     1      -0.146  10.779  21.546  0.00  0.00    +0.000 C 
ATOM     15  C   UNL     1       0.522  10.676  20.204  0.00  0.00    +0.000 C 
ATOM     16  O   UNL     1       0.433   9.655  19.538  0.00  0.00    +0.000 OA
ENDROOT
BRANCH   1  17
ATOM     17  N   UNL     1       1.484  15.502  20.600  0.00  0.00    +0.000 N 
ATOM     18  H   UNL     1       1.460  16.331  19.990  0.00  0.00    +0.000 HD
BRANCH  17  20
ATOM     19  C   UNL     1       3.989  14.928  22.346  0.00  0.00    +0.000 C 
ATOM     20  S   UNL     1       2.456  15.839  22.024  0.00  0.00    +0.000 S 
ATOM     21  O   UNL     1       1.466  15.725  23.194  0.00  0.00    +0.000 OA
ATOM     22  O   UNL     1       2.682  17.360  21.978  0.00  0.00    +0.000 OA
ENDBRANCH  17  20
ENDBRANCH   1  17
BRANCH  11  23
ATOM     23  C   UNL     1      -4.377  12.825  22.341  0.00  0.00    +0.000 C 
BRANCH  23  24
ATOM     24  C   UNL     1      -5.651  13.214  21.575  0.00  0.00    +0.000 C 
BRANCH  24  25
ATOM     25  C   UNL     1      -6.063  12.073  20.682  0.00  0.00    +0.000 A 
ATOM     26  C   UNL     1      -5.556  11.961  19.377  0.00  0.00    +0.000 A 
ATOM     27  C   UNL     1      -5.986  10.910  18.564  0.00  0.00    +0.000 A 
ATOM     28  C   UNL     1      -6.909   9.986  19.053  0.00  0.00    +0.000 A 
ATOM     29  C   UNL     1      -7.390  10.124  20.357  0.00  0.00    +0.000 A 
ATOM     30  N   UNL     1      -6.961  11.154  21.135  0.00  0.00    +0.000 NA
ENDBRANCH  24  25
ENDBRANCH  23  24
ENDBRANCH  11  23
TORSDOF 5
ENDMDL
