MODEL 1
REMARK VINA RESULT:      -8.3      0.000      0.000
REMARK  Name = 
REMARK  3 active torsions:
REMARK  status: ('A' for Active; 'I' for Inactive)
REMARK    1  A    between atoms: O_1  and  C_2
REMARK    2  A    between atoms: C_5  and  C_6
REMARK    3  A    between atoms: N_7  and  N_8
REMARK                            x       y       z     vdW  Elec       q    Type
REMARK                         _______ _______ _______ _____ _____    ______ ____
ROOT
ATOM      1  N   UNL     1       2.768   5.776  18.342  0.00  0.00    +0.000 N 
ATOM      2  C   UNL     1       2.281   4.500  18.631  0.00  0.00    +0.000 A 
ATOM      3  C   UNL     1       1.181   4.059  19.395  0.00  0.00    +0.000 A 
ATOM      4  C   UNL     1       0.956   2.687  19.530  0.00  0.00    +0.000 A 
ATOM      5  C   UNL     1       1.774   1.766  18.891  0.00  0.00    +0.000 A 
ATOM      6  C   UNL     1       2.833   2.201  18.090  0.00  0.00    +0.000 A 
ATOM      7  C   UNL     1       3.092   3.584  17.951  0.00  0.00    +0.000 A 
ATOM      8  C   UNL     1       4.044   4.322  17.189  0.00  0.00    +0.000 A 
ATOM      9  C   UNL     1       5.072   3.957  16.292  0.00  0.00    +0.000 A 
ATOM     10  C   UNL     1       5.839   4.950  15.674  0.00  0.00    +0.000 A 
ATOM     11  C   UNL     1       5.596   6.296  15.937  0.00  0.00    +0.000 A 
ATOM     12  C   UNL     1       4.582   6.679  16.819  0.00  0.00    +0.000 A 
ATOM     13  C   UNL     1       3.813   5.674  17.432  0.00  0.00    +0.000 A 
ENDROOT
BRANCH   1  15
ATOM     14  C   UNL     1       2.077   7.161  20.009  0.00  0.00    +0.000 C 
ATOM     15  N   UNL     1       2.293   7.000  18.744  0.00  0.00    +0.000 NA
BRANCH  14  19
ATOM     16  C   UNL     1       0.338  10.735  21.530  0.00  0.00    +0.000 A 
ATOM     17  C   UNL     1       0.599  10.635  20.167  0.00  0.00    +0.000 A 
ATOM     18  C   UNL     1       1.167   9.465  19.663  0.00  0.00    +0.000 A 
ATOM     19  C   UNL     1       1.476   8.409  20.527  0.00  0.00    +0.000 A 
ATOM     20  C   UNL     1       1.209   8.516  21.896  0.00  0.00    +0.000 A 
ATOM     21  C   UNL     1       0.634   9.687  22.396  0.00  0.00    +0.000 A 
BRANCH  16  22
ATOM     22  O   UNL     1      -0.218  11.860  22.065  0.00  0.00    +0.000 OA
ATOM     23  H   UNL     1       0.094  11.957  22.980  0.00  0.00    +0.000 HD
ENDBRANCH  16  22
ENDBRANCH  14  19
ENDBRANCH   1  15
TORSDOF 3
ENDMDL
MODEL 2
REMARK VINA RESULT:      -8.3      0.948      3.745
REMARK  Name = 
REMARK  3 active torsions:
REMARK  status: ('A' for Active; 'I' for Inactive)
REMARK    1  A    between atoms: O_1  and  C_2
REMARK    2  A    between atoms: C_5  and  C_6
REMARK    3  A    between atoms: N_7  and  N_8
REMARK                            x       y       z     vdW  Elec       q    Type
REMARK                         _______ _______ _______ _____ _____    ______ ____
ROOT
ATOM      1  N   UNL     1       2.900   5.881  18.380  0.00  0.00    +0.000 N 
ATOM      2  C   UNL     1       3.912   5.680  17.439  0.00  0.00    +0.000 A 
ATOM      3  C   UNL     1       4.848   6.558  16.856  0.00  0.00    +0.000 A 
ATOM      4  C   UNL     1       5.738   6.062  15.900  0.00  0.00    +0.000 A 
ATOM      5  C   UNL     1       5.734   4.718  15.555  0.00  0.00    +0.000 A 
ATOM      6  C   UNL     1       4.843   3.835  16.170  0.00  0.00    +0.000 A 
ATOM      7  C   UNL     1       3.920   4.316  17.127  0.00  0.00    +0.000 A 
ATOM      8  C   UNL     1       2.942   3.673  17.941  0.00  0.00    +0.000 A 
ATOM      9  C   UNL     1       2.530   2.332  18.099  0.00  0.00    +0.000 A 
ATOM     10  C   UNL     1       1.527   2.017  19.022  0.00  0.00    +0.000 A 
ATOM     11  C   UNL     1       0.931   3.018  19.785  0.00  0.00    +0.000 A 
ATOM     12  C   UNL     1       1.324   4.351  19.645  0.00  0.00    +0.000 A 
ATOM     13  C   UNL     1       2.337   4.657  18.719  0.00  0.00    +0.000 A 
ENDROOT
BRANCH   1  15
ATOM     14  C   UNL     1       1.912   7.929  18.306  0.00  0.00    +0.000 C 
ATOM     15  N   UNL     1       2.522   7.039  19.017  0.00  0.00    +0.000 NA
BRANCH  14  19
ATOM     16  C   UNL     1       0.896  11.731  19.927  0.00  0.00    +0.000 A 
ATOM     17  C   UNL     1       0.595  10.583  20.652  0.00  0.00    +0.000 A 
ATOM     18  C   UNL     1       0.927   9.333  20.126  0.00  0.00    +0.000 A 
ATOM     19  C   UNL     1       1.551   9.245  18.877  0.00  0.00    +0.000 A 
ATOM     20  C   UNL     1       1.852  10.404  18.154  0.00  0.00    +0.000 A 
ATOM     21  C   UNL     1       1.523  11.652  18.687  0.00  0.00    +0.000 A 
BRANCH  16  22
ATOM     22  O   UNL     1       0.590  12.972  20.404  0.00  0.00    +0.000 OA
ATOM     23  H   UNL     1       0.379  12.898  21.350  0.00  0.00    +0.000 HD
ENDBRANCH  16  22
ENDBRANCH  14  19
ENDBRANCH   1  15
TORSDOF 3
ENDMDL
MODEL 3
REMARK VINA RESULT:      -8.2      0.132      1.042
REMARK  Name = 
REMARK  3 active torsions:
REMARK  status: ('A' for Active; 'I' for Inactive)
REMARK    1  A    between atoms: O_1  and  C_2
REMARK    2  A    between atoms: C_5  and  C_6
REMARK    3  A    between atoms: N_7  and  N_8
REMARK                            x       y       z     vdW  Elec       q    Type
REMARK                         _______ _______ _______ _____ _____    ______ ____
ROOT
ATOM      1  N   UNL     1       2.781   5.770  18.316  0.00  0.00    +0.000 N 
ATOM      2  C   UNL     1       2.317   4.486  18.604  0.00  0.00    +0.000 A 
ATOM      3  C   UNL     1       1.205   4.026  19.340  0.00  0.00    +0.000 A 
ATOM      4  C   UNL     1       1.010   2.650  19.483  0.00  0.00    +0.000 A 
ATOM      5  C   UNL     1       1.870   1.743  18.880  0.00  0.00    +0.000 A 
ATOM      6  C   UNL     1       2.942   2.196  18.106  0.00  0.00    +0.000 A 
ATOM      7  C   UNL     1       3.171   3.583  17.961  0.00  0.00    +0.000 A 
ATOM      8  C   UNL     1       4.128   4.337  17.219  0.00  0.00    +0.000 A 
ATOM      9  C   UNL     1       5.192   3.989  16.359  0.00  0.00    +0.000 A 
ATOM     10  C   UNL     1       5.953   4.993  15.753  0.00  0.00    +0.000 A 
ATOM     11  C   UNL     1       5.669   6.335  15.994  0.00  0.00    +0.000 A 
ATOM     12  C   UNL     1       4.619   6.702  16.840  0.00  0.00    +0.000 A 
ATOM     13  C   UNL     1       3.856   5.685  17.439  0.00  0.00    +0.000 A 
ENDROOT
BRANCH   1  15
ATOM     14  C   UNL     1       2.085   7.187  19.954  0.00  0.00    +0.000 C 
ATOM     15  N   UNL     1       2.263   6.987  18.690  0.00  0.00    +0.000 NA
BRANCH  14  19
ATOM     16  C   UNL     1       0.254  10.768  21.345  0.00  0.00    +0.000 A 
ATOM     17  C   UNL     1       0.550   9.760  22.257  0.00  0.00    +0.000 A 
ATOM     18  C   UNL     1       1.152   8.584  21.807  0.00  0.00    +0.000 A 
ATOM     19  C   UNL     1       1.445   8.426  20.448  0.00  0.00    +0.000 A 
ATOM     20  C   UNL     1       1.146   9.444  19.537  0.00  0.00    +0.000 A 
ATOM     21  C   UNL     1       0.549  10.622  19.993  0.00  0.00    +0.000 A 
BRANCH  16  22
ATOM     22  O   UNL     1      -0.333  11.933  21.743  0.00  0.00    +0.000 OA
ATOM     23  H   UNL     1       0.364  12.574  21.963  0.00  0.00    +0.000 HD
ENDBRANCH  16  22
ENDBRANCH  14  19
ENDBRANCH   1  15
TORSDOF 3
ENDMDL
MODEL 4
REMARK VINA RESULT:      -8.2      0.624      3.478
REMARK  Name = 
REMARK  3 active torsions:
REMARK  status: ('A' for Active; 'I' for Inactive)
REMARK    1  A    between atoms: O_1  and  C_2
REMARK    2  A    between atoms: C_5  and  C_6
REMARK    3  A    between atoms: N_7  and  N_8
REMARK                            x       y       z     vdW  Elec       q    Type
REMARK                         _______ _______ _______ _____ _____    ______ ____
ROOT
ATOM      1  N   UNL     1       2.900   5.864  18.576  0.00  0.00    +0.000 N 
ATOM      2  C   UNL     1       3.915   5.791  17.621  0.00  0.00    +0.000 A 
ATOM      3  C   UNL     1       4.861   6.738  17.174  0.00  0.00    +0.000 A 
ATOM      4  C   UNL     1       5.753   6.377  16.161  0.00  0.00    +0.000 A 
ATOM      5  C   UNL     1       5.742   5.097  15.626  0.00  0.00    +0.000 A 
ATOM      6  C   UNL     1       4.841   4.141  16.104  0.00  0.00    +0.000 A 
ATOM      7  C   UNL     1       3.917   4.486  17.116  0.00  0.00    +0.000 A 
ATOM      8  C   UNL     1       2.930   3.741  17.825  0.00  0.00    +0.000 A 
ATOM      9  C   UNL     1       2.509   2.394  17.788  0.00  0.00    +0.000 A 
ATOM     10  C   UNL     1       1.499   1.957  18.651  0.00  0.00    +0.000 A 
ATOM     11  C   UNL     1       0.905   2.842  19.547  0.00  0.00    +0.000 A 
ATOM     12  C   UNL     1       1.307   4.179  19.602  0.00  0.00    +0.000 A 
ATOM     13  C   UNL     1       2.327   4.608  18.734  0.00  0.00    +0.000 A 
ENDROOT
BRANCH   1  15
ATOM     14  C   UNL     1       1.758   7.813  18.839  0.00  0.00    +0.000 C 
ATOM     15  N   UNL     1       2.526   6.920  19.371  0.00  0.00    +0.000 NA
BRANCH  14  19
ATOM     16  C   UNL     1       0.656  11.309  21.003  0.00  0.00    +0.000 A 
ATOM     17  C   UNL     1       0.912  11.409  19.639  0.00  0.00    +0.000 A 
ATOM     18  C   UNL     1       1.273  10.265  18.924  0.00  0.00    +0.000 A 
ATOM     19  C   UNL     1       1.380   9.035  19.582  0.00  0.00    +0.000 A 
ATOM     20  C   UNL     1       1.119   8.942  20.953  0.00  0.00    +0.000 A 
ATOM     21  C   UNL     1       0.753  10.087  21.663  0.00  0.00    +0.000 A 
BRANCH  16  22
ATOM     22  O   UNL     1       0.300  12.400  21.739  0.00  0.00    +0.000 OA
ATOM     23  H   UNL     1       1.107  12.839  22.055  0.00  0.00    +0.000 HD
ENDBRANCH  16  22
ENDBRANCH  14  19
ENDBRANCH   1  15
TORSDOF 3
ENDMDL
MODEL 5
REMARK VINA RESULT:      -8.2      0.902      3.606
REMARK  Name = 
REMARK  3 active torsions:
REMARK  status: ('A' for Active; 'I' for Inactive)
REMARK    1  A    between atoms: O_1  and  C_2
REMARK    2  A    between atoms: C_5  and  C_6
REMARK    3  A    between atoms: N_7  and  N_8
REMARK                            x       y       z     vdW  Elec       q    Type
REMARK                         _______ _______ _______ _____ _____    ______ ____
ROOT
ATOM      1  N   UNL     1       3.128   5.859  17.913  0.00  0.00    +0.000 N 
ATOM      2  C   UNL     1       4.461   5.863  17.498  0.00  0.00    +0.000 A 
ATOM      3  C   UNL     1       5.389   6.908  17.307  0.00  0.00    +0.000 A 
ATOM      4  C   UNL     1       6.671   6.600  16.847  0.00  0.00    +0.000 A 
ATOM      5  C   UNL     1       7.048   5.284  16.617  0.00  0.00    +0.000 A 
ATOM      6  C   UNL     1       6.147   4.242  16.857  0.00  0.00    +0.000 A 
ATOM      7  C   UNL     1       4.838   4.529  17.305  0.00  0.00    +0.000 A 
ATOM      8  C   UNL     1       3.735   3.704  17.672  0.00  0.00    +0.000 A 
ATOM      9  C   UNL     1       3.535   2.307  17.728  0.00  0.00    +0.000 A 
ATOM     10  C   UNL     1       2.307   1.797  18.163  0.00  0.00    +0.000 A 
ATOM     11  C   UNL     1       1.280   2.659  18.539  0.00  0.00    +0.000 A 
ATOM     12  C   UNL     1       1.457   4.044  18.494  0.00  0.00    +0.000 A 
ATOM     13  C   UNL     1       2.697   4.547  18.061  0.00  0.00    +0.000 A 
ENDROOT
BRANCH   1  15
ATOM     14  C   UNL     1       2.377   7.324  19.482  0.00  0.00    +0.000 C 
ATOM     15  N   UNL     1       2.321   6.916  18.257  0.00  0.00    +0.000 NA
BRANCH  14  19
ATOM     16  C   UNL     1      -0.197  10.418  20.868  0.00  0.00    +0.000 A 
ATOM     17  C   UNL     1       0.090   9.348  21.709  0.00  0.00    +0.000 A 
ATOM     18  C   UNL     1       0.935   8.331  21.260  0.00  0.00    +0.000 A 
ATOM     19  C   UNL     1       1.478   8.392  19.972  0.00  0.00    +0.000 A 
ATOM     20  C   UNL     1       1.186   9.472  19.133  0.00  0.00    +0.000 A 
ATOM     21  C   UNL     1       0.345  10.490  19.588  0.00  0.00    +0.000 A 
BRANCH  16  22
ATOM     22  O   UNL     1      -1.016  11.433  21.267  0.00  0.00    +0.000 OA
ATOM     23  H   UNL     1      -1.749  11.057  21.782  0.00  0.00    +0.000 HD
ENDBRANCH  16  22
ENDBRANCH  14  19
ENDBRANCH   1  15
TORSDOF 3
ENDMDL
MODEL 6
REMARK VINA RESULT:      -8.2      1.400      3.742
REMARK  Name = 
REMARK  3 active torsions:
REMARK  status: ('A' for Active; 'I' for Inactive)
REMARK    1  A    between atoms: O_1  and  C_2
REMARK    2  A    between atoms: C_5  and  C_6
REMARK    3  A    between atoms: N_7  and  N_8
REMARK                            x       y       z     vdW  Elec       q    Type
REMARK                         _______ _______ _______ _____ _____    ______ ____
ROOT
ATOM      1  N   UNL     1       2.921   6.164  18.518  0.00  0.00    +0.000 N 
ATOM      2  C   UNL     1       3.835   5.791  17.531  0.00  0.00    +0.000 A 
ATOM      3  C   UNL     1       4.707   6.543  16.718  0.00  0.00    +0.000 A 
ATOM      4  C   UNL     1       5.499   5.879  15.778  0.00  0.00    +0.000 A 
ATOM      5  C   UNL     1       5.463   4.496  15.668  0.00  0.00    +0.000 A 
ATOM      6  C   UNL     1       4.639   3.744  16.510  0.00  0.00    +0.000 A 
ATOM      7  C   UNL     1       3.815   4.393  17.456  0.00  0.00    +0.000 A 
ATOM      8  C   UNL     1       2.923   3.913  18.460  0.00  0.00    +0.000 A 
ATOM      9  C   UNL     1       2.532   2.624  18.884  0.00  0.00    +0.000 A 
ATOM     10  C   UNL     1       1.626   2.485  19.941  0.00  0.00    +0.000 A 
ATOM     11  C   UNL     1       1.106   3.610  20.576  0.00  0.00    +0.000 A 
ATOM     12  C   UNL     1       1.481   4.895  20.174  0.00  0.00    +0.000 A 
ATOM     13  C   UNL     1       2.397   5.024  19.115  0.00  0.00    +0.000 A 
ENDROOT
BRANCH   1  15
ATOM     14  C   UNL     1       1.815   8.134  18.252  0.00  0.00    +0.000 C 
ATOM     15  N   UNL     1       2.606   7.418  18.982  0.00  0.00    +0.000 NA
BRANCH  14  19
ATOM     16  C   UNL     1       0.859  12.142  19.319  0.00  0.00    +0.000 A 
ATOM     17  C   UNL     1       1.881  11.910  18.403  0.00  0.00    +0.000 A 
ATOM     18  C   UNL     1       2.198  10.598  18.049  0.00  0.00    +0.000 A 
ATOM     19  C   UNL     1       1.494   9.531  18.619  0.00  0.00    +0.000 A 
ATOM     20  C   UNL     1       0.467   9.772  19.537  0.00  0.00    +0.000 A 
ATOM     21  C   UNL     1       0.149  11.088  19.884  0.00  0.00    +0.000 A 
BRANCH  16  22
ATOM     22  O   UNL     1       0.517  13.409  19.692  0.00  0.00    +0.000 OA
ATOM     23  H   UNL     1      -0.002  13.815  18.977  0.00  0.00    +0.000 HD
ENDBRANCH  16  22
ENDBRANCH  14  19
ENDBRANCH   1  15
TORSDOF 3
ENDMDL
MODEL 7
REMARK VINA RESULT:      -8.1      0.993      1.275
REMARK  Name = 
REMARK  3 active torsions:
REMARK  status: ('A' for Active; 'I' for Inactive)
REMARK    1  A    between atoms: O_1  and  C_2
REMARK    2  A    between atoms: C_5  and  C_6
REMARK    3  A    between atoms: N_7  and  N_8
REMARK                            x       y       z     vdW  Elec       q    Type
REMARK                         _______ _______ _______ _____ _____    ______ ____
ROOT
ATOM      1  N   UNL     1       2.978   5.812  18.484  0.00  0.00    +0.000 N 
ATOM      2  C   UNL     1       2.348   4.585  18.702  0.00  0.00    +0.000 A 
ATOM      3  C   UNL     1       1.257   4.216  19.516  0.00  0.00    +0.000 A 
ATOM      4  C   UNL     1       0.863   2.876  19.551  0.00  0.00    +0.000 A 
ATOM      5  C   UNL     1       1.502   1.925  18.770  0.00  0.00    +0.000 A 
ATOM      6  C   UNL     1       2.549   2.299  17.922  0.00  0.00    +0.000 A 
ATOM      7  C   UNL     1       2.979   3.644  17.881  0.00  0.00    +0.000 A 
ATOM      8  C   UNL     1       3.963   4.326  17.107  0.00  0.00    +0.000 A 
ATOM      9  C   UNL     1       4.866   3.923  16.100  0.00  0.00    +0.000 A 
ATOM     10  C   UNL     1       5.712   4.865  15.506  0.00  0.00    +0.000 A 
ATOM     11  C   UNL     1       5.670   6.200  15.903  0.00  0.00    +0.000 A 
ATOM     12  C   UNL     1       4.782   6.621  16.897  0.00  0.00    +0.000 A 
ATOM     13  C   UNL     1       3.932   5.667  17.484  0.00  0.00    +0.000 A 
ENDROOT
BRANCH   1  15
ATOM     14  C   UNL     1       1.882   7.802  18.377  0.00  0.00    +0.000 C 
ATOM     15  N   UNL     1       2.700   7.042  19.028  0.00  0.00    +0.000 NA
BRANCH  14  19
ATOM     16  C   UNL     1       1.030  11.754  19.708  0.00  0.00    +0.000 A 
ATOM     17  C   UNL     1       1.707  11.575  18.506  0.00  0.00    +0.000 A 
ATOM     18  C   UNL     1       1.988  10.281  18.064  0.00  0.00    +0.000 A 
ATOM     19  C   UNL     1       1.595   9.180  18.833  0.00  0.00    +0.000 A 
ATOM     20  C   UNL     1       0.913   9.368  20.039  0.00  0.00    +0.000 A 
ATOM     21  C   UNL     1       0.629  10.664  20.475  0.00  0.00    +0.000 A 
BRANCH  16  22
ATOM     22  O   UNL     1       0.735  13.001  20.176  0.00  0.00    +0.000 OA
ATOM     23  H   UNL     1       1.290  13.181  20.953  0.00  0.00    +0.000 HD
ENDBRANCH  16  22
ENDBRANCH  14  19
ENDBRANCH   1  15
TORSDOF 3
ENDMDL
MODEL 8
REMARK VINA RESULT:      -8.1      1.106      3.515
REMARK  Name = 
REMARK  3 active torsions:
REMARK  status: ('A' for Active; 'I' for Inactive)
REMARK    1  A    between atoms: O_1  and  C_2
REMARK    2  A    between atoms: C_5  and  C_6
REMARK    3  A    between atoms: N_7  and  N_8
REMARK                            x       y       z     vdW  Elec       q    Type
REMARK                         _______ _______ _______ _____ _____    ______ ____
ROOT
ATOM      1  N   UNL     1       3.233   5.927  17.802  0.00  0.00    +0.000 N 
ATOM      2  C   UNL     1       4.597   5.903  17.503  0.00  0.00    +0.000 A 
ATOM      3  C   UNL     1       5.545   6.933  17.332  0.00  0.00    +0.000 A 
ATOM      4  C   UNL     1       6.859   6.594  17.001  0.00  0.00    +0.000 A 
ATOM      5  C   UNL     1       7.244   5.266  16.880  0.00  0.00    +0.000 A 
ATOM      6  C   UNL     1       6.318   4.243  17.102  0.00  0.00    +0.000 A 
ATOM      7  C   UNL     1       4.978   4.559  17.420  0.00  0.00    +0.000 A 
ATOM      8  C   UNL     1       3.841   3.760  17.738  0.00  0.00    +0.000 A 
ATOM      9  C   UNL     1       3.626   2.369  17.858  0.00  0.00    +0.000 A 
ATOM     10  C   UNL     1       2.362   1.889  18.214  0.00  0.00    +0.000 A 
ATOM     11  C   UNL     1       1.313   2.774  18.452  0.00  0.00    +0.000 A 
ATOM     12  C   UNL     1       1.504   4.154  18.342  0.00  0.00    +0.000 A 
ATOM     13  C   UNL     1       2.780   4.627  17.989  0.00  0.00    +0.000 A 
ENDROOT
BRANCH   1  15
ATOM     14  C   UNL     1       2.397   7.511  19.204  0.00  0.00    +0.000 C 
ATOM     15  N   UNL     1       2.409   7.005  18.015  0.00  0.00    +0.000 NA
BRANCH  14  19
ATOM     16  C   UNL     1      -0.274  10.657  20.246  0.00  0.00    +0.000 A 
ATOM     17  C   UNL     1       0.225  10.593  18.949  0.00  0.00    +0.000 A 
ATOM     18  C   UNL     1       1.100   9.563  18.602  0.00  0.00    +0.000 A 
ATOM     19  C   UNL     1       1.473   8.611  19.557  0.00  0.00    +0.000 A 
ATOM     20  C   UNL     1       0.966   8.681  20.859  0.00  0.00    +0.000 A 
ATOM     21  C   UNL     1       0.086   9.710  21.200  0.00  0.00    +0.000 A 
BRANCH  16  22
ATOM     22  O   UNL     1      -1.132  11.646  20.628  0.00  0.00    +0.000 OA
ATOM     23  H   UNL     1      -0.765  12.092  21.409  0.00  0.00    +0.000 HD
ENDBRANCH  16  22
ENDBRANCH  14  19
ENDBRANCH   1  15
TORSDOF 3
ENDMDL
MODEL 9
REMARK VINA RESULT:      -8.1      0.961      1.048
REMARK  Name = 
REMARK  3 active torsions:
REMARK  status: ('A' for Active; 'I' for Inactive)
REMARK    1  A    between atoms: O_1  and  C_2
REMARK    2  A    between atoms: C_5  and  C_6
REMARK    3  A    between atoms: N_7  and  N_8
REMARK                            x       y       z     vdW  Elec       q    Type
REMARK                         _______ _______ _______ _____ _____    ______ ____
ROOT
ATOM      1  N   UNL     1       2.459   6.283  19.128  0.00  0.00    +0.000 N 
ATOM      2  C   UNL     1       2.120   5.003  19.570  0.00  0.00    +0.000 A 
ATOM      3  C   UNL     1       1.157   4.547  20.494  0.00  0.00    +0.000 A 
ATOM      4  C   UNL     1       1.069   3.178  20.759  0.00  0.00    +0.000 A 
ATOM      5  C   UNL     1       1.883   2.271  20.097  0.00  0.00    +0.000 A 
ATOM      6  C   UNL     1       2.802   2.716  19.142  0.00  0.00    +0.000 A 
ATOM      7  C   UNL     1       2.923   4.096  18.868  0.00  0.00    +0.000 A 
ATOM      8  C   UNL     1       3.713   4.837  17.942  0.00  0.00    +0.000 A 
ATOM      9  C   UNL     1       4.659   4.477  16.957  0.00  0.00    +0.000 A 
ATOM     10  C   UNL     1       5.262   5.468  16.176  0.00  0.00    +0.000 A 
ATOM     11  C   UNL     1       4.936   6.809  16.364  0.00  0.00    +0.000 A 
ATOM     12  C   UNL     1       4.001   7.188  17.331  0.00  0.00    +0.000 A 
ATOM     13  C   UNL     1       3.397   6.183  18.107  0.00  0.00    +0.000 A 
ENDROOT
BRANCH   1  15
ATOM     14  C   UNL     1       1.593   7.646  20.730  0.00  0.00    +0.000 C 
ATOM     15  N   UNL     1       1.930   7.497  19.491  0.00  0.00    +0.000 NA
BRANCH  14  19
ATOM     16  C   UNL     1      -0.341  11.182  22.097  0.00  0.00    +0.000 A 
ATOM     17  C   UNL     1       0.281  11.188  20.853  0.00  0.00    +0.000 A 
ATOM     18  C   UNL     1       0.915  10.030  20.399  0.00  0.00    +0.000 A 
ATOM     19  C   UNL     1       0.927   8.881  21.197  0.00  0.00    +0.000 A 
ATOM     20  C   UNL     1       0.298   8.882  22.446  0.00  0.00    +0.000 A 
ATOM     21  C   UNL     1      -0.341  10.041  22.894  0.00  0.00    +0.000 A 
BRANCH  16  22
ATOM     22  O   UNL     1      -0.973  12.291  22.579  0.00  0.00    +0.000 OA
ATOM     23  H   UNL     1      -1.285  12.105  23.480  0.00  0.00    +0.000 HD
ENDBRANCH  16  22
ENDBRANCH  14  19
ENDBRANCH   1  15
TORSDOF 3
ENDMDL
