MODEL 1
REMARK VINA RESULT:      -7.1      0.000      0.000
REMARK  Name = 
REMARK  10 active torsions:
REMARK  status: ('A' for Active; 'I' for Inactive)
REMARK    1  A    between atoms: C_1  and  C_2
REMARK    2  A    between atoms: C_4  and  C_5
REMARK    3  A    between atoms: C_6  and  N_7
REMARK    4  A    between atoms: C_8  and  C_10
REMARK    5  A    between atoms: C_18  and  O_20
REMARK    6  A    between atoms: O_20  and  C_21
REMARK    7  A    between atoms: C_21  and  C_22
REMARK    8  A    between atoms: C_21  and  C_23
REMARK    9  A    between atoms: C_21  and  C_24
REMARK   10  A    between atoms: C_27  and  C_28
REMARK                            x       y       z     vdW  Elec       q    Type
REMARK                         _______ _______ _______ _____ _____    ______ ____
ROOT
ATOM      1  C   UNL     1       0.144  11.244  20.892  0.00  0.00    +0.000 A 
ATOM      2  C   UNL     1      -0.444  11.427  22.158  0.00  0.00    +0.000 A 
ATOM      3  C   UNL     1      -0.540  10.378  23.068  0.00  0.00    +0.000 A 
ATOM      4  C   UNL     1      -0.058   9.108  22.735  0.00  0.00    +0.000 A 
ATOM      5  C   UNL     1       0.551   8.891  21.481  0.00  0.00    +0.000 A 
ATOM      6  N   UNL     1       1.062   7.675  21.029  0.00  0.00    +0.000 NA
ATOM      7  C   UNL     1       1.608   7.840  19.851  0.00  0.00    +0.000 A 
ATOM      8  N   UNL     1       2.231   6.836  19.145  0.00  0.00    +0.000 N 
ATOM      9  C   UNL     1       3.116   7.071  18.130  0.00  0.00    +0.000 C 
ATOM     10  O   UNL     1       3.542   8.172  17.791  0.00  0.00    +0.000 OA
ATOM     11  S   UNL     1       1.397   9.382  19.156  0.00  0.00    +0.000 S 
ATOM     12  C   UNL     1       0.649   9.964  20.583  0.00  0.00    +0.000 A 
ATOM     13  H   UNL     1       2.148   5.898  19.501  0.00  0.00    +0.000 HD
ENDROOT
BRANCH   1  15
ATOM     14  N   UNL     1       0.628  13.579  20.344  0.00  0.00    +0.000 N 
ATOM     15  C   UNL     1       0.118  12.367  19.909  0.00  0.00    +0.000 C 
ATOM     16  O   UNL     1      -0.421  12.171  18.823  0.00  0.00    +0.000 OA
ATOM     17  H   UNL     1       0.659  13.711  21.345  0.00  0.00    +0.000 HD
BRANCH  14  23
ATOM     18  C   UNL     1       0.613  18.440  17.275  0.00  0.00    +0.000 C 
ATOM     19  C   UNL     1       0.612  17.162  18.065  0.00  0.00    +0.000 A 
ATOM     20  C   UNL     1      -0.475  16.810  18.868  0.00  0.00    +0.000 A 
ATOM     21  C   UNL     1      -0.468  15.621  19.622  0.00  0.00    +0.000 A 
ATOM     22  C   UNL     1      -1.692  15.276  20.426  0.00  0.00    +0.000 C 
ATOM     23  C   UNL     1       0.647  14.757  19.555  0.00  0.00    +0.000 A 
ATOM     24  C   UNL     1       1.769  15.129  18.784  0.00  0.00    +0.000 A 
ATOM     25  C   UNL     1       3.060  14.356  18.766  0.00  0.00    +0.000 C 
ATOM     26  C   UNL     1       1.722  16.317  18.030  0.00  0.00    +0.000 A 
ENDBRANCH  14  23
ENDBRANCH   1  15
BRANCH   9  27
ATOM     27  O   UNL     1       3.513   5.907  17.544  0.00  0.00    +0.000 OA
BRANCH  27  28
ATOM     28  C   UNL     1       4.906   5.508  17.714  0.00  0.00    +0.000 C 
ATOM     29  C   UNL     1       5.271   5.379  19.203  0.00  0.00    +0.000 C 
ATOM     30  C   UNL     1       5.050   4.114  17.079  0.00  0.00    +0.000 C 
ATOM     31  C   UNL     1       5.853   6.457  16.961  0.00  0.00    +0.000 C 
ENDBRANCH  27  28
ENDBRANCH   9  27
TORSDOF 4
ENDMDL
MODEL 2
REMARK VINA RESULT:      -7.1      0.208      1.625
REMARK  Name = 
REMARK  10 active torsions:
REMARK  status: ('A' for Active; 'I' for Inactive)
REMARK    1  A    between atoms: C_1  and  C_2
REMARK    2  A    between atoms: C_4  and  C_5
REMARK    3  A    between atoms: C_6  and  N_7
REMARK    4  A    between atoms: C_8  and  C_10
REMARK    5  A    between atoms: C_18  and  O_20
REMARK    6  A    between atoms: O_20  and  C_21
REMARK    7  A    between atoms: C_21  and  C_22
REMARK    8  A    between atoms: C_21  and  C_23
REMARK    9  A    between atoms: C_21  and  C_24
REMARK   10  A    between atoms: C_27  and  C_28
REMARK                            x       y       z     vdW  Elec       q    Type
REMARK                         _______ _______ _______ _____ _____    ______ ____
ROOT
ATOM      1  C   UNL     1       0.159  11.256  20.914  0.00  0.00    +0.000 A 
ATOM      2  C   UNL     1      -0.440  11.436  22.175  0.00  0.00    +0.000 A 
ATOM      3  C   UNL     1      -0.560  10.381  23.075  0.00  0.00    +0.000 A 
ATOM      4  C   UNL     1      -0.091   9.107  22.736  0.00  0.00    +0.000 A 
ATOM      5  C   UNL     1       0.529   8.893  21.488  0.00  0.00    +0.000 A 
ATOM      6  N   UNL     1       1.029   7.674  21.030  0.00  0.00    +0.000 NA
ATOM      7  C   UNL     1       1.591   7.843  19.860  0.00  0.00    +0.000 A 
ATOM      8  N   UNL     1       2.208   6.836  19.152  0.00  0.00    +0.000 N 
ATOM      9  C   UNL     1       3.108   7.069  18.149  0.00  0.00    +0.000 C 
ATOM     10  O   UNL     1       3.551   8.167  17.825  0.00  0.00    +0.000 OA
ATOM     11  S   UNL     1       1.408   9.393  19.176  0.00  0.00    +0.000 S 
ATOM     12  C   UNL     1       0.650   9.973  20.600  0.00  0.00    +0.000 A 
ATOM     13  H   UNL     1       2.109   5.897  19.499  0.00  0.00    +0.000 HD
ENDROOT
BRANCH   1  15
ATOM     14  N   UNL     1       0.772  13.558  20.356  0.00  0.00    +0.000 N 
ATOM     15  C   UNL     1       0.158  12.388  19.941  0.00  0.00    +0.000 C 
ATOM     16  O   UNL     1      -0.448  12.240  18.884  0.00  0.00    +0.000 OA
ATOM     17  H   UNL     1       0.864  13.678  21.355  0.00  0.00    +0.000 HD
BRANCH  14  23
ATOM     18  C   UNL     1       1.092  18.256  17.058  0.00  0.00    +0.000 C 
ATOM     19  C   UNL     1       1.014  17.036  17.931  0.00  0.00    +0.000 A 
ATOM     20  C   UNL     1       2.049  16.098  17.957  0.00  0.00    +0.000 A 
ATOM     21  C   UNL     1       1.967  14.946  18.762  0.00  0.00    +0.000 A 
ATOM     22  C   UNL     1       3.138  14.002  18.783  0.00  0.00    +0.000 C 
ATOM     23  C   UNL     1       0.830  14.739  19.574  0.00  0.00    +0.000 A 
ATOM     24  C   UNL     1      -0.241  15.657  19.517  0.00  0.00    +0.000 A 
ATOM     25  C   UNL     1      -1.553  15.451  20.224  0.00  0.00    +0.000 C 
ATOM     26  C   UNL     1      -0.119  16.807  18.713  0.00  0.00    +0.000 A 
ENDBRANCH  14  23
ENDBRANCH   1  15
BRANCH   9  27
ATOM     27  O   UNL     1       3.496   5.905  17.557  0.00  0.00    +0.000 OA
BRANCH  27  28
ATOM     28  C   UNL     1       4.888   5.500  17.715  0.00  0.00    +0.000 C 
ATOM     29  C   UNL     1       5.254   5.329  19.200  0.00  0.00    +0.000 C 
ATOM     30  C   UNL     1       5.032   4.125  17.042  0.00  0.00    +0.000 C 
ATOM     31  C   UNL     1       5.836   6.470  16.990  0.00  0.00    +0.000 C 
ENDBRANCH  27  28
ENDBRANCH   9  27
TORSDOF 4
ENDMDL
MODEL 3
REMARK VINA RESULT:      -7.0      3.290      6.193
REMARK  Name = 
REMARK  10 active torsions:
REMARK  status: ('A' for Active; 'I' for Inactive)
REMARK    1  A    between atoms: C_1  and  C_2
REMARK    2  A    between atoms: C_4  and  C_5
REMARK    3  A    between atoms: C_6  and  N_7
REMARK    4  A    between atoms: C_8  and  C_10
REMARK    5  A    between atoms: C_18  and  O_20
REMARK    6  A    between atoms: O_20  and  C_21
REMARK    7  A    between atoms: C_21  and  C_22
REMARK    8  A    between atoms: C_21  and  C_23
REMARK    9  A    between atoms: C_21  and  C_24
REMARK   10  A    between atoms: C_27  and  C_28
REMARK                            x       y       z     vdW  Elec       q    Type
REMARK                         _______ _______ _______ _____ _____    ______ ____
ROOT
ATOM      1  C   UNL     1       2.257   4.841  20.634  0.00  0.00    +0.000 A 
ATOM      2  C   UNL     1       1.858   3.960  21.656  0.00  0.00    +0.000 A 
ATOM      3  C   UNL     1       2.463   2.716  21.814  0.00  0.00    +0.000 A 
ATOM      4  C   UNL     1       3.482   2.311  20.946  0.00  0.00    +0.000 A 
ATOM      5  C   UNL     1       3.920   3.175  19.920  0.00  0.00    +0.000 A 
ATOM      6  N   UNL     1       4.918   2.887  18.989  0.00  0.00    +0.000 NA
ATOM      7  C   UNL     1       5.113   3.929  18.220  0.00  0.00    +0.000 A 
ATOM      8  N   UNL     1       6.056   3.978  17.219  0.00  0.00    +0.000 N 
ATOM      9  C   UNL     1       6.522   5.147  16.686  0.00  0.00    +0.000 C 
ATOM     10  O   UNL     1       6.252   6.276  17.087  0.00  0.00    +0.000 OA
ATOM     11  S   UNL     1       4.024   5.220  18.446  0.00  0.00    +0.000 S 
ATOM     12  C   UNL     1       3.304   4.429  19.785  0.00  0.00    +0.000 A 
ATOM     13  H   UNL     1       6.530   3.121  16.986  0.00  0.00    +0.000 HD
ENDROOT
BRANCH   1  15
ATOM     14  N   UNL     1       2.254   7.262  20.277  0.00  0.00    +0.000 N 
ATOM     15  C   UNL     1       1.499   6.111  20.433  0.00  0.00    +0.000 C 
ATOM     16  O   UNL     1       0.274   6.069  20.499  0.00  0.00    +0.000 OA
ATOM     17  H   UNL     1       3.198   7.222  20.638  0.00  0.00    +0.000 HD
BRANCH  14  23
ATOM     18  C   UNL     1      -0.075  12.454  19.462  0.00  0.00    +0.000 C 
ATOM     19  C   UNL     1       0.547  11.103  19.678  0.00  0.00    +0.000 A 
ATOM     20  C   UNL     1       1.018  10.345  18.604  0.00  0.00    +0.000 A 
ATOM     21  C   UNL     1       1.585   9.072  18.804  0.00  0.00    +0.000 A 
ATOM     22  C   UNL     1       2.119   8.330  17.611  0.00  0.00    +0.000 C 
ATOM     23  C   UNL     1       1.698   8.556  20.115  0.00  0.00    +0.000 A 
ATOM     24  C   UNL     1       1.180   9.294  21.200  0.00  0.00    +0.000 A 
ATOM     25  C   UNL     1       1.115   8.770  22.608  0.00  0.00    +0.000 C 
ATOM     26  C   UNL     1       0.635  10.571  20.965  0.00  0.00    +0.000 A 
ENDBRANCH  14  23
ENDBRANCH   1  15
BRANCH   9  27
ATOM     27  O   UNL     1       7.377   4.910  15.652  0.00  0.00    +0.000 OA
BRANCH  27  28
ATOM     28  C   UNL     1       6.828   4.949  14.301  0.00  0.00    +0.000 C 
ATOM     29  C   UNL     1       7.888   5.401  13.281  0.00  0.00    +0.000 C 
ATOM     30  C   UNL     1       6.424   3.509  13.942  0.00  0.00    +0.000 C 
ATOM     31  C   UNL     1       5.556   5.812  14.242  0.00  0.00    +0.000 C 
ENDBRANCH  27  28
ENDBRANCH   9  27
TORSDOF 4
ENDMDL
MODEL 4
REMARK VINA RESULT:      -6.7      3.189      6.124
REMARK  Name = 
REMARK  10 active torsions:
REMARK  status: ('A' for Active; 'I' for Inactive)
REMARK    1  A    between atoms: C_1  and  C_2
REMARK    2  A    between atoms: C_4  and  C_5
REMARK    3  A    between atoms: C_6  and  N_7
REMARK    4  A    between atoms: C_8  and  C_10
REMARK    5  A    between atoms: C_18  and  O_20
REMARK    6  A    between atoms: O_20  and  C_21
REMARK    7  A    between atoms: C_21  and  C_22
REMARK    8  A    between atoms: C_21  and  C_23
REMARK    9  A    between atoms: C_21  and  C_24
REMARK   10  A    between atoms: C_27  and  C_28
REMARK                            x       y       z     vdW  Elec       q    Type
REMARK                         _______ _______ _______ _____ _____    ______ ____
ROOT
ATOM      1  C   UNL     1       1.996   5.054  20.157  0.00  0.00    +0.000 A 
ATOM      2  C   UNL     1       1.094   4.188  20.802  0.00  0.00    +0.000 A 
ATOM      3  C   UNL     1       1.046   2.832  20.491  0.00  0.00    +0.000 A 
ATOM      4  C   UNL     1       1.896   2.301  19.516  0.00  0.00    +0.000 A 
ATOM      5  C   UNL     1       2.825   3.136  18.860  0.00  0.00    +0.000 A 
ATOM      6  N   UNL     1       3.718   2.731  17.868  0.00  0.00    +0.000 NA
ATOM      7  C   UNL     1       4.474   3.742  17.520  0.00  0.00    +0.000 A 
ATOM      8  N   UNL     1       5.480   3.662  16.584  0.00  0.00    +0.000 N 
ATOM      9  C   UNL     1       6.497   4.573  16.498  0.00  0.00    +0.000 C 
ATOM     10  O   UNL     1       6.702   5.494  17.282  0.00  0.00    +0.000 OA
ATOM     11  S   UNL     1       4.058   5.241  18.216  0.00  0.00    +0.000 S 
ATOM     12  C   UNL     1       2.865   4.497  19.196  0.00  0.00    +0.000 A 
ATOM     13  H   UNL     1       5.551   2.812  16.051  0.00  0.00    +0.000 HD
ENDROOT
BRANCH   1  15
ATOM     14  N   UNL     1       1.215   7.289  19.537  0.00  0.00    +0.000 N 
ATOM     15  C   UNL     1       1.928   6.517  20.440  0.00  0.00    +0.000 C 
ATOM     16  O   UNL     1       2.566   6.950  21.396  0.00  0.00    +0.000 OA
ATOM     17  H   UNL     1       1.093   6.889  18.617  0.00  0.00    +0.000 HD
BRANCH  14  23
ATOM     18  C   UNL     1       0.660  13.007  19.748  0.00  0.00    +0.000 C 
ATOM     19  C   UNL     1       0.817  11.513  19.702  0.00  0.00    +0.000 A 
ATOM     20  C   UNL     1       1.520  10.892  18.668  0.00  0.00    +0.000 A 
ATOM     21  C   UNL     1       1.653   9.492  18.616  0.00  0.00    +0.000 A 
ATOM     22  C   UNL     1       2.466   8.890  17.503  0.00  0.00    +0.000 C 
ATOM     23  C   UNL     1       1.081   8.697  19.634  0.00  0.00    +0.000 A 
ATOM     24  C   UNL     1       0.327   9.312  20.655  0.00  0.00    +0.000 A 
ATOM     25  C   UNL     1      -0.445   8.548  21.696  0.00  0.00    +0.000 C 
ATOM     26  C   UNL     1       0.229  10.717  20.687  0.00  0.00    +0.000 A 
ENDBRANCH  14  23
ENDBRANCH   1  15
BRANCH   9  27
ATOM     27  O   UNL     1       7.302   4.310  15.431  0.00  0.00    +0.000 OA
BRANCH  27  28
ATOM     28  C   UNL     1       6.839   4.740  14.116  0.00  0.00    +0.000 C 
ATOM     29  C   UNL     1       6.288   3.554  13.304  0.00  0.00    +0.000 C 
ATOM     30  C   UNL     1       5.676   5.719  14.351  0.00  0.00    +0.000 C 
ATOM     31  C   UNL     1       7.938   5.504  13.359  0.00  0.00    +0.000 C 
ENDBRANCH  27  28
ENDBRANCH   9  27
TORSDOF 4
ENDMDL
MODEL 5
REMARK VINA RESULT:      -6.7      3.288      6.084
REMARK  Name = 
REMARK  10 active torsions:
REMARK  status: ('A' for Active; 'I' for Inactive)
REMARK    1  A    between atoms: C_1  and  C_2
REMARK    2  A    between atoms: C_4  and  C_5
REMARK    3  A    between atoms: C_6  and  N_7
REMARK    4  A    between atoms: C_8  and  C_10
REMARK    5  A    between atoms: C_18  and  O_20
REMARK    6  A    between atoms: O_20  and  C_21
REMARK    7  A    between atoms: C_21  and  C_22
REMARK    8  A    between atoms: C_21  and  C_23
REMARK    9  A    between atoms: C_21  and  C_24
REMARK   10  A    between atoms: C_27  and  C_28
REMARK                            x       y       z     vdW  Elec       q    Type
REMARK                         _______ _______ _______ _____ _____    ______ ____
ROOT
ATOM      1  C   UNL     1       2.252   4.843  20.618  0.00  0.00    +0.000 A 
ATOM      2  C   UNL     1       1.867   3.965  21.649  0.00  0.00    +0.000 A 
ATOM      3  C   UNL     1       2.493   2.734  21.821  0.00  0.00    +0.000 A 
ATOM      4  C   UNL     1       3.520   2.338  20.958  0.00  0.00    +0.000 A 
ATOM      5  C   UNL     1       3.944   3.198  19.923  0.00  0.00    +0.000 A 
ATOM      6  N   UNL     1       4.947   2.917  18.997  0.00  0.00    +0.000 NA
ATOM      7  C   UNL     1       5.125   3.954  18.217  0.00  0.00    +0.000 A 
ATOM      8  N   UNL     1       6.068   4.008  17.215  0.00  0.00    +0.000 N 
ATOM      9  C   UNL     1       6.515   5.180  16.671  0.00  0.00    +0.000 C 
ATOM     10  O   UNL     1       6.225   6.308  17.059  0.00  0.00    +0.000 OA
ATOM     11  S   UNL     1       4.014   5.229  18.428  0.00  0.00    +0.000 S 
ATOM     12  C   UNL     1       3.307   4.439  19.775  0.00  0.00    +0.000 A 
ATOM     13  H   UNL     1       6.557   3.158  16.992  0.00  0.00    +0.000 HD
ENDROOT
BRANCH   1  15
ATOM     14  N   UNL     1       2.208   7.263  20.261  0.00  0.00    +0.000 N 
ATOM     15  C   UNL     1       1.473   6.098  20.403  0.00  0.00    +0.000 C 
ATOM     16  O   UNL     1       0.248   6.031  20.447  0.00  0.00    +0.000 OA
ATOM     17  H   UNL     1       3.145   7.242  20.640  0.00  0.00    +0.000 HD
BRANCH  14  23
ATOM     18  C   UNL     1      -0.060  12.517  19.713  0.00  0.00    +0.000 C 
ATOM     19  C   UNL     1       0.519  11.138  19.854  0.00  0.00    +0.000 A 
ATOM     20  C   UNL     1       0.674  10.545  21.109  0.00  0.00    +0.000 A 
ATOM     21  C   UNL     1       1.233   9.259  21.242  0.00  0.00    +0.000 A 
ATOM     22  C   UNL     1       1.325   8.657  22.617  0.00  0.00    +0.000 C 
ATOM     23  C   UNL     1       1.629   8.546  20.088  0.00  0.00    +0.000 A 
ATOM     24  C   UNL     1       1.521   9.158  18.822  0.00  0.00    +0.000 A 
ATOM     25  C   UNL     1       2.051   8.546  17.553  0.00  0.00    +0.000 C 
ATOM     26  C   UNL     1       0.942  10.438  18.723  0.00  0.00    +0.000 A 
ENDBRANCH  14  23
ENDBRANCH   1  15
BRANCH   9  27
ATOM     27  O   UNL     1       7.375   4.946  15.640  0.00  0.00    +0.000 OA
BRANCH  27  28
ATOM     28  C   UNL     1       6.826   4.962  14.288  0.00  0.00    +0.000 C 
ATOM     29  C   UNL     1       7.886   5.400  13.262  0.00  0.00    +0.000 C 
ATOM     30  C   UNL     1       6.427   3.515  13.953  0.00  0.00    +0.000 C 
ATOM     31  C   UNL     1       5.552   5.820  14.214  0.00  0.00    +0.000 C 
ENDBRANCH  27  28
ENDBRANCH   9  27
TORSDOF 4
ENDMDL
MODEL 6
REMARK VINA RESULT:      -6.6      2.980      5.709
REMARK  Name = 
REMARK  10 active torsions:
REMARK  status: ('A' for Active; 'I' for Inactive)
REMARK    1  A    between atoms: C_1  and  C_2
REMARK    2  A    between atoms: C_4  and  C_5
REMARK    3  A    between atoms: C_6  and  N_7
REMARK    4  A    between atoms: C_8  and  C_10
REMARK    5  A    between atoms: C_18  and  O_20
REMARK    6  A    between atoms: O_20  and  C_21
REMARK    7  A    between atoms: C_21  and  C_22
REMARK    8  A    between atoms: C_21  and  C_23
REMARK    9  A    between atoms: C_21  and  C_24
REMARK   10  A    between atoms: C_27  and  C_28
REMARK                            x       y       z     vdW  Elec       q    Type
REMARK                         _______ _______ _______ _____ _____    ______ ____
ROOT
ATOM      1  C   UNL     1       2.209   5.773  19.899  0.00  0.00    +0.000 A 
ATOM      2  C   UNL     1       1.400   5.091  20.826  0.00  0.00    +0.000 A 
ATOM      3  C   UNL     1       1.359   3.700  20.863  0.00  0.00    +0.000 A 
ATOM      4  C   UNL     1       2.123   2.947  19.965  0.00  0.00    +0.000 A 
ATOM      5  C   UNL     1       2.959   3.596  19.033  0.00  0.00    +0.000 A 
ATOM      6  N   UNL     1       3.760   2.962  18.084  0.00  0.00    +0.000 NA
ATOM      7  C   UNL     1       4.449   3.858  17.423  0.00  0.00    +0.000 A 
ATOM      8  N   UNL     1       5.360   3.552  16.437  0.00  0.00    +0.000 N 
ATOM      9  C   UNL     1       6.337   4.416  16.026  0.00  0.00    +0.000 C 
ATOM     10  O   UNL     1       6.593   5.503  16.536  0.00  0.00    +0.000 OA
ATOM     11  S   UNL     1       4.063   5.481  17.770  0.00  0.00    +0.000 S 
ATOM     12  C   UNL     1       2.994   4.999  19.020  0.00  0.00    +0.000 A 
ATOM     13  H   UNL     1       5.400   2.597  16.123  0.00  0.00    +0.000 HD
ENDROOT
BRANCH   1  15
ATOM     14  N   UNL     1       0.971   7.843  20.310  0.00  0.00    +0.000 N 
ATOM     15  C   UNL     1       2.129   7.261  19.821  0.00  0.00    +0.000 C 
ATOM     16  O   UNL     1       3.045   7.860  19.264  0.00  0.00    +0.000 OA
ATOM     17  H   UNL     1       0.162   7.240  20.360  0.00  0.00    +0.000 HD
BRANCH  14  23
ATOM     18  C   UNL     1       0.047  13.517  20.322  0.00  0.00    +0.000 C 
ATOM     19  C   UNL     1       0.274  12.032  20.319  0.00  0.00    +0.000 A 
ATOM     20  C   UNL     1       0.511  11.335  21.506  0.00  0.00    +0.000 A 
ATOM     21  C   UNL     1       0.740   9.946  21.501  0.00  0.00    +0.000 A 
ATOM     22  C   UNL     1       0.938   9.248  22.819  0.00  0.00    +0.000 C 
ATOM     23  C   UNL     1       0.714   9.237  20.279  0.00  0.00    +0.000 A 
ATOM     24  C   UNL     1       0.525   9.941  19.071  0.00  0.00    +0.000 A 
ATOM     25  C   UNL     1       0.630   9.306  17.712  0.00  0.00    +0.000 C 
ATOM     26  C   UNL     1       0.281  11.328  19.114  0.00  0.00    +0.000 A 
ENDBRANCH  14  23
ENDBRANCH   1  15
BRANCH   9  27
ATOM     27  O   UNL     1       7.039   3.901  14.979  0.00  0.00    +0.000 OA
BRANCH  27  28
ATOM     28  C   UNL     1       6.711   4.387  13.643  0.00  0.00    +0.000 C 
ATOM     29  C   UNL     1       6.284   3.234  12.719  0.00  0.00    +0.000 C 
ATOM     30  C   UNL     1       5.504   5.329  13.796  0.00  0.00    +0.000 C 
ATOM     31  C   UNL     1       7.866   5.212  13.051  0.00  0.00    +0.000 C 
ENDBRANCH  27  28
ENDBRANCH   9  27
TORSDOF 4
ENDMDL
MODEL 7
REMARK VINA RESULT:      -6.6      3.038      5.930
REMARK  Name = 
REMARK  10 active torsions:
REMARK  status: ('A' for Active; 'I' for Inactive)
REMARK    1  A    between atoms: C_1  and  C_2
REMARK    2  A    between atoms: C_4  and  C_5
REMARK    3  A    between atoms: C_6  and  N_7
REMARK    4  A    between atoms: C_8  and  C_10
REMARK    5  A    between atoms: C_18  and  O_20
REMARK    6  A    between atoms: O_20  and  C_21
REMARK    7  A    between atoms: C_21  and  C_22
REMARK    8  A    between atoms: C_21  and  C_23
REMARK    9  A    between atoms: C_21  and  C_24
REMARK   10  A    between atoms: C_27  and  C_28
REMARK                            x       y       z     vdW  Elec       q    Type
REMARK                         _______ _______ _______ _____ _____    ______ ____
ROOT
ATOM      1  C   UNL     1       2.037   5.492  19.964  0.00  0.00    +0.000 A 
ATOM      2  C   UNL     1       1.115   4.774  20.748  0.00  0.00    +0.000 A 
ATOM      3  C   UNL     1       0.940   3.403  20.584  0.00  0.00    +0.000 A 
ATOM      4  C   UNL     1       1.678   2.707  19.621  0.00  0.00    +0.000 A 
ATOM      5  C   UNL     1       2.623   3.390  18.828  0.00  0.00    +0.000 A 
ATOM      6  N   UNL     1       3.413   2.814  17.832  0.00  0.00    +0.000 NA
ATOM      7  C   UNL     1       4.220   3.718  17.336  0.00  0.00    +0.000 A 
ATOM      8  N   UNL     1       5.152   3.460  16.356  0.00  0.00    +0.000 N 
ATOM      9  C   UNL     1       6.228   4.268  16.115  0.00  0.00    +0.000 C 
ATOM     10  O   UNL     1       6.558   5.242  16.785  0.00  0.00    +0.000 OA
ATOM     11  S   UNL     1       3.971   5.308  17.896  0.00  0.00    +0.000 S 
ATOM     12  C   UNL     1       2.792   4.770  19.017  0.00  0.00    +0.000 A 
ATOM     13  H   UNL     1       5.119   2.558  15.911  0.00  0.00    +0.000 HD
ENDROOT
BRANCH   1  15
ATOM     14  N   UNL     1       0.893   7.645  20.170  0.00  0.00    +0.000 N 
ATOM     15  C   UNL     1       2.104   6.977  20.096  0.00  0.00    +0.000 C 
ATOM     16  O   UNL     1       3.208   7.511  20.050  0.00  0.00    +0.000 OA
ATOM     17  H   UNL     1       0.093   7.150  19.799  0.00  0.00    +0.000 HD
BRANCH  14  23
ATOM     18  C   UNL     1       0.333  13.363  20.371  0.00  0.00    +0.000 C 
ATOM     19  C   UNL     1       0.493  11.869  20.322  0.00  0.00    +0.000 A 
ATOM     20  C   UNL     1       0.820  11.216  19.132  0.00  0.00    +0.000 A 
ATOM     21  C   UNL     1       0.953   9.815  19.084  0.00  0.00    +0.000 A 
ATOM     22  C   UNL     1       1.356   9.178  17.782  0.00  0.00    +0.000 C 
ATOM     23  C   UNL     1       0.772   9.054  20.260  0.00  0.00    +0.000 A 
ATOM     24  C   UNL     1       0.394   9.702  21.455  0.00  0.00    +0.000 A 
ATOM     25  C   UNL     1       0.032   8.972  22.720  0.00  0.00    +0.000 C 
ATOM     26  C   UNL     1       0.286  11.106  21.472  0.00  0.00    +0.000 A 
ENDBRANCH  14  23
ENDBRANCH   1  15
BRANCH   9  27
ATOM     27  O   UNL     1       6.936   3.833  15.035  0.00  0.00    +0.000 OA
BRANCH  27  28
ATOM     28  C   UNL     1       6.582   4.383  13.731  0.00  0.00    +0.000 C 
ATOM     29  C   UNL     1       5.466   5.436  13.855  0.00  0.00    +0.000 C 
ATOM     30  C   UNL     1       7.834   5.096  13.194  0.00  0.00    +0.000 C 
ATOM     31  C   UNL     1       6.223   3.268  12.734  0.00  0.00    +0.000 C 
ENDBRANCH  27  28
ENDBRANCH   9  27
TORSDOF 4
ENDMDL
MODEL 8
REMARK VINA RESULT:      -6.6      2.869      9.238
REMARK  Name = 
REMARK  10 active torsions:
REMARK  status: ('A' for Active; 'I' for Inactive)
REMARK    1  A    between atoms: C_1  and  C_2
REMARK    2  A    between atoms: C_4  and  C_5
REMARK    3  A    between atoms: C_6  and  N_7
REMARK    4  A    between atoms: C_8  and  C_10
REMARK    5  A    between atoms: C_18  and  O_20
REMARK    6  A    between atoms: O_20  and  C_21
REMARK    7  A    between atoms: C_21  and  C_22
REMARK    8  A    between atoms: C_21  and  C_23
REMARK    9  A    between atoms: C_21  and  C_24
REMARK   10  A    between atoms: C_27  and  C_28
REMARK                            x       y       z     vdW  Elec       q    Type
REMARK                         _______ _______ _______ _____ _____    ______ ____
ROOT
ATOM      1  C   UNL     1       1.554  11.337  18.766  0.00  0.00    +0.000 A 
ATOM      2  C   UNL     1       2.475  11.909  17.869  0.00  0.00    +0.000 A 
ATOM      3  C   UNL     1       2.665  13.286  17.810  0.00  0.00    +0.000 A 
ATOM      4  C   UNL     1       1.930  14.137  18.643  0.00  0.00    +0.000 A 
ATOM      5  C   UNL     1       1.010  13.598  19.566  0.00  0.00    +0.000 A 
ATOM      6  N   UNL     1       0.215  14.337  20.442  0.00  0.00    +0.000 NA
ATOM      7  C   UNL     1      -0.478  13.522  21.197  0.00  0.00    +0.000 A 
ATOM      8  N   UNL     1      -1.337  13.938  22.189  0.00  0.00    +0.000 N 
ATOM      9  C   UNL     1      -1.753  13.127  23.208  0.00  0.00    +0.000 C 
ATOM     10  O   UNL     1      -1.349  11.990  23.430  0.00  0.00    +0.000 OA
ATOM     11  S   UNL     1      -0.352  11.869  20.799  0.00  0.00    +0.000 S 
ATOM     12  C   UNL     1       0.842  12.206  19.617  0.00  0.00    +0.000 A 
ATOM     13  H   UNL     1      -1.537  14.922  22.247  0.00  0.00    +0.000 HD
ENDROOT
BRANCH   1  15
ATOM     14  N   UNL     1       2.167   9.064  19.436  0.00  0.00    +0.000 N 
ATOM     15  C   UNL     1       1.302   9.867  18.710  0.00  0.00    +0.000 C 
ATOM     16  O   UNL     1       0.410   9.462  17.970  0.00  0.00    +0.000 OA
ATOM     17  H   UNL     1       3.065   9.471  19.657  0.00  0.00    +0.000 HD
BRANCH  14  23
ATOM     18  C   UNL     1       2.048   3.317  19.493  0.00  0.00    +0.000 C 
ATOM     19  C   UNL     1       2.066   4.819  19.470  0.00  0.00    +0.000 A 
ATOM     20  C   UNL     1       2.787   5.518  18.500  0.00  0.00    +0.000 A 
ATOM     21  C   UNL     1       2.819   6.926  18.489  0.00  0.00    +0.000 A 
ATOM     22  C   UNL     1       3.572   7.617  17.387  0.00  0.00    +0.000 C 
ATOM     23  C   UNL     1       2.095   7.649  19.464  0.00  0.00    +0.000 A 
ATOM     24  C   UNL     1       1.404   6.950  20.476  0.00  0.00    +0.000 A 
ATOM     25  C   UNL     1       0.732   7.623  21.642  0.00  0.00    +0.000 C 
ATOM     26  C   UNL     1       1.380   5.542  20.447  0.00  0.00    +0.000 A 
ENDBRANCH  14  23
ENDBRANCH   1  15
BRANCH   9  27
ATOM     27  O   UNL     1      -2.669  13.758  23.996  0.00  0.00    +0.000 OA
BRANCH  27  28
ATOM     28  C   UNL     1      -4.078  13.474  23.751  0.00  0.00    +0.000 C 
ATOM     29  C   UNL     1      -4.284  12.818  22.374  0.00  0.00    +0.000 C 
ATOM     30  C   UNL     1      -4.520  12.458  24.817  0.00  0.00    +0.000 C 
ATOM     31  C   UNL     1      -4.940  14.735  23.930  0.00  0.00    +0.000 C 
ENDBRANCH  27  28
ENDBRANCH   9  27
TORSDOF 4
ENDMDL
MODEL 9
REMARK VINA RESULT:      -6.5      2.951      9.303
REMARK  Name = 
REMARK  10 active torsions:
REMARK  status: ('A' for Active; 'I' for Inactive)
REMARK    1  A    between atoms: C_1  and  C_2
REMARK    2  A    between atoms: C_4  and  C_5
REMARK    3  A    between atoms: C_6  and  N_7
REMARK    4  A    between atoms: C_8  and  C_10
REMARK    5  A    between atoms: C_18  and  O_20
REMARK    6  A    between atoms: O_20  and  C_21
REMARK    7  A    between atoms: C_21  and  C_22
REMARK    8  A    between atoms: C_21  and  C_23
REMARK    9  A    between atoms: C_21  and  C_24
REMARK   10  A    between atoms: C_27  and  C_28
REMARK                            x       y       z     vdW  Elec       q    Type
REMARK                         _______ _______ _______ _____ _____    ______ ____
ROOT
ATOM      1  C   UNL     1       1.239  11.568  18.774  0.00  0.00    +0.000 A 
ATOM      2  C   UNL     1       2.367  12.177  18.192  0.00  0.00    +0.000 A 
ATOM      3  C   UNL     1       2.475  13.562  18.105  0.00  0.00    +0.000 A 
ATOM      4  C   UNL     1       1.452  14.382  18.591  0.00  0.00    +0.000 A 
ATOM      5  C   UNL     1       0.314  13.808  19.195  0.00  0.00    +0.000 A 
ATOM      6  N   UNL     1      -0.774  14.513  19.709  0.00  0.00    +0.000 NA
ATOM      7  C   UNL     1      -1.624  13.676  20.249  0.00  0.00    +0.000 A 
ATOM      8  N   UNL     1      -2.789  14.060  20.873  0.00  0.00    +0.000 N 
ATOM      9  C   UNL     1      -3.466  13.261  21.751  0.00  0.00    +0.000 C 
ATOM     10  O   UNL     1      -3.085  12.172  22.170  0.00  0.00    +0.000 OA
ATOM     11  S   UNL     1      -1.265  12.025  20.027  0.00  0.00    +0.000 S 
ATOM     12  C   UNL     1       0.230  12.410  19.283  0.00  0.00    +0.000 A 
ATOM     13  H   UNL     1      -3.060  15.026  20.795  0.00  0.00    +0.000 HD
ENDROOT
BRANCH   1  15
ATOM     14  N   UNL     1       1.950   9.372  19.587  0.00  0.00    +0.000 N 
ATOM     15  C   UNL     1       1.117  10.081  18.738  0.00  0.00    +0.000 C 
ATOM     16  O   UNL     1       0.355   9.585  17.912  0.00  0.00    +0.000 OA
ATOM     17  H   UNL     1       2.779   9.860  19.899  0.00  0.00    +0.000 HD
BRANCH  14  23
ATOM     18  C   UNL     1       1.947   3.633  19.918  0.00  0.00    +0.000 C 
ATOM     19  C   UNL     1       1.961   5.134  19.839  0.00  0.00    +0.000 A 
ATOM     20  C   UNL     1       1.277   5.912  20.775  0.00  0.00    +0.000 A 
ATOM     21  C   UNL     1       1.275   7.318  20.691  0.00  0.00    +0.000 A 
ATOM     22  C   UNL     1       0.562   8.099  21.759  0.00  0.00    +0.000 C 
ATOM     23  C   UNL     1       1.992   7.957  19.654  0.00  0.00    +0.000 A 
ATOM     24  C   UNL     1       2.644   7.176  18.676  0.00  0.00    +0.000 A 
ATOM     25  C   UNL     1       3.304   7.754  17.454  0.00  0.00    +0.000 C 
ATOM     26  C   UNL     1       2.639   5.773  18.800  0.00  0.00    +0.000 A 
ENDBRANCH  14  23
ENDBRANCH   1  15
BRANCH   9  27
ATOM     27  O   UNL     1      -4.630  13.846  22.150  0.00  0.00    +0.000 OA
BRANCH  27  28
ATOM     28  C   UNL     1      -4.816  14.070  23.580  0.00  0.00    +0.000 C 
ATOM     29  C   UNL     1      -3.541  14.639  24.226  0.00  0.00    +0.000 C 
ATOM     30  C   UNL     1      -5.921  15.130  23.725  0.00  0.00    +0.000 C 
ATOM     31  C   UNL     1      -5.308  12.794  24.284  0.00  0.00    +0.000 C 
ENDBRANCH  27  28
ENDBRANCH   9  27
TORSDOF 4
ENDMDL
