MODEL 1
REMARK VINA RESULT:      -8.1      0.000      0.000
REMARK  Name = 
REMARK  4 active torsions:
REMARK  status: ('A' for Active; 'I' for Inactive)
REMARK    1  A    between atoms: O_1  and  C_2
REMARK    2  A    between atoms: C_2  and  C_3
REMARK    3  A    between atoms: N_12  and  C_13
REMARK    4  A    between atoms: C_13  and  C_14
REMARK                            x       y       z     vdW  Elec       q    Type
REMARK                         _______ _______ _______ _____ _____    ______ ____
ROOT
ATOM      1  C   UNL     1       2.819   6.506  19.225  0.00  0.00    +0.000 C 
ATOM      2  C   UNL     1       2.164   5.554  18.209  0.00  0.00    +0.000 C 
ATOM      3  C   UNL     1       3.147   4.507  17.679  0.00  0.00    +0.000 C 
ATOM      4  N   UNL     1       4.328   5.139  17.062  0.00  0.00    +0.000 NA
ATOM      5  C   UNL     1       5.031   5.948  18.072  0.00  0.00    +0.000 C 
ATOM      6  C   UNL     1       4.132   7.048  18.627  0.00  0.00    +0.000 C 
ENDROOT
BRANCH   1   7
ATOM      7  C   UNL     1       1.945   7.683  19.677  0.00  0.00    +0.000 A 
ATOM      8  C   UNL     1       1.688   8.737  18.773  0.00  0.00    +0.000 A 
ATOM      9  C   UNL     1       0.805   9.770  19.095  0.00  0.00    +0.000 A 
ATOM     10  C   UNL     1       0.186   9.784  20.337  0.00  0.00    +0.000 A 
ATOM     11 CL   UNL     1      -0.933  11.033  20.726  0.00  0.00    +0.000 Cl
ATOM     12  C   UNL     1       0.462   8.786  21.269  0.00  0.00    +0.000 A 
ATOM     13  C   UNL     1       1.338   7.746  20.941  0.00  0.00    +0.000 A 
ENDBRANCH   1   7
BRANCH   1  14
ATOM     14  O   UNL     1       3.134   5.732  20.395  0.00  0.00    +0.000 OA
ATOM     15  H   UNL     1       3.246   4.810  20.107  0.00  0.00    +0.000 HD
ENDBRANCH   1  14
BRANCH   4  16
ATOM     16  C   UNL     1       5.215   4.074  16.538  0.00  0.00    +0.000 C 
BRANCH  16  17
ATOM     17  C   UNL     1       6.118   4.533  15.424  0.00  0.00    +0.000 A 
ATOM     18  N   UNL     1       7.163   5.334  15.698  0.00  0.00    +0.000 NA
ATOM     19  N   UNL     1       7.801   5.442  14.520  0.00  0.00    +0.000 N 
ATOM     20  C   UNL     1       7.230   4.730  13.501  0.00  0.00    +0.000 A 
ATOM     21  C   UNL     1       7.625   4.527  12.177  0.00  0.00    +0.000 A 
ATOM     22  C   UNL     1       6.803   3.719  11.385  0.00  0.00    +0.000 A 
ATOM     23  C   UNL     1       5.623   3.175  11.893  0.00  0.00    +0.000 A 
ATOM     24  C   UNL     1       5.244   3.395  13.223  0.00  0.00    +0.000 A 
ATOM     25  C   UNL     1       6.085   4.165  14.050  0.00  0.00    +0.000 A 
ATOM     26  H   UNL     1       8.641   6.005  14.482  0.00  0.00    +0.000 HD
ENDBRANCH  16  17
ENDBRANCH   4  16
TORSDOF 4
ENDMDL
MODEL 2
REMARK VINA RESULT:      -7.9      0.987      1.169
REMARK  Name = 
REMARK  4 active torsions:
REMARK  status: ('A' for Active; 'I' for Inactive)
REMARK    1  A    between atoms: O_1  and  C_2
REMARK    2  A    between atoms: C_2  and  C_3
REMARK    3  A    between atoms: N_12  and  C_13
REMARK    4  A    between atoms: C_13  and  C_14
REMARK                            x       y       z     vdW  Elec       q    Type
REMARK                         _______ _______ _______ _____ _____    ______ ____
ROOT
ATOM      1  C   UNL     1       2.713   6.684  18.553  0.00  0.00    +0.000 C 
ATOM      2  C   UNL     1       3.717   7.221  17.517  0.00  0.00    +0.000 C 
ATOM      3  C   UNL     1       4.482   6.098  16.814  0.00  0.00    +0.000 C 
ATOM      4  N   UNL     1       5.192   5.241  17.781  0.00  0.00    +0.000 NA
ATOM      5  C   UNL     1       4.216   4.621  18.693  0.00  0.00    +0.000 C 
ATOM      6  C   UNL     1       3.432   5.675  19.468  0.00  0.00    +0.000 C 
ENDROOT
BRANCH   1   7
ATOM      7  C   UNL     1       2.028   7.751  19.415  0.00  0.00    +0.000 A 
ATOM      8  C   UNL     1       1.610   8.959  18.814  0.00  0.00    +0.000 A 
ATOM      9  C   UNL     1       0.878   9.910  19.528  0.00  0.00    +0.000 A 
ATOM     10  C   UNL     1       0.576   9.684  20.864  0.00  0.00    +0.000 A 
ATOM     11 CL   UNL     1      -0.359  10.834  21.739  0.00  0.00    +0.000 Cl
ATOM     12  C   UNL     1       1.021   8.526  21.497  0.00  0.00    +0.000 A 
ATOM     13  C   UNL     1       1.745   7.570  20.778  0.00  0.00    +0.000 A 
ENDBRANCH   1   7
BRANCH   1  14
ATOM     14  O   UNL     1       1.683   5.991  17.828  0.00  0.00    +0.000 OA
ATOM     15  H   UNL     1       0.998   5.742  18.471  0.00  0.00    +0.000 HD
ENDBRANCH   1  14
BRANCH   4  16
ATOM     16  C   UNL     1       5.939   4.202  17.034  0.00  0.00    +0.000 C 
BRANCH  16  17
ATOM     17  C   UNL     1       6.596   4.715  15.779  0.00  0.00    +0.000 A 
ATOM     18  N   UNL     1       7.585   5.622  15.866  0.00  0.00    +0.000 NA
ATOM     19  N   UNL     1       8.007   5.759  14.597  0.00  0.00    +0.000 N 
ATOM     20  C   UNL     1       7.352   4.964  13.696  0.00  0.00    +0.000 A 
ATOM     21  C   UNL     1       7.543   4.763  12.327  0.00  0.00    +0.000 A 
ATOM     22  C   UNL     1       6.690   3.856  11.693  0.00  0.00    +0.000 A 
ATOM     23  C   UNL     1       5.670   3.213  12.396  0.00  0.00    +0.000 A 
ATOM     24  C   UNL     1       5.494   3.433  13.768  0.00  0.00    +0.000 A 
ATOM     25  C   UNL     1       6.376   4.306  14.434  0.00  0.00    +0.000 A 
ATOM     26  H   UNL     1       8.768   6.400  14.413  0.00  0.00    +0.000 HD
ENDBRANCH  16  17
ENDBRANCH   4  16
TORSDOF 4
ENDMDL
MODEL 3
REMARK VINA RESULT:      -7.8      3.951      5.554
REMARK  Name = 
REMARK  4 active torsions:
REMARK  status: ('A' for Active; 'I' for Inactive)
REMARK    1  A    between atoms: O_1  and  C_2
REMARK    2  A    between atoms: C_2  and  C_3
REMARK    3  A    between atoms: N_12  and  C_13
REMARK    4  A    between atoms: C_13  and  C_14
REMARK                            x       y       z     vdW  Elec       q    Type
REMARK                         _______ _______ _______ _____ _____    ______ ____
ROOT
ATOM      1  C   UNL     1       0.296  10.197  19.269  0.00  0.00    +0.000 C 
ATOM      2  C   UNL     1       0.358   9.059  20.302  0.00  0.00    +0.000 C 
ATOM      3  C   UNL     1       1.696   8.315  20.266  0.00  0.00    +0.000 C 
ATOM      4  N   UNL     1       1.975   7.771  18.925  0.00  0.00    +0.000 NA
ATOM      5  C   UNL     1       2.047   8.877  17.955  0.00  0.00    +0.000 C 
ATOM      6  C   UNL     1       0.734   9.651  17.897  0.00  0.00    +0.000 C 
ENDROOT
BRANCH   1   7
ATOM      7  C   UNL     1      -1.069  10.882  19.129  0.00  0.00    +0.000 A 
ATOM      8  C   UNL     1      -1.961  10.442  18.126  0.00  0.00    +0.000 A 
ATOM      9  C   UNL     1      -3.258  10.951  18.034  0.00  0.00    +0.000 A 
ATOM     10  C   UNL     1      -3.677  11.930  18.924  0.00  0.00    +0.000 A 
ATOM     11 CL   UNL     1      -5.287  12.534  18.842  0.00  0.00    +0.000 Cl
ATOM     12  C   UNL     1      -2.802  12.421  19.890  0.00  0.00    +0.000 A 
ATOM     13  C   UNL     1      -1.507  11.903  19.988  0.00  0.00    +0.000 A 
ENDBRANCH   1   7
BRANCH   1  14
ATOM     14  O   UNL     1       1.239  11.201  19.683  0.00  0.00    +0.000 OA
ATOM     15  H   UNL     1       2.055  10.740  19.939  0.00  0.00    +0.000 HD
ENDBRANCH   1  14
BRANCH   4  16
ATOM     16  C   UNL     1       3.260   7.035  18.972  0.00  0.00    +0.000 C 
BRANCH  16  17
ATOM     17  C   UNL     1       3.210   5.689  18.298  0.00  0.00    +0.000 A 
ATOM     18  N   UNL     1       4.067   5.409  17.300  0.00  0.00    +0.000 NA
ATOM     19  N   UNL     1       3.826   4.116  17.024  0.00  0.00    +0.000 N 
ATOM     20  C   UNL     1       2.869   3.539  17.813  0.00  0.00    +0.000 A 
ATOM     21  C   UNL     1       2.397   2.227  17.888  0.00  0.00    +0.000 A 
ATOM     22  C   UNL     1       1.398   1.963  18.830  0.00  0.00    +0.000 A 
ATOM     23  C   UNL     1       0.875   2.980  19.629  0.00  0.00    +0.000 A 
ATOM     24  C   UNL     1       1.360   4.291  19.533  0.00  0.00    +0.000 A 
ATOM     25  C   UNL     1       2.401   4.565  18.625  0.00  0.00    +0.000 A 
ATOM     26  H   UNL     1       4.370   3.674  16.293  0.00  0.00    +0.000 HD
ENDBRANCH  16  17
ENDBRANCH   4  16
TORSDOF 4
ENDMDL
MODEL 4
REMARK VINA RESULT:      -7.6      4.359      6.285
REMARK  Name = 
REMARK  4 active torsions:
REMARK  status: ('A' for Active; 'I' for Inactive)
REMARK    1  A    between atoms: O_1  and  C_2
REMARK    2  A    between atoms: C_2  and  C_3
REMARK    3  A    between atoms: N_12  and  C_13
REMARK    4  A    between atoms: C_13  and  C_14
REMARK                            x       y       z     vdW  Elec       q    Type
REMARK                         _______ _______ _______ _____ _____    ______ ____
ROOT
ATOM      1  C   UNL     1       0.012  10.729  21.394  0.00  0.00    +0.000 C 
ATOM      2  C   UNL     1       0.344   9.520  22.286  0.00  0.00    +0.000 C 
ATOM      3  C   UNL     1       1.491   8.679  21.720  0.00  0.00    +0.000 C 
ATOM      4  N   UNL     1       1.192   8.210  20.354  0.00  0.00    +0.000 NA
ATOM      5  C   UNL     1       1.003   9.371  19.469  0.00  0.00    +0.000 C 
ATOM      6  C   UNL     1      -0.153  10.247  19.941  0.00  0.00    +0.000 C 
ENDROOT
BRANCH   1   7
ATOM      7  C   UNL     1      -1.232  11.526  21.808  0.00  0.00    +0.000 A 
ATOM      8  C   UNL     1      -1.919  12.284  20.835  0.00  0.00    +0.000 A 
ATOM      9  C   UNL     1      -3.121  12.930  21.134  0.00  0.00    +0.000 A 
ATOM     10  C   UNL     1      -3.642  12.854  22.417  0.00  0.00    +0.000 A 
ATOM     11 CL   UNL     1      -5.142  13.615  22.783  0.00  0.00    +0.000 Cl
ATOM     12  C   UNL     1      -2.959  12.157  23.411  0.00  0.00    +0.000 A 
ATOM     13  C   UNL     1      -1.761  11.502  23.108  0.00  0.00    +0.000 A 
ENDBRANCH   1   7
BRANCH   1  14
ATOM     14  O   UNL     1       1.134  11.625  21.455  0.00  0.00    +0.000 OA
ATOM     15  H   UNL     1       1.138  12.021  22.343  0.00  0.00    +0.000 HD
ENDBRANCH   1  14
BRANCH   4  16
ATOM     16  C   UNL     1       2.322   7.374  19.884  0.00  0.00    +0.000 C 
BRANCH  16  17
ATOM     17  C   UNL     1       2.033   5.896  19.910  0.00  0.00    +0.000 A 
ATOM     18  N   UNL     1       1.246   5.386  20.874  0.00  0.00    +0.000 NA
ATOM     19  N   UNL     1       1.110   4.095  20.528  0.00  0.00    +0.000 N 
ATOM     20  C   UNL     1       1.754   3.751  19.371  0.00  0.00    +0.000 A 
ATOM     21  C   UNL     1       1.792   2.553  18.652  0.00  0.00    +0.000 A 
ATOM     22  C   UNL     1       2.554   2.539  17.480  0.00  0.00    +0.000 A 
ATOM     23  C   UNL     1       3.271   3.665  17.073  0.00  0.00    +0.000 A 
ATOM     24  C   UNL     1       3.222   4.854  17.812  0.00  0.00    +0.000 A 
ATOM     25  C   UNL     1       2.420   4.902  18.969  0.00  0.00    +0.000 A 
ATOM     26  H   UNL     1       0.541   3.500  21.116  0.00  0.00    +0.000 HD
ENDBRANCH  16  17
ENDBRANCH   4  16
TORSDOF 4
ENDMDL
MODEL 5
REMARK VINA RESULT:      -7.6      2.733      4.487
REMARK  Name = 
REMARK  4 active torsions:
REMARK  status: ('A' for Active; 'I' for Inactive)
REMARK    1  A    between atoms: O_1  and  C_2
REMARK    2  A    between atoms: C_2  and  C_3
REMARK    3  A    between atoms: N_12  and  C_13
REMARK    4  A    between atoms: C_13  and  C_14
REMARK                            x       y       z     vdW  Elec       q    Type
REMARK                         _______ _______ _______ _____ _____    ______ ____
ROOT
ATOM      1  C   UNL     1       0.516   9.785  18.938  0.00  0.00    +0.000 C 
ATOM      2  C   UNL     1       0.457   8.832  20.145  0.00  0.00    +0.000 C 
ATOM      3  C   UNL     1       1.776   8.087  20.360  0.00  0.00    +0.000 C 
ATOM      4  N   UNL     1       2.169   7.327  19.158  0.00  0.00    +0.000 NA
ATOM      5  C   UNL     1       2.354   8.257  18.032  0.00  0.00    +0.000 C 
ATOM      6  C   UNL     1       1.068   9.017  17.722  0.00  0.00    +0.000 C 
ENDROOT
BRANCH   1   7
ATOM      7  C   UNL     1      -0.817  10.444  18.558  0.00  0.00    +0.000 A 
ATOM      8  C   UNL     1      -1.495  10.007  17.398  0.00  0.00    +0.000 A 
ATOM      9  C   UNL     1      -2.765  10.491  17.075  0.00  0.00    +0.000 A 
ATOM     10  C   UNL     1      -3.366  11.442  17.888  0.00  0.00    +0.000 A 
ATOM     11 CL   UNL     1      -4.947  12.013  17.518  0.00  0.00    +0.000 Cl
ATOM     12  C   UNL     1      -2.698  11.929  19.009  0.00  0.00    +0.000 A 
ATOM     13  C   UNL     1      -1.431  11.436  19.337  0.00  0.00    +0.000 A 
ENDBRANCH   1   7
BRANCH   1  14
ATOM     14  O   UNL     1       1.435  10.839  19.270  0.00  0.00    +0.000 OA
ATOM     15  H   UNL     1       2.040  10.941  18.515  0.00  0.00    +0.000 HD
ENDBRANCH   1  14
BRANCH   4  16
ATOM     16  C   UNL     1       3.428   6.602  19.448  0.00  0.00    +0.000 C 
BRANCH  16  17
ATOM     17  C   UNL     1       3.775   5.559  18.419  0.00  0.00    +0.000 A 
ATOM     18  N   UNL     1       2.871   4.621  18.088  0.00  0.00    +0.000 NA
ATOM     19  N   UNL     1       3.459   3.950  17.083  0.00  0.00    +0.000 N 
ATOM     20  C   UNL     1       4.693   4.425  16.732  0.00  0.00    +0.000 A 
ATOM     21  C   UNL     1       5.573   4.057  15.712  0.00  0.00    +0.000 A 
ATOM     22  C   UNL     1       6.774   4.766  15.621  0.00  0.00    +0.000 A 
ATOM     23  C   UNL     1       7.089   5.770  16.538  0.00  0.00    +0.000 A 
ATOM     24  C   UNL     1       6.193   6.119  17.557  0.00  0.00    +0.000 A 
ATOM     25  C   UNL     1       4.957   5.450  17.633  0.00  0.00    +0.000 A 
ATOM     26  H   UNL     1       2.952   3.183  16.658  0.00  0.00    +0.000 HD
ENDBRANCH  16  17
ENDBRANCH   4  16
TORSDOF 4
ENDMDL
MODEL 6
REMARK VINA RESULT:      -7.5      4.716      7.272
REMARK  Name = 
REMARK  4 active torsions:
REMARK  status: ('A' for Active; 'I' for Inactive)
REMARK    1  A    between atoms: O_1  and  C_2
REMARK    2  A    between atoms: C_2  and  C_3
REMARK    3  A    between atoms: N_12  and  C_13
REMARK    4  A    between atoms: C_13  and  C_14
REMARK                            x       y       z     vdW  Elec       q    Type
REMARK                         _______ _______ _______ _____ _____    ______ ____
ROOT
ATOM      1  C   UNL     1       7.608   7.685  17.667  0.00  0.00    +0.000 C 
ATOM      2  C   UNL     1       7.826   6.528  18.658  0.00  0.00    +0.000 C 
ATOM      3  C   UNL     1       7.097   5.252  18.229  0.00  0.00    +0.000 C 
ATOM      4  N   UNL     1       5.651   5.486  18.063  0.00  0.00    +0.000 NA
ATOM      5  C   UNL     1       5.437   6.502  17.019  0.00  0.00    +0.000 C 
ATOM      6  C   UNL     1       6.100   7.825  17.387  0.00  0.00    +0.000 C 
ENDROOT
BRANCH   1   7
ATOM      7  C   UNL     1       8.169   9.041  18.112  0.00  0.00    +0.000 A 
ATOM      8  C   UNL     1       8.985   9.106  19.263  0.00  0.00    +0.000 A 
ATOM      9  C   UNL     1       9.615  10.294  19.640  0.00  0.00    +0.000 A 
ATOM     10  C   UNL     1       9.416  11.446  18.891  0.00  0.00    +0.000 A 
ATOM     11 CL   UNL     1      10.220  12.904  19.328  0.00  0.00    +0.000 Cl
ATOM     12  C   UNL     1       8.575  11.424  17.782  0.00  0.00    +0.000 A 
ATOM     13  C   UNL     1       7.953  10.232  17.399  0.00  0.00    +0.000 A 
ENDBRANCH   1   7
BRANCH   1  14
ATOM     14  O   UNL     1       8.271   7.327  16.442  0.00  0.00    +0.000 OA
ATOM     15  H   UNL     1       7.590   7.289  15.749  0.00  0.00    +0.000 HD
ENDBRANCH   1  14
BRANCH   4  16
ATOM     16  C   UNL     1       5.005   4.207  17.686  0.00  0.00    +0.000 C 
BRANCH  16  17
ATOM     17  C   UNL     1       4.479   3.426  18.862  0.00  0.00    +0.000 A 
ATOM     18  N   UNL     1       5.304   2.616  19.548  0.00  0.00    +0.000 NA
ATOM     19  N   UNL     1       4.550   2.185  20.574  0.00  0.00    +0.000 N 
ATOM     20  C   UNL     1       3.282   2.696  20.596  0.00  0.00    +0.000 A 
ATOM     21  C   UNL     1       2.241   2.555  21.516  0.00  0.00    +0.000 A 
ATOM     22  C   UNL     1       1.051   3.234  21.240  0.00  0.00    +0.000 A 
ATOM     23  C   UNL     1       0.904   3.985  20.073  0.00  0.00    +0.000 A 
ATOM     24  C   UNL     1       1.960   4.109  19.160  0.00  0.00    +0.000 A 
ATOM     25  C   UNL     1       3.183   3.474  19.448  0.00  0.00    +0.000 A 
ATOM     26  H   UNL     1       4.971   1.553  21.244  0.00  0.00    +0.000 HD
ENDBRANCH  16  17
ENDBRANCH   4  16
TORSDOF 4
ENDMDL
MODEL 7
REMARK VINA RESULT:      -7.5      4.356      6.307
REMARK  Name = 
REMARK  4 active torsions:
REMARK  status: ('A' for Active; 'I' for Inactive)
REMARK    1  A    between atoms: O_1  and  C_2
REMARK    2  A    between atoms: C_2  and  C_3
REMARK    3  A    between atoms: N_12  and  C_13
REMARK    4  A    between atoms: C_13  and  C_14
REMARK                            x       y       z     vdW  Elec       q    Type
REMARK                         _______ _______ _______ _____ _____    ______ ____
ROOT
ATOM      1  C   UNL     1       0.042  10.680  21.268  0.00  0.00    +0.000 C 
ATOM      2  C   UNL     1       0.270   9.429  22.135  0.00  0.00    +0.000 C 
ATOM      3  C   UNL     1       1.434   8.576  21.628  0.00  0.00    +0.000 C 
ATOM      4  N   UNL     1       1.232   8.166  20.226  0.00  0.00    +0.000 NA
ATOM      5  C   UNL     1       1.146   9.364  19.375  0.00  0.00    +0.000 C 
ATOM      6  C   UNL     1      -0.020  10.257  19.788  0.00  0.00    +0.000 C 
ENDROOT
BRANCH   1   7
ATOM      7  C   UNL     1      -1.208  11.498  21.614  0.00  0.00    +0.000 A 
ATOM      8  C   UNL     1      -1.649  11.548  22.955  0.00  0.00    +0.000 A 
ATOM      9  C   UNL     1      -2.710  12.372  23.339  0.00  0.00    +0.000 A 
ATOM     10  C   UNL     1      -3.368  13.137  22.386  0.00  0.00    +0.000 A 
ATOM     11 CL   UNL     1      -4.650  14.183  22.859  0.00  0.00    +0.000 Cl
ATOM     12  C   UNL     1      -2.988  13.067  21.048  0.00  0.00    +0.000 A 
ATOM     13  C   UNL     1      -1.919  12.250  20.665  0.00  0.00    +0.000 A 
ENDBRANCH   1   7
BRANCH   1  14
ATOM     14  O   UNL     1       1.181  11.539  21.451  0.00  0.00    +0.000 OA
ATOM     15  H   UNL     1       1.695  11.179  22.194  0.00  0.00    +0.000 HD
ENDBRANCH   1  14
BRANCH   4  16
ATOM     16  C   UNL     1       2.372   7.315  19.813  0.00  0.00    +0.000 C 
BRANCH  16  17
ATOM     17  C   UNL     1       2.081   5.838  19.884  0.00  0.00    +0.000 A 
ATOM     18  N   UNL     1       1.321   5.355  20.882  0.00  0.00    +0.000 NA
ATOM     19  N   UNL     1       1.174   4.056  20.571  0.00  0.00    +0.000 N 
ATOM     20  C   UNL     1       1.783   3.681  19.406  0.00  0.00    +0.000 A 
ATOM     21  C   UNL     1       1.800   2.466  18.716  0.00  0.00    +0.000 A 
ATOM     22  C   UNL     1       2.527   2.421  17.524  0.00  0.00    +0.000 A 
ATOM     23  C   UNL     1       3.235   3.535  17.069  0.00  0.00    +0.000 A 
ATOM     24  C   UNL     1       3.209   4.742  17.779  0.00  0.00    +0.000 A 
ATOM     25  C   UNL     1       2.440   4.821  18.956  0.00  0.00    +0.000 A 
ATOM     26  H   UNL     1       0.621   3.476  21.190  0.00  0.00    +0.000 HD
ENDBRANCH  16  17
ENDBRANCH   4  16
TORSDOF 4
ENDMDL
MODEL 8
REMARK VINA RESULT:      -7.4      4.128      5.805
REMARK  Name = 
REMARK  4 active torsions:
REMARK  status: ('A' for Active; 'I' for Inactive)
REMARK    1  A    between atoms: O_1  and  C_2
REMARK    2  A    between atoms: C_2  and  C_3
REMARK    3  A    between atoms: N_12  and  C_13
REMARK    4  A    between atoms: C_13  and  C_14
REMARK                            x       y       z     vdW  Elec       q    Type
REMARK                         _______ _______ _______ _____ _____    ______ ____
ROOT
ATOM      1  C   UNL     1       0.412  10.229  19.473  0.00  0.00    +0.000 C 
ATOM      2  C   UNL     1       0.605   9.023  20.409  0.00  0.00    +0.000 C 
ATOM      3  C   UNL     1       1.915   8.281  20.136  0.00  0.00    +0.000 C 
ATOM      4  N   UNL     1       1.997   7.828  18.735  0.00  0.00    +0.000 NA
ATOM      5  C   UNL     1       1.944   8.997  17.840  0.00  0.00    +0.000 C 
ATOM      6  C   UNL     1       0.645   9.776  18.020  0.00  0.00    +0.000 C 
ENDROOT
BRANCH   1   7
ATOM      7  C   UNL     1      -0.952  10.924  19.574  0.00  0.00    +0.000 A 
ATOM      8  C   UNL     1      -1.235  11.726  20.702  0.00  0.00    +0.000 A 
ATOM      9  C   UNL     1      -2.412  12.472  20.784  0.00  0.00    +0.000 A 
ATOM     10  C   UNL     1      -3.342  12.407  19.756  0.00  0.00    +0.000 A 
ATOM     11 CL   UNL     1      -4.776  13.355  19.833  0.00  0.00    +0.000 Cl
ATOM     12  C   UNL     1      -3.113  11.584  18.656  0.00  0.00    +0.000 A 
ATOM     13  C   UNL     1      -1.929  10.845  18.569  0.00  0.00    +0.000 A 
ENDBRANCH   1   7
BRANCH   1  14
ATOM     14  O   UNL     1       1.414  11.200  19.817  0.00  0.00    +0.000 OA
ATOM     15  H   UNL     1       1.320  11.387  20.766  0.00  0.00    +0.000 HD
ENDBRANCH   1  14
BRANCH   4  16
ATOM     16  C   UNL     1       3.267   7.088  18.550  0.00  0.00    +0.000 C 
BRANCH  16  17
ATOM     17  C   UNL     1       3.075   5.629  18.227  0.00  0.00    +0.000 A 
ATOM     18  N   UNL     1       3.719   5.087  17.178  0.00  0.00    +0.000 NA
ATOM     19  N   UNL     1       3.417   3.780  17.258  0.00  0.00    +0.000 N 
ATOM     20  C   UNL     1       2.627   3.447  18.324  0.00  0.00    +0.000 A 
ATOM     21  C   UNL     1       2.167   2.212  18.787  0.00  0.00    +0.000 A 
ATOM     22  C   UNL     1       1.369   2.221  19.935  0.00  0.00    +0.000 A 
ATOM     23  C   UNL     1       1.021   3.418  20.561  0.00  0.00    +0.000 A 
ATOM     24  C   UNL     1       1.489   4.646  20.076  0.00  0.00    +0.000 A 
ATOM     25  C   UNL     1       2.335   4.653  18.951  0.00  0.00    +0.000 A 
ATOM     26  H   UNL     1       3.804   3.157  16.561  0.00  0.00    +0.000 HD
ENDBRANCH  16  17
ENDBRANCH   4  16
TORSDOF 4
ENDMDL
MODEL 9
REMARK VINA RESULT:      -7.3      6.166     11.423
REMARK  Name = 
REMARK  4 active torsions:
REMARK  status: ('A' for Active; 'I' for Inactive)
REMARK    1  A    between atoms: O_1  and  C_2
REMARK    2  A    between atoms: C_2  and  C_3
REMARK    3  A    between atoms: N_12  and  C_13
REMARK    4  A    between atoms: C_13  and  C_14
REMARK                            x       y       z     vdW  Elec       q    Type
REMARK                         _______ _______ _______ _____ _____    ______ ____
ROOT
ATOM      1  C   UNL     1       1.017   9.287  21.418  0.00  0.00    +0.000 C 
ATOM      2  C   UNL     1       0.787  10.644  20.730  0.00  0.00    +0.000 C 
ATOM      3  C   UNL     1       0.171  11.677  21.676  0.00  0.00    +0.000 C 
ATOM      4  N   UNL     1      -1.102  11.197  22.243  0.00  0.00    +0.000 NA
ATOM      5  C   UNL     1      -0.861   9.967  23.014  0.00  0.00    +0.000 C 
ATOM      6  C   UNL     1      -0.280   8.864  22.133  0.00  0.00    +0.000 C 
ENDROOT
BRANCH   1   7
ATOM      7  C   UNL     1       1.477   8.153  20.493  0.00  0.00    +0.000 A 
ATOM      8  C   UNL     1       1.871   8.459  19.172  0.00  0.00    +0.000 A 
ATOM      9  C   UNL     1       2.409   7.482  18.331  0.00  0.00    +0.000 A 
ATOM     10  C   UNL     1       2.534   6.177  18.784  0.00  0.00    +0.000 A 
ATOM     11 CL   UNL     1       3.232   4.977  17.766  0.00  0.00    +0.000 Cl
ATOM     12  C   UNL     1       2.104   5.835  20.064  0.00  0.00    +0.000 A 
ATOM     13  C   UNL     1       1.575   6.816  20.909  0.00  0.00    +0.000 A 
ENDBRANCH   1   7
BRANCH   1  14
ATOM     14  O   UNL     1       2.043   9.478  22.406  0.00  0.00    +0.000 OA
ATOM     15  H   UNL     1       1.817  10.282  22.904  0.00  0.00    +0.000 HD
ENDBRANCH   1  14
BRANCH   4  16
ATOM     16  C   UNL     1      -1.661  12.257  23.115  0.00  0.00    +0.000 C 
BRANCH  16  17
ATOM     17  C   UNL     1      -3.166  12.319  23.105  0.00  0.00    +0.000 A 
ATOM     18  N   UNL     1      -3.850  12.109  24.243  0.00  0.00    +0.000 NA
ATOM     19  N   UNL     1      -5.126  12.353  23.898  0.00  0.00    +0.000 N 
ATOM     20  C   UNL     1      -5.297  12.733  22.596  0.00  0.00    +0.000 A 
ATOM     21  C   UNL     1      -6.431  13.137  21.888  0.00  0.00    +0.000 A 
ATOM     22  C   UNL     1      -6.255  13.475  20.543  0.00  0.00    +0.000 A 
ATOM     23  C   UNL     1      -5.005  13.373  19.932  0.00  0.00    +0.000 A 
ATOM     24  C   UNL     1      -3.881  12.961  20.660  0.00  0.00    +0.000 A 
ATOM     25  C   UNL     1      -4.029  12.665  22.028  0.00  0.00    +0.000 A 
ATOM     26  H   UNL     1      -5.840  12.262  24.611  0.00  0.00    +0.000 HD
ENDBRANCH  16  17
ENDBRANCH   4  16
TORSDOF 4
ENDMDL
