MODEL 1
REMARK VINA RESULT:      -5.8      0.000      0.000
REMARK  Name = 
REMARK  8 active torsions:
REMARK  status: ('A' for Active; 'I' for Inactive)
REMARK    1  A    between atoms: C_1  and  C_2
REMARK    2  A    between atoms: C_2  and  O_3
REMARK    3  A    between atoms: O_3  and  C_4
REMARK    4  A    between atoms: C_4  and  C_5
REMARK    5  A    between atoms: C_5  and  N_6
REMARK    6  A    between atoms: N_6  and  C_7
REMARK    7  A    between atoms: N_6  and  C_8
REMARK    8  A    between atoms: C_8  and  C_9
REMARK                            x       y       z     vdW  Elec       q    Type
REMARK                         _______ _______ _______ _____ _____    ______ ____
ROOT
ATOM      1  C   UNL     1       3.908   4.473  18.082  0.00  0.00    +0.000 A 
ATOM      2  C   UNL     1       3.488   3.733  16.987  0.00  0.00    +0.000 A 
ATOM      3  N   UNL     1       2.377   2.981  17.276  0.00  0.00    +0.000 NA
ATOM      4  C   UNL     1       2.123   3.262  18.533  0.00  0.00    +0.000 A 
ATOM      5  C   UNL     1       1.061   2.762  19.362  0.00  0.00    +0.000 A 
ATOM      6  N   UNL     1       0.923   3.138  20.607  0.00  0.00    +0.000 NA
ATOM      7  C   UNL     1       1.841   4.050  21.104  0.00  0.00    +0.000 A 
ATOM      8  C   UNL     1       2.861   4.560  20.391  0.00  0.00    +0.000 A 
ATOM      9  N   UNL     1       3.009   4.157  19.074  0.00  0.00    +0.000 N 
ENDROOT
BRANCH   1  10
ATOM     10  C   UNL     1       5.050   5.416  18.231  0.00  0.00    +0.000 C 
BRANCH  10  11
ATOM     11  N   UNL     1       6.328   4.738  18.519  0.00  0.00    +0.000 NA
ATOM     12  C   UNL     1       7.105   5.471  19.528  0.00  0.00    +0.000 C 
BRANCH  11  13
ATOM     13  C   UNL     1       7.099   4.598  17.258  0.00  0.00    +0.000 C 
BRANCH  13  14
ATOM     14  C   UNL     1       7.083   5.851  16.367  0.00  0.00    +0.000 C 
BRANCH  14  15
ATOM     15  O   UNL     1       6.540   5.537  15.079  0.00  0.00    +0.000 OA
BRANCH  15  17
ATOM     16  C   UNL     1       6.123   3.822  13.447  0.00  0.00    +0.000 C 
ATOM     17  C   UNL     1       6.515   4.122  14.879  0.00  0.00    +0.000 C 
ENDBRANCH  15  17
ENDBRANCH  14  15
ENDBRANCH  13  14
ENDBRANCH  11  13
ENDBRANCH  10  11
ENDBRANCH   1  10
TORSDOF 6
ENDMDL
MODEL 2
REMARK VINA RESULT:      -5.5      2.583      5.922
REMARK  Name = 
REMARK  8 active torsions:
REMARK  status: ('A' for Active; 'I' for Inactive)
REMARK    1  A    between atoms: C_1  and  C_2
REMARK    2  A    between atoms: C_2  and  O_3
REMARK    3  A    between atoms: O_3  and  C_4
REMARK    4  A    between atoms: C_4  and  C_5
REMARK    5  A    between atoms: C_5  and  N_6
REMARK    6  A    between atoms: N_6  and  C_7
REMARK    7  A    between atoms: N_6  and  C_8
REMARK    8  A    between atoms: C_8  and  C_9
REMARK                            x       y       z     vdW  Elec       q    Type
REMARK                         _______ _______ _______ _____ _____    ______ ____
ROOT
ATOM      1  C   UNL     1       5.364   4.757  16.782  0.00  0.00    +0.000 A 
ATOM      2  C   UNL     1       5.094   5.650  15.756  0.00  0.00    +0.000 A 
ATOM      3  N   UNL     1       5.843   6.795  15.866  0.00  0.00    +0.000 NA
ATOM      4  C   UNL     1       6.562   6.600  16.948  0.00  0.00    +0.000 A 
ATOM      5  C   UNL     1       7.535   7.474  17.542  0.00  0.00    +0.000 A 
ATOM      6  N   UNL     1       8.188   7.144  18.626  0.00  0.00    +0.000 NA
ATOM      7  C   UNL     1       7.911   5.906  19.185  0.00  0.00    +0.000 A 
ATOM      8  C   UNL     1       7.014   5.035  18.688  0.00  0.00    +0.000 A 
ATOM      9  N   UNL     1       6.320   5.388  17.543  0.00  0.00    +0.000 N 
ENDROOT
BRANCH   1  10
ATOM     10  C   UNL     1       4.800   3.409  17.064  0.00  0.00    +0.000 C 
BRANCH  10  11
ATOM     11  N   UNL     1       3.848   3.403  18.191  0.00  0.00    +0.000 NA
ATOM     12  C   UNL     1       4.309   2.522  19.273  0.00  0.00    +0.000 C 
BRANCH  11  13
ATOM     13  C   UNL     1       2.513   2.979  17.698  0.00  0.00    +0.000 C 
BRANCH  13  14
ATOM     14  C   UNL     1       1.343   3.809  18.250  0.00  0.00    +0.000 C 
BRANCH  14  15
ATOM     15  O   UNL     1       0.740   3.140  19.364  0.00  0.00    +0.000 OA
BRANCH  15  17
ATOM     16  C   UNL     1       1.529   2.760  21.603  0.00  0.00    +0.000 C 
ATOM     17  C   UNL     1       1.088   3.794  20.587  0.00  0.00    +0.000 C 
ENDBRANCH  15  17
ENDBRANCH  14  15
ENDBRANCH  13  14
ENDBRANCH  11  13
ENDBRANCH  10  11
ENDBRANCH   1  10
TORSDOF 6
ENDMDL
MODEL 3
REMARK VINA RESULT:      -5.5      1.731      2.347
REMARK  Name = 
REMARK  8 active torsions:
REMARK  status: ('A' for Active; 'I' for Inactive)
REMARK    1  A    between atoms: C_1  and  C_2
REMARK    2  A    between atoms: C_2  and  O_3
REMARK    3  A    between atoms: O_3  and  C_4
REMARK    4  A    between atoms: C_4  and  C_5
REMARK    5  A    between atoms: C_5  and  N_6
REMARK    6  A    between atoms: N_6  and  C_7
REMARK    7  A    between atoms: N_6  and  C_8
REMARK    8  A    between atoms: C_8  and  C_9
REMARK                            x       y       z     vdW  Elec       q    Type
REMARK                         _______ _______ _______ _____ _____    ______ ____
ROOT
ATOM      1  C   UNL     1       3.812   4.185  18.578  0.00  0.00    +0.000 A 
ATOM      2  C   UNL     1       4.942   3.424  18.837  0.00  0.00    +0.000 A 
ATOM      3  N   UNL     1       4.775   2.621  19.938  0.00  0.00    +0.000 NA
ATOM      4  C   UNL     1       3.556   2.891  20.344  0.00  0.00    +0.000 A 
ATOM      5  C   UNL     1       2.844   2.334  21.460  0.00  0.00    +0.000 A 
ATOM      6  N   UNL     1       1.619   2.692  21.745  0.00  0.00    +0.000 NA
ATOM      7  C   UNL     1       1.022   3.634  20.922  0.00  0.00    +0.000 A 
ATOM      8  C   UNL     1       1.625   4.201  19.861  0.00  0.00    +0.000 A 
ATOM      9  N   UNL     1       2.923   3.824  19.563  0.00  0.00    +0.000 N 
ENDROOT
BRANCH   1  10
ATOM     10  C   UNL     1       3.542   5.179  17.504  0.00  0.00    +0.000 C 
BRANCH  10  11
ATOM     11  N   UNL     1       3.950   6.550  17.866  0.00  0.00    +0.000 NA
ATOM     12  C   UNL     1       2.786   7.384  18.193  0.00  0.00    +0.000 C 
BRANCH  11  13
ATOM     13  C   UNL     1       4.723   7.139  16.744  0.00  0.00    +0.000 C 
BRANCH  13  14
ATOM     14  C   UNL     1       5.274   6.107  15.746  0.00  0.00    +0.000 C 
BRANCH  14  15
ATOM     15  O   UNL     1       6.673   5.896  15.971  0.00  0.00    +0.000 OA
BRANCH  15  17
ATOM     16  C   UNL     1       6.176   3.906  14.719  0.00  0.00    +0.000 C 
ATOM     17  C   UNL     1       6.995   4.510  15.841  0.00  0.00    +0.000 C 
ENDBRANCH  15  17
ENDBRANCH  14  15
ENDBRANCH  13  14
ENDBRANCH  11  13
ENDBRANCH  10  11
ENDBRANCH   1  10
TORSDOF 6
ENDMDL
MODEL 4
REMARK VINA RESULT:      -5.5      1.261      2.155
REMARK  Name = 
REMARK  8 active torsions:
REMARK  status: ('A' for Active; 'I' for Inactive)
REMARK    1  A    between atoms: C_1  and  C_2
REMARK    2  A    between atoms: C_2  and  O_3
REMARK    3  A    between atoms: O_3  and  C_4
REMARK    4  A    between atoms: C_4  and  C_5
REMARK    5  A    between atoms: C_5  and  N_6
REMARK    6  A    between atoms: N_6  and  C_7
REMARK    7  A    between atoms: N_6  and  C_8
REMARK    8  A    between atoms: C_8  and  C_9
REMARK                            x       y       z     vdW  Elec       q    Type
REMARK                         _______ _______ _______ _____ _____    ______ ____
ROOT
ATOM      1  C   UNL     1       3.539   4.045  17.930  0.00  0.00    +0.000 A 
ATOM      2  C   UNL     1       2.896   3.159  17.079  0.00  0.00    +0.000 A 
ATOM      3  N   UNL     1       1.889   2.479  17.718  0.00  0.00    +0.000 NA
ATOM      4  C   UNL     1       1.919   2.947  18.944  0.00  0.00    +0.000 A 
ATOM      5  C   UNL     1       1.078   2.595  20.054  0.00  0.00    +0.000 A 
ATOM      6  N   UNL     1       1.216   3.154  21.228  0.00  0.00    +0.000 NA
ATOM      7  C   UNL     1       2.208   4.111  21.367  0.00  0.00    +0.000 A 
ATOM      8  C   UNL     1       3.035   4.492  20.376  0.00  0.00    +0.000 A 
ATOM      9  N   UNL     1       2.891   3.896  19.134  0.00  0.00    +0.000 N 
ENDROOT
BRANCH   1  10
ATOM     10  C   UNL     1       4.672   4.978  17.679  0.00  0.00    +0.000 C 
BRANCH  10  11
ATOM     11  N   UNL     1       5.958   4.486  18.210  0.00  0.00    +0.000 NA
ATOM     12  C   UNL     1       6.370   5.246  19.397  0.00  0.00    +0.000 C 
BRANCH  11  13
ATOM     13  C   UNL     1       6.987   4.572  17.144  0.00  0.00    +0.000 C 
BRANCH  13  14
ATOM     14  C   UNL     1       6.836   5.788  16.216  0.00  0.00    +0.000 C 
BRANCH  14  15
ATOM     15  O   UNL     1       7.797   6.795  16.554  0.00  0.00    +0.000 OA
BRANCH  15  17
ATOM     16  C   UNL     1       8.168   8.645  18.043  0.00  0.00    +0.000 C 
ATOM     17  C   UNL     1       7.158   7.901  17.194  0.00  0.00    +0.000 C 
ENDBRANCH  15  17
ENDBRANCH  14  15
ENDBRANCH  13  14
ENDBRANCH  11  13
ENDBRANCH  10  11
ENDBRANCH   1  10
TORSDOF 6
ENDMDL
MODEL 5
REMARK VINA RESULT:      -5.5      1.100      1.268
REMARK  Name = 
REMARK  8 active torsions:
REMARK  status: ('A' for Active; 'I' for Inactive)
REMARK    1  A    between atoms: C_1  and  C_2
REMARK    2  A    between atoms: C_2  and  O_3
REMARK    3  A    between atoms: O_3  and  C_4
REMARK    4  A    between atoms: C_4  and  C_5
REMARK    5  A    between atoms: C_5  and  N_6
REMARK    6  A    between atoms: N_6  and  C_7
REMARK    7  A    between atoms: N_6  and  C_8
REMARK    8  A    between atoms: C_8  and  C_9
REMARK                            x       y       z     vdW  Elec       q    Type
REMARK                         _______ _______ _______ _____ _____    ______ ____
ROOT
ATOM      1  C   UNL     1       3.742   3.485  18.154  0.00  0.00    +0.000 A 
ATOM      2  C   UNL     1       2.766   3.826  17.230  0.00  0.00    +0.000 A 
ATOM      3  N   UNL     1       1.506   3.761  17.772  0.00  0.00    +0.000 NA
ATOM      4  C   UNL     1       1.715   3.386  19.013  0.00  0.00    +0.000 A 
ATOM      5  C   UNL     1       0.748   3.162  20.052  0.00  0.00    +0.000 A 
ATOM      6  N   UNL     1       1.102   2.795  21.256  0.00  0.00    +0.000 NA
ATOM      7  C   UNL     1       2.457   2.633  21.501  0.00  0.00    +0.000 A 
ATOM      8  C   UNL     1       3.419   2.821  20.581  0.00  0.00    +0.000 A 
ATOM      9  N   UNL     1       3.043   3.205  19.305  0.00  0.00    +0.000 N 
ENDROOT
BRANCH   1  10
ATOM     10  C   UNL     1       5.222   3.416  18.015  0.00  0.00    +0.000 C 
BRANCH  10  11
ATOM     11  N   UNL     1       5.924   4.484  18.753  0.00  0.00    +0.000 NA
ATOM     12  C   UNL     1       5.087   5.684  18.877  0.00  0.00    +0.000 C 
BRANCH  11  13
ATOM     13  C   UNL     1       7.198   4.799  18.058  0.00  0.00    +0.000 C 
BRANCH  13  14
ATOM     14  C   UNL     1       7.163   4.561  16.539  0.00  0.00    +0.000 C 
BRANCH  14  15
ATOM     15  O   UNL     1       6.755   5.753  15.858  0.00  0.00    +0.000 OA
BRANCH  15  17
ATOM     16  C   UNL     1       5.858   4.084  14.379  0.00  0.00    +0.000 C 
ATOM     17  C   UNL     1       5.678   5.472  14.962  0.00  0.00    +0.000 C 
ENDBRANCH  15  17
ENDBRANCH  14  15
ENDBRANCH  13  14
ENDBRANCH  11  13
ENDBRANCH  10  11
ENDBRANCH   1  10
TORSDOF 6
ENDMDL
MODEL 6
REMARK VINA RESULT:      -5.4      1.116      1.223
REMARK  Name = 
REMARK  8 active torsions:
REMARK  status: ('A' for Active; 'I' for Inactive)
REMARK    1  A    between atoms: C_1  and  C_2
REMARK    2  A    between atoms: C_2  and  O_3
REMARK    3  A    between atoms: O_3  and  C_4
REMARK    4  A    between atoms: C_4  and  C_5
REMARK    5  A    between atoms: C_5  and  N_6
REMARK    6  A    between atoms: N_6  and  C_7
REMARK    7  A    between atoms: N_6  and  C_8
REMARK    8  A    between atoms: C_8  and  C_9
REMARK                            x       y       z     vdW  Elec       q    Type
REMARK                         _______ _______ _______ _____ _____    ______ ____
ROOT
ATOM      1  C   UNL     1       3.802   3.618  17.931  0.00  0.00    +0.000 A 
ATOM      2  C   UNL     1       3.784   2.247  17.724  0.00  0.00    +0.000 A 
ATOM      3  N   UNL     1       2.996   1.603  18.645  0.00  0.00    +0.000 NA
ATOM      4  C   UNL     1       2.538   2.573  19.403  0.00  0.00    +0.000 A 
ATOM      5  C   UNL     1       1.652   2.482  20.530  0.00  0.00    +0.000 A 
ATOM      6  N   UNL     1       1.269   3.542  21.194  0.00  0.00    +0.000 NA
ATOM      7  C   UNL     1       1.745   4.770  20.764  0.00  0.00    +0.000 A 
ATOM      8  C   UNL     1       2.577   4.935  19.720  0.00  0.00    +0.000 A 
ATOM      9  N   UNL     1       2.986   3.811  19.021  0.00  0.00    +0.000 N 
ENDROOT
BRANCH   1  10
ATOM     10  C   UNL     1       4.509   4.698  17.189  0.00  0.00    +0.000 C 
BRANCH  10  11
ATOM     11  N   UNL     1       5.950   4.766  17.497  0.00  0.00    +0.000 NA
ATOM     12  C   UNL     1       6.181   5.264  18.859  0.00  0.00    +0.000 C 
BRANCH  11  13
ATOM     13  C   UNL     1       6.620   5.634  16.497  0.00  0.00    +0.000 C 
BRANCH  13  14
ATOM     14  C   UNL     1       7.358   4.867  15.388  0.00  0.00    +0.000 C 
BRANCH  14  15
ATOM     15  O   UNL     1       6.728   5.094  14.121  0.00  0.00    +0.000 OA
BRANCH  15  17
ATOM     16  C   UNL     1       6.331   3.510  12.358  0.00  0.00    +0.000 C 
ATOM     17  C   UNL     1       5.936   3.965  13.748  0.00  0.00    +0.000 C 
ENDBRANCH  15  17
ENDBRANCH  14  15
ENDBRANCH  13  14
ENDBRANCH  11  13
ENDBRANCH  10  11
ENDBRANCH   1  10
TORSDOF 6
ENDMDL
MODEL 7
REMARK VINA RESULT:      -5.4      1.469      1.899
REMARK  Name = 
REMARK  8 active torsions:
REMARK  status: ('A' for Active; 'I' for Inactive)
REMARK    1  A    between atoms: C_1  and  C_2
REMARK    2  A    between atoms: C_2  and  O_3
REMARK    3  A    between atoms: O_3  and  C_4
REMARK    4  A    between atoms: C_4  and  C_5
REMARK    5  A    between atoms: C_5  and  N_6
REMARK    6  A    between atoms: N_6  and  C_7
REMARK    7  A    between atoms: N_6  and  C_8
REMARK    8  A    between atoms: C_8  and  C_9
REMARK                            x       y       z     vdW  Elec       q    Type
REMARK                         _______ _______ _______ _____ _____    ______ ____
ROOT
ATOM      1  C   UNL     1       4.001   3.994  17.599  0.00  0.00    +0.000 A 
ATOM      2  C   UNL     1       3.734   2.633  17.580  0.00  0.00    +0.000 A 
ATOM      3  N   UNL     1       2.842   2.276  18.560  0.00  0.00    +0.000 NA
ATOM      4  C   UNL     1       2.569   3.407  19.168  0.00  0.00    +0.000 A 
ATOM      5  C   UNL     1       1.683   3.633  20.276  0.00  0.00    +0.000 A 
ATOM      6  N   UNL     1       1.500   4.826  20.780  0.00  0.00    +0.000 NA
ATOM      7  C   UNL     1       2.191   5.877  20.199  0.00  0.00    +0.000 A 
ATOM      8  C   UNL     1       3.038   5.744  19.162  0.00  0.00    +0.000 A 
ATOM      9  N   UNL     1       3.235   4.480  18.633  0.00  0.00    +0.000 N 
ENDROOT
BRANCH   1  10
ATOM     10  C   UNL     1       4.891   4.816  16.735  0.00  0.00    +0.000 C 
BRANCH  10  11
ATOM     11  N   UNL     1       6.298   4.372  16.762  0.00  0.00    +0.000 NA
ATOM     12  C   UNL     1       7.094   5.180  17.695  0.00  0.00    +0.000 C 
BRANCH  11  13
ATOM     13  C   UNL     1       6.858   4.446  15.389  0.00  0.00    +0.000 C 
BRANCH  13  14
ATOM     14  C   UNL     1       5.944   3.855  14.302  0.00  0.00    +0.000 C 
BRANCH  14  15
ATOM     15  O   UNL     1       6.533   4.031  13.008  0.00  0.00    +0.000 OA
BRANCH  15  17
ATOM     16  C   UNL     1       4.641   3.280  11.729  0.00  0.00    +0.000 C 
ATOM     17  C   UNL     1       6.082   3.012  12.113  0.00  0.00    +0.000 C 
ENDBRANCH  15  17
ENDBRANCH  14  15
ENDBRANCH  13  14
ENDBRANCH  11  13
ENDBRANCH  10  11
ENDBRANCH   1  10
TORSDOF 6
ENDMDL
MODEL 8
REMARK VINA RESULT:      -5.4      1.160      1.965
REMARK  Name = 
REMARK  8 active torsions:
REMARK  status: ('A' for Active; 'I' for Inactive)
REMARK    1  A    between atoms: C_1  and  C_2
REMARK    2  A    between atoms: C_2  and  O_3
REMARK    3  A    between atoms: O_3  and  C_4
REMARK    4  A    between atoms: C_4  and  C_5
REMARK    5  A    between atoms: C_5  and  N_6
REMARK    6  A    between atoms: N_6  and  C_7
REMARK    7  A    between atoms: N_6  and  C_8
REMARK    8  A    between atoms: C_8  and  C_9
REMARK                            x       y       z     vdW  Elec       q    Type
REMARK                         _______ _______ _______ _____ _____    ______ ____
ROOT
ATOM      1  C   UNL     1       4.135   5.258  18.929  0.00  0.00    +0.000 A 
ATOM      2  C   UNL     1       3.340   5.904  19.863  0.00  0.00    +0.000 A 
ATOM      3  N   UNL     1       2.291   5.118  20.269  0.00  0.00    +0.000 NA
ATOM      4  C   UNL     1       2.447   4.005  19.590  0.00  0.00    +0.000 A 
ATOM      5  C   UNL     1       1.636   2.819  19.621  0.00  0.00    +0.000 A 
ATOM      6  N   UNL     1       1.917   1.772  18.890  0.00  0.00    +0.000 NA
ATOM      7  C   UNL     1       3.039   1.843  18.079  0.00  0.00    +0.000 A 
ATOM      8  C   UNL     1       3.844   2.917  17.994  0.00  0.00    +0.000 A 
ATOM      9  N   UNL     1       3.543   4.027  18.766  0.00  0.00    +0.000 N 
ENDROOT
BRANCH   1  10
ATOM     10  C   UNL     1       5.363   5.716  18.222  0.00  0.00    +0.000 C 
BRANCH  10  11
ATOM     11  N   UNL     1       6.558   4.920  18.560  0.00  0.00    +0.000 NA
ATOM     12  C   UNL     1       7.363   5.583  19.595  0.00  0.00    +0.000 C 
BRANCH  11  13
ATOM     13  C   UNL     1       7.359   4.699  17.330  0.00  0.00    +0.000 C 
BRANCH  13  14
ATOM     14  C   UNL     1       7.003   5.640  16.168  0.00  0.00    +0.000 C 
BRANCH  14  15
ATOM     15  O   UNL     1       7.577   5.161  14.946  0.00  0.00    +0.000 OA
BRANCH  15  17
ATOM     16  C   UNL     1       5.290   4.543  14.541  0.00  0.00    +0.000 C 
ATOM     17  C   UNL     1       6.744   4.157  14.363  0.00  0.00    +0.000 C 
ENDBRANCH  15  17
ENDBRANCH  14  15
ENDBRANCH  13  14
ENDBRANCH  11  13
ENDBRANCH  10  11
ENDBRANCH   1  10
TORSDOF 6
ENDMDL
MODEL 9
REMARK VINA RESULT:      -5.4      1.430      2.225
REMARK  Name = 
REMARK  8 active torsions:
REMARK  status: ('A' for Active; 'I' for Inactive)
REMARK    1  A    between atoms: C_1  and  C_2
REMARK    2  A    between atoms: C_2  and  O_3
REMARK    3  A    between atoms: O_3  and  C_4
REMARK    4  A    between atoms: C_4  and  C_5
REMARK    5  A    between atoms: C_5  and  N_6
REMARK    6  A    between atoms: N_6  and  C_7
REMARK    7  A    between atoms: N_6  and  C_8
REMARK    8  A    between atoms: C_8  and  C_9
REMARK                            x       y       z     vdW  Elec       q    Type
REMARK                         _______ _______ _______ _____ _____    ______ ____
ROOT
ATOM      1  C   UNL     1       3.188   5.756  18.568  0.00  0.00    +0.000 A 
ATOM      2  C   UNL     1       2.695   6.438  19.670  0.00  0.00    +0.000 A 
ATOM      3  N   UNL     1       1.808   5.673  20.387  0.00  0.00    +0.000 NA
ATOM      4  C   UNL     1       1.764   4.538  19.729  0.00  0.00    +0.000 A 
ATOM      5  C   UNL     1       1.000   3.360  20.031  0.00  0.00    +0.000 A 
ATOM      6  N   UNL     1       1.060   2.288  19.284  0.00  0.00    +0.000 NA
ATOM      7  C   UNL     1       1.901   2.324  18.183  0.00  0.00    +0.000 A 
ATOM      8  C   UNL     1       2.646   3.389  17.835  0.00  0.00    +0.000 A 
ATOM      9  N   UNL     1       2.577   4.525  18.624  0.00  0.00    +0.000 N 
ENDROOT
BRANCH   1  10
ATOM     10  C   UNL     1       4.159   6.182  17.524  0.00  0.00    +0.000 C 
BRANCH  10  11
ATOM     11  N   UNL     1       5.558   6.178  17.995  0.00  0.00    +0.000 NA
ATOM     12  C   UNL     1       6.389   7.096  17.205  0.00  0.00    +0.000 C 
BRANCH  11  13
ATOM     13  C   UNL     1       6.089   4.794  17.926  0.00  0.00    +0.000 C 
BRANCH  13  14
ATOM     14  C   UNL     1       6.804   4.457  16.606  0.00  0.00    +0.000 C 
BRANCH  14  15
ATOM     15  O   UNL     1       6.000   3.573  15.817  0.00  0.00    +0.000 OA
BRANCH  15  17
ATOM     16  C   UNL     1       6.451   4.029  13.500  0.00  0.00    +0.000 C 
ATOM     17  C   UNL     1       5.502   4.251  14.660  0.00  0.00    +0.000 C 
ENDBRANCH  15  17
ENDBRANCH  14  15
ENDBRANCH  13  14
ENDBRANCH  11  13
ENDBRANCH  10  11
ENDBRANCH   1  10
TORSDOF 6
ENDMDL
