MODEL 1
REMARK VINA RESULT:      -8.4      0.000      0.000
REMARK  Name = 
REMARK  7 active torsions:
REMARK  status: ('A' for Active; 'I' for Inactive)
REMARK    1  A    between atoms: N_1  and  CA_2
REMARK    2  A    between atoms: CA_2  and  C_3
REMARK    3  A    between atoms: CA_2  and  C_6
REMARK    4  A    between atoms: C_3  and  OXT_5
REMARK    5  A    between atoms: C_8  and  O_9
REMARK    6  A    between atoms: N_11  and  C_12
REMARK    7  A    between atoms: C_12  and  C_13
REMARK                            x       y       z     vdW  Elec       q    Type
REMARK                         _______ _______ _______ _____ _____    ______ ____
ROOT
ATOM      1  C   UNL     1       6.071   6.039  16.537  0.00  0.00    +0.000 C 
ATOM      2  C   UNL     1       7.427   6.052  17.260  0.00  0.00    +0.000 C 
ATOM      3  C   UNL     1       6.985   5.667  18.627  0.00  0.00    +0.000 C 
ATOM      4  N   UNL     1       5.720   5.732  18.871  0.00  0.00    +0.000 NA
ATOM      5  N   UNL     1       5.170   6.091  17.691  0.00  0.00    +0.000 N 
ENDROOT
BRANCH   3   6
ATOM      6  O   UNL     1       7.888   5.279  19.523  0.00  0.00    +0.000 OA
ATOM      7  H   UNL     1       7.826   5.770  20.358  0.00  0.00    +0.000 HD
ENDBRANCH   3   6
BRANCH   1   8
ATOM      8  CA  UNL     1       5.829   4.744  15.712  0.00  0.00    +0.000 C 
BRANCH   8   9
ATOM      9  N   UNL     1       5.961   3.455  16.475  0.00  0.00    +0.000 NA
ATOM     10  H1  UNL     1       6.971   3.347  16.653  0.00  0.00    +0.000 HD
ATOM     11  H2  UNL     1       5.794   2.674  15.830  0.00  0.00    +0.000 HD
ENDBRANCH   8   9
BRANCH   8  12
ATOM     12  C   UNL     1       6.760   4.677  14.497  0.00  0.00    +0.000 C 
ATOM     13  O   UNL     1       7.634   5.487  14.229  0.00  0.00    +0.000 OA
BRANCH  12  14
ATOM     14  OXT UNL     1       6.497   3.581  13.736  0.00  0.00    +0.000 OA
ATOM     15  HXT UNL     1       6.540   3.882  12.791  0.00  0.00    +0.000 HD
ENDBRANCH  12  14
ENDBRANCH   8  12
ENDBRANCH   1   8
BRANCH   5  16
ATOM     16  C   UNL     1       3.817   6.606  17.546  0.00  0.00    +0.000 C 
BRANCH  16  17
ATOM     17  C   UNL     1       2.814   6.096  18.573  0.00  0.00    +0.000 A 
ATOM     18  C   UNL     1       2.429   6.989  19.595  0.00  0.00    +0.000 A 
ATOM     19  C   UNL     1       1.637   6.573  20.660  0.00  0.00    +0.000 A 
ATOM     20  C   UNL     1       1.217   5.251  20.732  0.00  0.00    +0.000 A 
ATOM     21  C   UNL     1       1.546   4.337  19.722  0.00  0.00    +0.000 A 
ATOM     22  C   UNL     1       1.087   3.013  19.820  0.00  0.00    +0.000 A 
ATOM     23  C   UNL     1       1.379   2.077  18.832  0.00  0.00    +0.000 A 
ATOM     24  C   UNL     1       2.140   2.456  17.736  0.00  0.00    +0.000 A 
ATOM     25  C   UNL     1       2.617   3.767  17.632  0.00  0.00    +0.000 A 
ATOM     26  C   UNL     1       2.343   4.747  18.616  0.00  0.00    +0.000 A 
ENDBRANCH  16  17
ENDBRANCH   5  16
TORSDOF 7
ENDMDL
MODEL 2
REMARK VINA RESULT:      -8.1      1.261      1.281
REMARK  Name = 
REMARK  7 active torsions:
REMARK  status: ('A' for Active; 'I' for Inactive)
REMARK    1  A    between atoms: N_1  and  CA_2
REMARK    2  A    between atoms: CA_2  and  C_3
REMARK    3  A    between atoms: CA_2  and  C_6
REMARK    4  A    between atoms: C_3  and  OXT_5
REMARK    5  A    between atoms: C_8  and  O_9
REMARK    6  A    between atoms: N_11  and  C_12
REMARK    7  A    between atoms: C_12  and  C_13
REMARK                            x       y       z     vdW  Elec       q    Type
REMARK                         _______ _______ _______ _____ _____    ______ ____
ROOT
ATOM      1  C   UNL     1       6.523   6.760  17.219  0.00  0.00    +0.000 C 
ATOM      2  C   UNL     1       7.607   6.807  18.307  0.00  0.00    +0.000 C 
ATOM      3  C   UNL     1       7.019   5.858  19.289  0.00  0.00    +0.000 C 
ATOM      4  N   UNL     1       5.778   5.545  19.126  0.00  0.00    +0.000 NA
ATOM      5  N   UNL     1       5.419   6.181  17.989  0.00  0.00    +0.000 N 
ENDROOT
BRANCH   3   6
ATOM      6  O   UNL     1       7.775   5.379  20.272  0.00  0.00    +0.000 OA
ATOM      7  H   UNL     1       7.469   4.518  20.597  0.00  0.00    +0.000 HD
ENDBRANCH   3   6
BRANCH   1   8
ATOM      8  CA  UNL     1       6.895   5.841  16.022  0.00  0.00    +0.000 C 
BRANCH   8   9
ATOM      9  N   UNL     1       5.873   5.765  14.921  0.00  0.00    +0.000 NA
ATOM     10  H1  UNL     1       5.340   4.900  15.104  0.00  0.00    +0.000 HD
ATOM     11  H2  UNL     1       6.351   5.516  14.047  0.00  0.00    +0.000 HD
ENDBRANCH   8   9
BRANCH   8  12
ATOM     12  C   UNL     1       7.199   4.414  16.490  0.00  0.00    +0.000 C 
ATOM     13  O   UNL     1       8.268   4.029  16.938  0.00  0.00    +0.000 OA
BRANCH  12  14
ATOM     14  OXT UNL     1       6.113   3.608  16.349  0.00  0.00    +0.000 OA
ATOM     15  HXT UNL     1       5.418   3.970  16.960  0.00  0.00    +0.000 HD
ENDBRANCH  12  14
ENDBRANCH   8  12
ENDBRANCH   1   8
BRANCH   5  16
ATOM     16  C   UNL     1       4.040   6.398  17.578  0.00  0.00    +0.000 C 
BRANCH  16  17
ATOM     17  C   UNL     1       2.984   5.907  18.560  0.00  0.00    +0.000 A 
ATOM     18  C   UNL     1       2.559   6.813  19.554  0.00  0.00    +0.000 A 
ATOM     19  C   UNL     1       1.713   6.415  20.584  0.00  0.00    +0.000 A 
ATOM     20  C   UNL     1       1.277   5.098  20.647  0.00  0.00    +0.000 A 
ATOM     21  C   UNL     1       1.645   4.172  19.663  0.00  0.00    +0.000 A 
ATOM     22  C   UNL     1       1.168   2.853  19.750  0.00  0.00    +0.000 A 
ATOM     23  C   UNL     1       1.497   1.905  18.786  0.00  0.00    +0.000 A 
ATOM     24  C   UNL     1       2.314   2.266  17.724  0.00  0.00    +0.000 A 
ATOM     25  C   UNL     1       2.809   3.571  17.631  0.00  0.00    +0.000 A 
ATOM     26  C   UNL     1       2.498   4.563  18.593  0.00  0.00    +0.000 A 
ENDBRANCH  16  17
ENDBRANCH   5  16
TORSDOF 7
ENDMDL
MODEL 3
REMARK VINA RESULT:      -8.1      1.168      1.283
REMARK  Name = 
REMARK  7 active torsions:
REMARK  status: ('A' for Active; 'I' for Inactive)
REMARK    1  A    between atoms: N_1  and  CA_2
REMARK    2  A    between atoms: CA_2  and  C_3
REMARK    3  A    between atoms: CA_2  and  C_6
REMARK    4  A    between atoms: C_3  and  OXT_5
REMARK    5  A    between atoms: C_8  and  O_9
REMARK    6  A    between atoms: N_11  and  C_12
REMARK    7  A    between atoms: C_12  and  C_13
REMARK                            x       y       z     vdW  Elec       q    Type
REMARK                         _______ _______ _______ _____ _____    ______ ____
ROOT
ATOM      1  C   UNL     1       6.713   6.244  17.042  0.00  0.00    +0.000 C 
ATOM      2  C   UNL     1       7.766   6.449  18.141  0.00  0.00    +0.000 C 
ATOM      3  C   UNL     1       7.113   5.713  19.256  0.00  0.00    +0.000 C 
ATOM      4  N   UNL     1       5.866   5.419  19.108  0.00  0.00    +0.000 NA
ATOM      5  N   UNL     1       5.565   5.851  17.864  0.00  0.00    +0.000 N 
ENDROOT
BRANCH   3   6
ATOM      6  O   UNL     1       7.821   5.394  20.335  0.00  0.00    +0.000 OA
ATOM      7  H   UNL     1       7.681   4.477  20.620  0.00  0.00    +0.000 HD
ENDBRANCH   3   6
BRANCH   1   8
ATOM      8  CA  UNL     1       7.082   5.112  16.042  0.00  0.00    +0.000 C 
BRANCH   8   9
ATOM      9  N   UNL     1       7.736   5.563  14.765  0.00  0.00    +0.000 NA
ATOM     10  H1  UNL     1       8.588   6.066  15.058  0.00  0.00    +0.000 HD
ATOM     11  H2  UNL     1       7.184   6.333  14.369  0.00  0.00    +0.000 HD
ENDBRANCH   8   9
BRANCH   8  12
ATOM     12  C   UNL     1       5.855   4.270  15.678  0.00  0.00    +0.000 C 
ATOM     13  O   UNL     1       5.100   4.486  14.743  0.00  0.00    +0.000 OA
BRANCH  12  14
ATOM     14  OXT UNL     1       5.704   3.225  16.536  0.00  0.00    +0.000 OA
ATOM     15  HXT UNL     1       5.170   2.543  16.051  0.00  0.00    +0.000 HD
ENDBRANCH  12  14
ENDBRANCH   8  12
ENDBRANCH   1   8
BRANCH   5  16
ATOM     16  C   UNL     1       4.208   6.037  17.372  0.00  0.00    +0.000 C 
BRANCH  16  17
ATOM     17  C   UNL     1       3.108   5.815  18.402  0.00  0.00    +0.000 A 
ATOM     18  C   UNL     1       2.798   6.893  19.256  0.00  0.00    +0.000 A 
ATOM     19  C   UNL     1       1.917   6.744  20.322  0.00  0.00    +0.000 A 
ATOM     20  C   UNL     1       1.329   5.508  20.562  0.00  0.00    +0.000 A 
ATOM     21  C   UNL     1       1.581   4.418  19.720  0.00  0.00    +0.000 A 
ATOM     22  C   UNL     1       0.953   3.189  19.984  0.00  0.00    +0.000 A 
ATOM     23  C   UNL     1       1.163   2.084  19.164  0.00  0.00    +0.000 A 
ATOM     24  C   UNL     1       2.010   2.197  18.071  0.00  0.00    +0.000 A 
ATOM     25  C   UNL     1       2.654   3.409  17.804  0.00  0.00    +0.000 A 
ATOM     26  C   UNL     1       2.468   4.554  18.615  0.00  0.00    +0.000 A 
ENDBRANCH  16  17
ENDBRANCH   5  16
TORSDOF 7
ENDMDL
MODEL 4
REMARK VINA RESULT:      -8.0      1.443      2.538
REMARK  Name = 
REMARK  7 active torsions:
REMARK  status: ('A' for Active; 'I' for Inactive)
REMARK    1  A    between atoms: N_1  and  CA_2
REMARK    2  A    between atoms: CA_2  and  C_3
REMARK    3  A    between atoms: CA_2  and  C_6
REMARK    4  A    between atoms: C_3  and  OXT_5
REMARK    5  A    between atoms: C_8  and  O_9
REMARK    6  A    between atoms: N_11  and  C_12
REMARK    7  A    between atoms: C_12  and  C_13
REMARK                            x       y       z     vdW  Elec       q    Type
REMARK                         _______ _______ _______ _____ _____    ______ ____
ROOT
ATOM      1  C   UNL     1       6.418   6.180  17.482  0.00  0.00    +0.000 C 
ATOM      2  C   UNL     1       7.764   6.422  18.181  0.00  0.00    +0.000 C 
ATOM      3  C   UNL     1       7.532   5.666  19.441  0.00  0.00    +0.000 C 
ATOM      4  N   UNL     1       6.315   5.329  19.703  0.00  0.00    +0.000 NA
ATOM      5  N   UNL     1       5.613   5.749  18.628  0.00  0.00    +0.000 N 
ENDROOT
BRANCH   3   6
ATOM      6  O   UNL     1       8.563   5.373  20.229  0.00  0.00    +0.000 OA
ATOM      7  H   UNL     1       9.309   5.982  20.116  0.00  0.00    +0.000 HD
ENDBRANCH   3   6
BRANCH   1   8
ATOM      8  CA  UNL     1       6.479   5.060  16.405  0.00  0.00    +0.000 C 
BRANCH   8   9
ATOM      9  N   UNL     1       7.860   4.649  15.975  0.00  0.00    +0.000 NA
ATOM     10  H1  UNL     1       7.883   3.623  16.076  0.00  0.00    +0.000 HD
ATOM     11  H2  UNL     1       8.527   4.930  16.703  0.00  0.00    +0.000 HD
ENDBRANCH   8   9
BRANCH   8  12
ATOM     12  C   UNL     1       5.685   5.448  15.154  0.00  0.00    +0.000 C 
ATOM     13  O   UNL     1       5.399   4.695  14.236  0.00  0.00    +0.000 OA
BRANCH  12  14
ATOM     14  OXT UNL     1       5.322   6.758  15.189  0.00  0.00    +0.000 OA
ATOM     15  HXT UNL     1       5.760   7.146  15.990  0.00  0.00    +0.000 HD
ENDBRANCH  12  14
ENDBRANCH   8  12
ENDBRANCH   1   8
BRANCH   5  16
ATOM     16  C   UNL     1       4.165   5.888  18.605  0.00  0.00    +0.000 C 
BRANCH  16  17
ATOM     17  C   UNL     1       3.388   4.583  18.486  0.00  0.00    +0.000 A 
ATOM     18  C   UNL     1       3.239   4.039  17.194  0.00  0.00    +0.000 A 
ATOM     19  C   UNL     1       2.425   2.935  16.962  0.00  0.00    +0.000 A 
ATOM     20  C   UNL     1       1.735   2.353  18.019  0.00  0.00    +0.000 A 
ATOM     21  C   UNL     1       1.880   2.838  19.324  0.00  0.00    +0.000 A 
ATOM     22  C   UNL     1       1.182   2.211  20.369  0.00  0.00    +0.000 A 
ATOM     23  C   UNL     1       1.309   2.652  21.684  0.00  0.00    +0.000 A 
ATOM     24  C   UNL     1       2.134   3.730  21.966  0.00  0.00    +0.000 A 
ATOM     25  C   UNL     1       2.825   4.374  20.934  0.00  0.00    +0.000 A 
ATOM     26  C   UNL     1       2.720   3.957  19.585  0.00  0.00    +0.000 A 
ENDBRANCH  16  17
ENDBRANCH   5  16
TORSDOF 7
ENDMDL
MODEL 5
REMARK VINA RESULT:      -7.9      3.246      5.385
REMARK  Name = 
REMARK  7 active torsions:
REMARK  status: ('A' for Active; 'I' for Inactive)
REMARK    1  A    between atoms: N_1  and  CA_2
REMARK    2  A    between atoms: CA_2  and  C_3
REMARK    3  A    between atoms: CA_2  and  C_6
REMARK    4  A    between atoms: C_3  and  OXT_5
REMARK    5  A    between atoms: C_8  and  O_9
REMARK    6  A    between atoms: N_11  and  C_12
REMARK    7  A    between atoms: C_12  and  C_13
REMARK                            x       y       z     vdW  Elec       q    Type
REMARK                         _______ _______ _______ _____ _____    ______ ____
ROOT
ATOM      1  C   UNL     1       3.000   3.974  18.429  0.00  0.00    +0.000 C 
ATOM      2  C   UNL     1       4.208   3.796  17.497  0.00  0.00    +0.000 C 
ATOM      3  C   UNL     1       5.286   4.311  18.382  0.00  0.00    +0.000 C 
ATOM      4  N   UNL     1       4.917   4.973  19.426  0.00  0.00    +0.000 NA
ATOM      5  N   UNL     1       3.567   4.913  19.400  0.00  0.00    +0.000 N 
ENDROOT
BRANCH   3   6
ATOM      6  O   UNL     1       6.557   4.075  18.072  0.00  0.00    +0.000 OA
ATOM      7  H   UNL     1       6.956   4.789  17.550  0.00  0.00    +0.000 HD
ENDBRANCH   3   6
BRANCH   1   8
ATOM      8  CA  UNL     1       2.568   2.656  19.132  0.00  0.00    +0.000 C 
BRANCH   8   9
ATOM      9  N   UNL     1       3.035   1.387  18.474  0.00  0.00    +0.000 NA
ATOM     10  H1  UNL     1       2.837   0.638  19.155  0.00  0.00    +0.000 HD
ATOM     11  H2  UNL     1       4.062   1.379  18.470  0.00  0.00    +0.000 HD
ENDBRANCH   8   9
BRANCH   8  12
ATOM     12  C   UNL     1       1.045   2.581  19.285  0.00  0.00    +0.000 C 
ATOM     13  O   UNL     1       0.265   2.207  18.424  0.00  0.00    +0.000 OA
BRANCH  12  14
ATOM     14  OXT UNL     1       0.655   2.984  20.524  0.00  0.00    +0.000 OA
ATOM     15  HXT UNL     1       1.304   3.680  20.807  0.00  0.00    +0.000 HD
ENDBRANCH  12  14
ENDBRANCH   8  12
ENDBRANCH   1   8
BRANCH   5  16
ATOM     16  C   UNL     1       2.698   5.781  20.181  0.00  0.00    +0.000 C 
BRANCH  16  17
ATOM     17  C   UNL     1       2.262   7.062  19.481  0.00  0.00    +0.000 A 
ATOM     18  C   UNL     1       2.748   7.279  18.175  0.00  0.00    +0.000 A 
ATOM     19  C   UNL     1       2.530   8.482  17.511  0.00  0.00    +0.000 A 
ATOM     20  C   UNL     1       1.824   9.499  18.142  0.00  0.00    +0.000 A 
ATOM     21  C   UNL     1       1.293   9.315  19.425  0.00  0.00    +0.000 A 
ATOM     22  C   UNL     1       0.568  10.360  20.022  0.00  0.00    +0.000 A 
ATOM     23  C   UNL     1       0.011  10.214  21.290  0.00  0.00    +0.000 A 
ATOM     24  C   UNL     1       0.178   9.021  21.976  0.00  0.00    +0.000 A 
ATOM     25  C   UNL     1       0.909   7.977  21.401  0.00  0.00    +0.000 A 
ATOM     26  C   UNL     1       1.493   8.086  20.115  0.00  0.00    +0.000 A 
ENDBRANCH  16  17
ENDBRANCH   5  16
TORSDOF 7
ENDMDL
MODEL 6
REMARK VINA RESULT:      -7.8      1.545      2.730
REMARK  Name = 
REMARK  7 active torsions:
REMARK  status: ('A' for Active; 'I' for Inactive)
REMARK    1  A    between atoms: N_1  and  CA_2
REMARK    2  A    between atoms: CA_2  and  C_3
REMARK    3  A    between atoms: CA_2  and  C_6
REMARK    4  A    between atoms: C_3  and  OXT_5
REMARK    5  A    between atoms: C_8  and  O_9
REMARK    6  A    between atoms: N_11  and  C_12
REMARK    7  A    between atoms: C_12  and  C_13
REMARK                            x       y       z     vdW  Elec       q    Type
REMARK                         _______ _______ _______ _____ _____    ______ ____
ROOT
ATOM      1  C   UNL     1       6.109   5.538  16.596  0.00  0.00    +0.000 C 
ATOM      2  C   UNL     1       6.962   6.651  17.223  0.00  0.00    +0.000 C 
ATOM      3  C   UNL     1       7.412   5.956  18.458  0.00  0.00    +0.000 C 
ATOM      4  N   UNL     1       6.789   4.873  18.778  0.00  0.00    +0.000 NA
ATOM      5  N   UNL     1       5.913   4.680  17.768  0.00  0.00    +0.000 N 
ENDROOT
BRANCH   3   6
ATOM      6  O   UNL     1       8.415   6.465  19.168  0.00  0.00    +0.000 OA
ATOM      7  H   UNL     1       8.115   6.922  19.969  0.00  0.00    +0.000 HD
ENDBRANCH   3   6
BRANCH   1   8
ATOM      8  CA  UNL     1       6.845   4.763  15.468  0.00  0.00    +0.000 C 
BRANCH   8   9
ATOM      9  N   UNL     1       7.882   5.547  14.712  0.00  0.00    +0.000 NA
ATOM     10  H1  UNL     1       8.778   5.073  14.907  0.00  0.00    +0.000 HD
ATOM     11  H2  UNL     1       8.029   6.443  15.192  0.00  0.00    +0.000 HD
ENDBRANCH   8   9
BRANCH   8  12
ATOM     12  C   UNL     1       5.854   4.181  14.454  0.00  0.00    +0.000 C 
ATOM     13  O   UNL     1       4.669   4.465  14.381  0.00  0.00    +0.000 OA
BRANCH  12  14
ATOM     14  OXT UNL     1       6.465   3.296  13.622  0.00  0.00    +0.000 OA
ATOM     15  HXT UNL     1       5.876   3.208  12.828  0.00  0.00    +0.000 HD
ENDBRANCH  12  14
ENDBRANCH   8  12
ENDBRANCH   1   8
BRANCH   5  16
ATOM     16  C   UNL     1       4.773   3.778  17.838  0.00  0.00    +0.000 C 
BRANCH  16  17
ATOM     17  C   UNL     1       3.917   3.911  19.091  0.00  0.00    +0.000 A 
ATOM     18  C   UNL     1       3.772   2.761  19.895  0.00  0.00    +0.000 A 
ATOM     19  C   UNL     1       2.894   2.738  20.974  0.00  0.00    +0.000 A 
ATOM     20  C   UNL     1       2.136   3.864  21.271  0.00  0.00    +0.000 A 
ATOM     21  C   UNL     1       2.273   5.039  20.521  0.00  0.00    +0.000 A 
ATOM     22  C   UNL     1       1.503   6.163  20.863  0.00  0.00    +0.000 A 
ATOM     23  C   UNL     1       1.619   7.355  20.153  0.00  0.00    +0.000 A 
ATOM     24  C   UNL     1       2.504   7.433  19.089  0.00  0.00    +0.000 A 
ATOM     25  C   UNL     1       3.266   6.318  18.726  0.00  0.00    +0.000 A 
ATOM     26  C   UNL     1       3.176   5.088  19.422  0.00  0.00    +0.000 A 
ENDBRANCH  16  17
ENDBRANCH   5  16
TORSDOF 7
ENDMDL
MODEL 7
REMARK VINA RESULT:      -7.7      1.381      3.384
REMARK  Name = 
REMARK  7 active torsions:
REMARK  status: ('A' for Active; 'I' for Inactive)
REMARK    1  A    between atoms: N_1  and  CA_2
REMARK    2  A    between atoms: CA_2  and  C_3
REMARK    3  A    between atoms: CA_2  and  C_6
REMARK    4  A    between atoms: C_3  and  OXT_5
REMARK    5  A    between atoms: C_8  and  O_9
REMARK    6  A    between atoms: N_11  and  C_12
REMARK    7  A    between atoms: C_12  and  C_13
REMARK                            x       y       z     vdW  Elec       q    Type
REMARK                         _______ _______ _______ _____ _____    ______ ____
ROOT
ATOM      1  C   UNL     1       6.432   4.640  17.149  0.00  0.00    +0.000 C 
ATOM      2  C   UNL     1       7.576   4.626  16.123  0.00  0.00    +0.000 C 
ATOM      3  C   UNL     1       6.816   4.984  14.896  0.00  0.00    +0.000 C 
ATOM      4  N   UNL     1       5.530   4.904  14.962  0.00  0.00    +0.000 NA
ATOM      5  N   UNL     1       5.282   4.561  16.245  0.00  0.00    +0.000 N 
ENDROOT
BRANCH   3   6
ATOM      6  O   UNL     1       7.474   5.363  13.804  0.00  0.00    +0.000 OA
ATOM      7  H   UNL     1       8.362   5.701  13.998  0.00  0.00    +0.000 HD
ENDBRANCH   3   6
BRANCH   1   8
ATOM      8  CA  UNL     1       6.378   5.947  17.989  0.00  0.00    +0.000 C 
BRANCH   8   9
ATOM      9  N   UNL     1       6.553   7.224  17.214  0.00  0.00    +0.000 NA
ATOM     10  H1  UNL     1       7.448   7.117  16.711  0.00  0.00    +0.000 HD
ATOM     11  H2  UNL     1       6.789   7.977  17.871  0.00  0.00    +0.000 HD
ENDBRANCH   8   9
BRANCH   8  12
ATOM     12  C   UNL     1       7.416   5.927  19.116  0.00  0.00    +0.000 C 
ATOM     13  O   UNL     1       7.418   5.157  20.063  0.00  0.00    +0.000 OA
BRANCH  12  14
ATOM     14  OXT UNL     1       8.362   6.887  18.931  0.00  0.00    +0.000 OA
ATOM     15  HXT UNL     1       8.093   7.655  19.500  0.00  0.00    +0.000 HD
ENDBRANCH  12  14
ENDBRANCH   8  12
ENDBRANCH   1   8
BRANCH   5  16
ATOM     16  C   UNL     1       4.009   4.037  16.717  0.00  0.00    +0.000 C 
BRANCH  16  17
ATOM     17  C   UNL     1       3.312   4.880  17.777  0.00  0.00    +0.000 A 
ATOM     18  C   UNL     1       3.175   6.259  17.515  0.00  0.00    +0.000 A 
ATOM     19  C   UNL     1       2.690   7.136  18.479  0.00  0.00    +0.000 A 
ATOM     20  C   UNL     1       2.335   6.653  19.733  0.00  0.00    +0.000 A 
ATOM     21  C   UNL     1       2.422   5.287  20.027  0.00  0.00    +0.000 A 
ATOM     22  C   UNL     1       2.037   4.834  21.300  0.00  0.00    +0.000 A 
ATOM     23  C   UNL     1       2.094   3.483  21.629  0.00  0.00    +0.000 A 
ATOM     24  C   UNL     1       2.542   2.569  20.688  0.00  0.00    +0.000 A 
ATOM     25  C   UNL     1       2.944   3.006  19.421  0.00  0.00    +0.000 A 
ATOM     26  C   UNL     1       2.903   4.371  19.049  0.00  0.00    +0.000 A 
ENDBRANCH  16  17
ENDBRANCH   5  16
TORSDOF 7
ENDMDL
MODEL 8
REMARK VINA RESULT:      -7.7      2.843      5.143
REMARK  Name = 
REMARK  7 active torsions:
REMARK  status: ('A' for Active; 'I' for Inactive)
REMARK    1  A    between atoms: N_1  and  CA_2
REMARK    2  A    between atoms: CA_2  and  C_3
REMARK    3  A    between atoms: CA_2  and  C_6
REMARK    4  A    between atoms: C_3  and  OXT_5
REMARK    5  A    between atoms: C_8  and  O_9
REMARK    6  A    between atoms: N_11  and  C_12
REMARK    7  A    between atoms: C_12  and  C_13
REMARK                            x       y       z     vdW  Elec       q    Type
REMARK                         _______ _______ _______ _____ _____    ______ ____
ROOT
ATOM      1  C   UNL     1       3.861   3.716  19.466  0.00  0.00    +0.000 C 
ATOM      2  C   UNL     1       3.196   2.355  19.207  0.00  0.00    +0.000 C 
ATOM      3  C   UNL     1       1.834   2.810  18.823  0.00  0.00    +0.000 C 
ATOM      4  N   UNL     1       1.533   4.036  19.087  0.00  0.00    +0.000 NA
ATOM      5  N   UNL     1       2.668   4.556  19.602  0.00  0.00    +0.000 N 
ENDROOT
BRANCH   3   6
ATOM      6  O   UNL     1       0.998   1.957  18.237  0.00  0.00    +0.000 OA
ATOM      7  H   UNL     1       1.094   1.050  18.566  0.00  0.00    +0.000 HD
ENDBRANCH   3   6
BRANCH   1   8
ATOM      8  CA  UNL     1       4.741   4.204  18.281  0.00  0.00    +0.000 C 
BRANCH   8   9
ATOM      9  N   UNL     1       4.911   3.223  17.153  0.00  0.00    +0.000 NA
ATOM     10  H1  UNL     1       5.353   3.760  16.390  0.00  0.00    +0.000 HD
ATOM     11  H2  UNL     1       3.989   3.030  16.745  0.00  0.00    +0.000 HD
ENDBRANCH   8   9
BRANCH   8  12
ATOM     12  C   UNL     1       6.134   4.626  18.760  0.00  0.00    +0.000 C 
ATOM     13  O   UNL     1       6.366   5.316  19.741  0.00  0.00    +0.000 OA
BRANCH  12  14
ATOM     14  OXT UNL     1       7.105   4.128  17.949  0.00  0.00    +0.000 OA
ATOM     15  HXT UNL     1       7.929   4.078  18.500  0.00  0.00    +0.000 HD
ENDBRANCH  12  14
ENDBRANCH   8  12
ENDBRANCH   1   8
BRANCH   5  16
ATOM     16  C   UNL     1       2.728   5.805  20.346  0.00  0.00    +0.000 C 
BRANCH  16  17
ATOM     17  C   UNL     1       2.270   7.040  19.580  0.00  0.00    +0.000 A 
ATOM     18  C   UNL     1       2.742   7.190  18.260  0.00  0.00    +0.000 A 
ATOM     19  C   UNL     1       2.503   8.351  17.532  0.00  0.00    +0.000 A 
ATOM     20  C   UNL     1       1.790   9.394  18.112  0.00  0.00    +0.000 A 
ATOM     21  C   UNL     1       1.272   9.275  19.408  0.00  0.00    +0.000 A 
ATOM     22  C   UNL     1       0.541  10.343  19.953  0.00  0.00    +0.000 A 
ATOM     23  C   UNL     1      -0.004  10.262  21.231  0.00  0.00    +0.000 A 
ATOM     24  C   UNL     1       0.183   9.111  21.981  0.00  0.00    +0.000 A 
ATOM     25  C   UNL     1       0.922   8.045  21.458  0.00  0.00    +0.000 A 
ATOM     26  C   UNL     1       1.493   8.089  20.163  0.00  0.00    +0.000 A 
ENDBRANCH  16  17
ENDBRANCH   5  16
TORSDOF 7
ENDMDL
MODEL 9
REMARK VINA RESULT:      -7.7      1.640      2.611
REMARK  Name = 
REMARK  7 active torsions:
REMARK  status: ('A' for Active; 'I' for Inactive)
REMARK    1  A    between atoms: N_1  and  CA_2
REMARK    2  A    between atoms: CA_2  and  C_3
REMARK    3  A    between atoms: CA_2  and  C_6
REMARK    4  A    between atoms: C_3  and  OXT_5
REMARK    5  A    between atoms: C_8  and  O_9
REMARK    6  A    between atoms: N_11  and  C_12
REMARK    7  A    between atoms: C_12  and  C_13
REMARK                            x       y       z     vdW  Elec       q    Type
REMARK                         _______ _______ _______ _____ _____    ______ ____
ROOT
ATOM      1  C   UNL     1       6.592   6.691  17.617  0.00  0.00    +0.000 C 
ATOM      2  C   UNL     1       7.824   6.806  18.528  0.00  0.00    +0.000 C 
ATOM      3  C   UNL     1       7.530   5.708  19.487  0.00  0.00    +0.000 C 
ATOM      4  N   UNL     1       6.329   5.236  19.482  0.00  0.00    +0.000 NA
ATOM      5  N   UNL     1       5.712   5.901  18.482  0.00  0.00    +0.000 N 
ENDROOT
BRANCH   3   6
ATOM      6  O   UNL     1       8.491   5.266  20.293  0.00  0.00    +0.000 OA
ATOM      7  H   UNL     1       8.329   5.480  21.225  0.00  0.00    +0.000 HD
ENDBRANCH   3   6
BRANCH   1   8
ATOM      8  CA  UNL     1       6.879   5.932  16.291  0.00  0.00    +0.000 C 
BRANCH   8   9
ATOM      9  N   UNL     1       5.768   5.954  15.277  0.00  0.00    +0.000 NA
ATOM     10  H1  UNL     1       4.964   5.508  15.746  0.00  0.00    +0.000 HD
ATOM     11  H2  UNL     1       5.976   5.262  14.549  0.00  0.00    +0.000 HD
ENDBRANCH   8   9
BRANCH   8  12
ATOM     12  C   UNL     1       7.254   4.470  16.557  0.00  0.00    +0.000 C 
ATOM     13  O   UNL     1       8.254   4.092  17.147  0.00  0.00    +0.000 OA
BRANCH  12  14
ATOM     14  OXT UNL     1       6.318   3.623  16.051  0.00  0.00    +0.000 OA
ATOM     15  HXT UNL     1       6.686   3.281  15.195  0.00  0.00    +0.000 HD
ENDBRANCH  12  14
ENDBRANCH   8  12
ENDBRANCH   1   8
BRANCH   5  16
ATOM     16  C   UNL     1       4.268   5.951  18.306  0.00  0.00    +0.000 C 
BRANCH  16  17
ATOM     17  C   UNL     1       3.571   4.598  18.268  0.00  0.00    +0.000 A 
ATOM     18  C   UNL     1       3.524   3.933  17.025  0.00  0.00    +0.000 A 
ATOM     19  C   UNL     1       2.785   2.768  16.854  0.00  0.00    +0.000 A 
ATOM     20  C   UNL     1       2.069   2.241  17.923  0.00  0.00    +0.000 A 
ATOM     21  C   UNL     1       2.115   2.848  19.184  0.00  0.00    +0.000 A 
ATOM     22  C   UNL     1       1.394   2.276  20.245  0.00  0.00    +0.000 A 
ATOM     23  C   UNL     1       1.423   2.838  21.519  0.00  0.00    +0.000 A 
ATOM     24  C   UNL     1       2.172   3.983  21.743  0.00  0.00    +0.000 A 
ATOM     25  C   UNL     1       2.884   4.573  20.693  0.00  0.00    +0.000 A 
ATOM     26  C   UNL     1       2.878   4.033  19.384  0.00  0.00    +0.000 A 
ENDBRANCH  16  17
ENDBRANCH   5  16
TORSDOF 7
ENDMDL
