MODEL 1
REMARK VINA RESULT:      -9.3      0.000      0.000
REMARK  Name = 
REMARK  5 active torsions:
REMARK  status: ('A' for Active; 'I' for Inactive)
REMARK    1  A    between atoms: C_1  and  N_2
REMARK    2  A    between atoms: N_2  and  C_3
REMARK    3  A    between atoms: C_3  and  C_4
REMARK    4  A    between atoms: N_6  and  C_7
REMARK    5  A    between atoms: C_16  and  C_18
REMARK                            x       y       z     vdW  Elec       q    Type
REMARK                         _______ _______ _______ _____ _____    ______ ____
ROOT
ATOM      1  C   UNL     1       3.429   3.109  19.681  0.00  0.00    +0.000 C 
ATOM      2  N   UNL     1       3.338   4.549  19.486  0.00  0.00    +0.000 N 
ATOM      3  C   UNL     1       2.166   5.105  20.022  0.00  0.00    +0.000 C 
ATOM      4  O   UNL     1       1.317   4.420  20.596  0.00  0.00    +0.000 OA
ENDROOT
BRANCH   3   5
ATOM      5  C   UNL     1       1.883   6.555  19.948  0.00  0.00    +0.000 A 
ATOM      6  C   UNL     1       2.075   7.203  18.730  0.00  0.00    +0.000 A 
ATOM      7  C   UNL     1       1.851   8.581  18.607  0.00  0.00    +0.000 A 
ATOM      8  C   UNL     1       1.421   9.378  19.689  0.00  0.00    +0.000 A 
ATOM      9  C   UNL     1       1.256   8.682  20.884  0.00  0.00    +0.000 A 
ATOM     10  C   UNL     1       1.521   7.316  21.040  0.00  0.00    +0.000 A 
ATOM     11  S   UNL     1       0.628   9.496  22.298  0.00  0.00    +0.000 S 
ATOM     12  O   UNL     1       1.694   9.444  23.285  0.00  0.00    +0.000 OA
ATOM     13  O   UNL     1      -0.635   8.845  22.580  0.00  0.00    +0.000 OA
ATOM     14  N   UNL     1       0.368  11.010  21.886  0.00  0.00    +0.000 NA
ATOM     15  C   UNL     1       0.649  11.470  20.712  0.00  0.00    +0.000 C 
ATOM     16  C   UNL     1       0.374  12.989  20.684  0.00  0.00    +0.000 C 
ATOM     17  C   UNL     1      -0.026  13.616  19.366  0.00  0.00    +0.000 C 
ATOM     18  C   UNL     1       1.196  13.919  18.509  0.00  0.00    +0.000 C 
ATOM     19  C   UNL     1       2.162  12.749  18.415  0.00  0.00    +0.000 C 
ATOM     20  C   UNL     1       1.439  11.413  18.305  0.00  0.00    +0.000 C 
ATOM     21  N   UNL     1       1.193  10.779  19.618  0.00  0.00    +0.000 N 
ENDBRANCH   3   5
BRANCH   2  22
ATOM     22  C   UNL     1       4.529   5.315  19.038  0.00  0.00    +0.000 C 
BRANCH  22  23
ATOM     23  C   UNL     1       4.895   5.446  17.549  0.00  0.00    +0.000 C 
ATOM     24  O   UNL     1       4.478   6.362  16.838  0.00  0.00    +0.000 OA
ATOM     25  N   UNL     1       5.659   4.392  17.045  0.00  0.00    +0.000 N 
ATOM     26  H   UNL     1       5.494   3.481  17.467  0.00  0.00    +0.000 HD
BRANCH  25  27
ATOM     27  C   UNL     1       5.998   4.388  15.669  0.00  0.00    +0.000 A 
ATOM     28  C   UNL     1       5.311   3.558  14.771  0.00  0.00    +0.000 A 
ATOM     29  C   UNL     1       5.698   3.503  13.430  0.00  0.00    +0.000 A 
ATOM     30  C   UNL     1       6.782   4.260  12.997  0.00  0.00    +0.000 A 
ATOM     31  F   UNL     1       7.172   4.173  11.718  0.00  0.00    +0.000 F 
ATOM     32  C   UNL     1       7.460   5.094  13.880  0.00  0.00    +0.000 A 
ATOM     33  F   UNL     1       8.522   5.794  13.457  0.00  0.00    +0.000 F 
ATOM     34  C   UNL     1       7.052   5.178  15.205  0.00  0.00    +0.000 A 
ATOM     35  F   UNL     1       7.725   5.957  16.068  0.00  0.00    +0.000 F 
ENDBRANCH  25  27
ENDBRANCH  22  23
ENDBRANCH   2  22
TORSDOF 4
ENDMDL
MODEL 2
REMARK VINA RESULT:      -9.1      1.066      1.445
REMARK  Name = 
REMARK  5 active torsions:
REMARK  status: ('A' for Active; 'I' for Inactive)
REMARK    1  A    between atoms: C_1  and  N_2
REMARK    2  A    between atoms: N_2  and  C_3
REMARK    3  A    between atoms: C_3  and  C_4
REMARK    4  A    between atoms: N_6  and  C_7
REMARK    5  A    between atoms: C_16  and  C_18
REMARK                            x       y       z     vdW  Elec       q    Type
REMARK                         _______ _______ _______ _____ _____    ______ ____
ROOT
ATOM      1  C   UNL     1       2.999   2.958  20.196  0.00  0.00    +0.000 C 
ATOM      2  N   UNL     1       3.035   4.400  19.994  0.00  0.00    +0.000 N 
ATOM      3  C   UNL     1       1.809   5.026  20.265  0.00  0.00    +0.000 C 
ATOM      4  O   UNL     1       0.818   4.395  20.636  0.00  0.00    +0.000 OA
ENDROOT
BRANCH   3   5
ATOM      5  C   UNL     1       1.633   6.489  20.139  0.00  0.00    +0.000 A 
ATOM      6  C   UNL     1       1.895   7.081  18.906  0.00  0.00    +0.000 A 
ATOM      7  C   UNL     1       1.773   8.467  18.735  0.00  0.00    +0.000 A 
ATOM      8  C   UNL     1       1.381   9.327  19.782  0.00  0.00    +0.000 A 
ATOM      9  C   UNL     1       1.143   8.685  20.994  0.00  0.00    +0.000 A 
ATOM     10  C   UNL     1       1.306   7.310  21.199  0.00  0.00    +0.000 A 
ATOM     11  S   UNL     1       0.548   9.588  22.369  0.00  0.00    +0.000 S 
ATOM     12  O   UNL     1       1.589   9.493  23.378  0.00  0.00    +0.000 OA
ATOM     13  O   UNL     1      -0.764   9.038  22.643  0.00  0.00    +0.000 OA
ATOM     14  N   UNL     1       0.406  11.102  21.904  0.00  0.00    +0.000 NA
ATOM     15  C   UNL     1       0.742  11.502  20.722  0.00  0.00    +0.000 C 
ATOM     16  C   UNL     1       0.578  13.035  20.640  0.00  0.00    +0.000 C 
ATOM     17  C   UNL     1       0.249  13.645  19.295  0.00  0.00    +0.000 C 
ATOM     18  C   UNL     1       1.506  13.832  18.455  0.00  0.00    +0.000 C 
ATOM     19  C   UNL     1       2.387  12.593  18.419  0.00  0.00    +0.000 C 
ATOM     20  C   UNL     1       1.571  11.309  18.335  0.00  0.00    +0.000 C 
ATOM     21  N   UNL     1       1.255  10.739  19.662  0.00  0.00    +0.000 N 
ENDBRANCH   3   5
BRANCH   2  22
ATOM     22  C   UNL     1       4.338   5.093  19.819  0.00  0.00    +0.000 C 
BRANCH  22  23
ATOM     23  C   UNL     1       4.942   5.344  18.426  0.00  0.00    +0.000 C 
ATOM     24  O   UNL     1       4.878   6.435  17.859  0.00  0.00    +0.000 OA
ATOM     25  N   UNL     1       5.485   4.210  17.819  0.00  0.00    +0.000 N 
ATOM     26  H   UNL     1       5.037   3.326  18.045  0.00  0.00    +0.000 HD
BRANCH  25  27
ATOM     27  C   UNL     1       6.014   4.323  16.508  0.00  0.00    +0.000 A 
ATOM     28  C   UNL     1       7.322   4.786  16.307  0.00  0.00    +0.000 A 
ATOM     29  C   UNL     1       7.811   4.965  15.011  0.00  0.00    +0.000 A 
ATOM     30  C   UNL     1       6.984   4.702  13.923  0.00  0.00    +0.000 A 
ATOM     31  F   UNL     1       7.447   4.914  12.683  0.00  0.00    +0.000 F 
ATOM     32  C   UNL     1       5.690   4.232  14.115  0.00  0.00    +0.000 A 
ATOM     33  F   UNL     1       4.894   4.012  13.060  0.00  0.00    +0.000 F 
ATOM     34  C   UNL     1       5.216   4.016  15.403  0.00  0.00    +0.000 A 
ATOM     35  F   UNL     1       3.955   3.593  15.594  0.00  0.00    +0.000 F 
ENDBRANCH  25  27
ENDBRANCH  22  23
ENDBRANCH   2  22
TORSDOF 4
ENDMDL
MODEL 3
REMARK VINA RESULT:      -8.6      1.284      1.677
REMARK  Name = 
REMARK  5 active torsions:
REMARK  status: ('A' for Active; 'I' for Inactive)
REMARK    1  A    between atoms: C_1  and  N_2
REMARK    2  A    between atoms: N_2  and  C_3
REMARK    3  A    between atoms: C_3  and  C_4
REMARK    4  A    between atoms: N_6  and  C_7
REMARK    5  A    between atoms: C_16  and  C_18
REMARK                            x       y       z     vdW  Elec       q    Type
REMARK                         _______ _______ _______ _____ _____    ______ ____
ROOT
ATOM      1  C   UNL     1       4.694   4.074  18.884  0.00  0.00    +0.000 C 
ATOM      2  N   UNL     1       4.164   5.423  18.738  0.00  0.00    +0.000 N 
ATOM      3  C   UNL     1       3.064   5.677  19.571  0.00  0.00    +0.000 C 
ATOM      4  O   UNL     1       2.614   4.827  20.341  0.00  0.00    +0.000 OA
ENDROOT
BRANCH   3   5
ATOM      5  C   UNL     1       2.385   6.991  19.592  0.00  0.00    +0.000 A 
ATOM      6  C   UNL     1       2.417   7.768  18.437  0.00  0.00    +0.000 A 
ATOM      7  C   UNL     1       1.816   9.034  18.407  0.00  0.00    +0.000 A 
ATOM      8  C   UNL     1       1.152   9.584  19.523  0.00  0.00    +0.000 A 
ATOM      9  C   UNL     1       1.160   8.770  20.653  0.00  0.00    +0.000 A 
ATOM     10  C   UNL     1       1.796   7.525  20.720  0.00  0.00    +0.000 A 
ATOM     11  S   UNL     1       0.293   9.253  22.093  0.00  0.00    +0.000 S 
ATOM     12  O   UNL     1       1.305   9.418  23.123  0.00  0.00    +0.000 OA
ATOM     13  O   UNL     1      -0.741   8.254  22.265  0.00  0.00    +0.000 OA
ATOM     14  N   UNL     1      -0.373  10.664  21.784  0.00  0.00    +0.000 NA
ATOM     15  C   UNL     1      -0.205  11.282  20.662  0.00  0.00    +0.000 C 
ATOM     16  C   UNL     1      -0.897  12.661  20.734  0.00  0.00    +0.000 C 
ATOM     17  C   UNL     1      -1.424  13.261  19.449  0.00  0.00    +0.000 C 
ATOM     18  C   UNL     1      -0.317  13.964  18.676  0.00  0.00    +0.000 C 
ATOM     19  C   UNL     1       0.942  13.123  18.542  0.00  0.00    +0.000 C 
ATOM     20  C   UNL     1       0.628  11.653  18.298  0.00  0.00    +0.000 C 
ATOM     21  N   UNL     1       0.538  10.866  19.546  0.00  0.00    +0.000 N 
ENDBRANCH   3   5
BRANCH   2  22
ATOM     22  C   UNL     1       4.942   6.451  17.999  0.00  0.00    +0.000 C 
BRANCH  22  23
ATOM     23  C   UNL     1       5.338   6.262  16.524  0.00  0.00    +0.000 C 
ATOM     24  O   UNL     1       4.869   6.948  15.614  0.00  0.00    +0.000 OA
ATOM     25  N   UNL     1       6.199   5.188  16.289  0.00  0.00    +0.000 N 
ATOM     26  H   UNL     1       6.096   4.390  16.911  0.00  0.00    +0.000 HD
BRANCH  25  27
ATOM     27  C   UNL     1       6.576   4.892  14.955  0.00  0.00    +0.000 A 
ATOM     28  C   UNL     1       7.697   5.509  14.380  0.00  0.00    +0.000 A 
ATOM     29  C   UNL     1       8.021   5.269  13.042  0.00  0.00    +0.000 A 
ATOM     30  C   UNL     1       7.210   4.434  12.280  0.00  0.00    +0.000 A 
ATOM     31  F   UNL     1       7.504   4.241  10.987  0.00  0.00    +0.000 F 
ATOM     32  C   UNL     1       6.104   3.811  12.846  0.00  0.00    +0.000 A 
ATOM     33  F   UNL     1       5.314   3.034  12.092  0.00  0.00    +0.000 F 
ATOM     34  C   UNL     1       5.804   4.018  14.187  0.00  0.00    +0.000 A 
ATOM     35  F   UNL     1       4.717   3.443  14.729  0.00  0.00    +0.000 F 
ENDBRANCH  25  27
ENDBRANCH  22  23
ENDBRANCH   2  22
TORSDOF 4
ENDMDL
MODEL 4
REMARK VINA RESULT:      -8.3      4.180      9.482
REMARK  Name = 
REMARK  5 active torsions:
REMARK  status: ('A' for Active; 'I' for Inactive)
REMARK    1  A    between atoms: C_1  and  N_2
REMARK    2  A    between atoms: N_2  and  C_3
REMARK    3  A    between atoms: C_3  and  C_4
REMARK    4  A    between atoms: N_6  and  C_7
REMARK    5  A    between atoms: C_16  and  C_18
REMARK                            x       y       z     vdW  Elec       q    Type
REMARK                         _______ _______ _______ _____ _____    ______ ____
ROOT
ATOM      1  C   UNL     1       1.953   3.946  21.604  0.00  0.00    +0.000 C 
ATOM      2  N   UNL     1       2.613   4.414  20.393  0.00  0.00    +0.000 N 
ATOM      3  C   UNL     1       3.258   3.389  19.686  0.00  0.00    +0.000 C 
ATOM      4  O   UNL     1       3.249   2.218  20.071  0.00  0.00    +0.000 OA
ENDROOT
BRANCH   3   5
ATOM      5  C   UNL     1       3.976   3.645  18.418  0.00  0.00    +0.000 A 
ATOM      6  C   UNL     1       3.337   3.328  17.222  0.00  0.00    +0.000 A 
ATOM      7  C   UNL     1       3.979   3.521  15.992  0.00  0.00    +0.000 A 
ATOM      8  C   UNL     1       5.286   4.043  15.893  0.00  0.00    +0.000 A 
ATOM      9  C   UNL     1       5.882   4.332  17.118  0.00  0.00    +0.000 A 
ATOM     10  C   UNL     1       5.278   4.100  18.359  0.00  0.00    +0.000 A 
ATOM     11  S   UNL     1       7.460   5.083  17.175  0.00  0.00    +0.000 S 
ATOM     12  O   UNL     1       8.329   4.117  17.826  0.00  0.00    +0.000 OA
ATOM     13  O   UNL     1       7.243   6.375  17.791  0.00  0.00    +0.000 OA
ATOM     14  N   UNL     1       7.935   5.281  15.670  0.00  0.00    +0.000 NA
ATOM     15  C   UNL     1       7.234   4.883  14.660  0.00  0.00    +0.000 C 
ATOM     16  C   UNL     1       8.028   5.134  13.360  0.00  0.00    +0.000 C 
ATOM     17  C   UNL     1       7.250   5.397  12.089  0.00  0.00    +0.000 C 
ATOM     18  C   UNL     1       6.795   4.095  11.445  0.00  0.00    +0.000 C 
ATOM     19  C   UNL     1       6.142   3.139  12.431  0.00  0.00    +0.000 C 
ATOM     20  C   UNL     1       5.260   3.866  13.438  0.00  0.00    +0.000 C 
ATOM     21  N   UNL     1       5.983   4.246  14.671  0.00  0.00    +0.000 N 
ENDBRANCH   3   5
BRANCH   2  22
ATOM     22  C   UNL     1       2.332   5.777  19.873  0.00  0.00    +0.000 C 
BRANCH  22  23
ATOM     23  C   UNL     1       1.330   6.717  20.565  0.00  0.00    +0.000 C 
ATOM     24  O   UNL     1       0.168   6.388  20.812  0.00  0.00    +0.000 OA
ATOM     25  N   UNL     1       1.814   8.005  20.805  0.00  0.00    +0.000 N 
ATOM     26  H   UNL     1       2.486   8.360  20.130  0.00  0.00    +0.000 HD
BRANCH  25  27
ATOM     27  C   UNL     1       0.947   8.965  21.384  0.00  0.00    +0.000 A 
ATOM     28  C   UNL     1       0.693   8.952  22.763  0.00  0.00    +0.000 A 
ATOM     29  C   UNL     1      -0.219   9.854  23.317  0.00  0.00    +0.000 A 
ATOM     30  C   UNL     1      -0.888  10.748  22.489  0.00  0.00    +0.000 A 
ATOM     31  F   UNL     1      -1.790  11.584  23.021  0.00  0.00    +0.000 F 
ATOM     32  C   UNL     1      -0.633  10.774  21.122  0.00  0.00    +0.000 A 
ATOM     33  F   UNL     1      -1.308  11.620  20.331  0.00  0.00    +0.000 F 
ATOM     34  C   UNL     1       0.303   9.904  20.576  0.00  0.00    +0.000 A 
ATOM     35  F   UNL     1       0.528   9.904  19.252  0.00  0.00    +0.000 F 
ENDBRANCH  25  27
ENDBRANCH  22  23
ENDBRANCH   2  22
TORSDOF 4
ENDMDL
MODEL 5
REMARK VINA RESULT:      -8.3      4.355      9.090
REMARK  Name = 
REMARK  5 active torsions:
REMARK  status: ('A' for Active; 'I' for Inactive)
REMARK    1  A    between atoms: C_1  and  N_2
REMARK    2  A    between atoms: N_2  and  C_3
REMARK    3  A    between atoms: C_3  and  C_4
REMARK    4  A    between atoms: N_6  and  C_7
REMARK    5  A    between atoms: C_16  and  C_18
REMARK                            x       y       z     vdW  Elec       q    Type
REMARK                         _______ _______ _______ _____ _____    ______ ____
ROOT
ATOM      1  C   UNL     1       1.780   3.395  21.600  0.00  0.00    +0.000 C 
ATOM      2  N   UNL     1       2.614   3.930  20.532  0.00  0.00    +0.000 N 
ATOM      3  C   UNL     1       2.828   3.016  19.489  0.00  0.00    +0.000 C 
ATOM      4  O   UNL     1       2.345   1.882  19.500  0.00  0.00    +0.000 OA
ENDROOT
BRANCH   3   5
ATOM      5  C   UNL     1       3.633   3.363  18.298  0.00  0.00    +0.000 A 
ATOM      6  C   UNL     1       3.150   2.992  17.045  0.00  0.00    +0.000 A 
ATOM      7  C   UNL     1       3.883   3.268  15.883  0.00  0.00    +0.000 A 
ATOM      8  C   UNL     1       5.129   3.929  15.913  0.00  0.00    +0.000 A 
ATOM      9  C   UNL     1       5.568   4.268  17.190  0.00  0.00    +0.000 A 
ATOM     10  C   UNL     1       4.876   3.958  18.366  0.00  0.00    +0.000 A 
ATOM     11  S   UNL     1       7.043   5.185  17.401  0.00  0.00    +0.000 S 
ATOM     12  O   UNL     1       7.945   4.312  18.133  0.00  0.00    +0.000 OA
ATOM     13  O   UNL     1       6.626   6.439  17.994  0.00  0.00    +0.000 OA
ATOM     14  N   UNL     1       7.636   5.451  15.949  0.00  0.00    +0.000 NA
ATOM     15  C   UNL     1       7.084   4.990  14.876  0.00  0.00    +0.000 C 
ATOM     16  C   UNL     1       7.968   5.341  13.660  0.00  0.00    +0.000 C 
ATOM     17  C   UNL     1       7.293   5.532  12.319  0.00  0.00    +0.000 C 
ATOM     18  C   UNL     1       7.047   4.195  11.633  0.00  0.00    +0.000 C 
ATOM     19  C   UNL     1       6.410   3.163  12.550  0.00  0.00    +0.000 C 
ATOM     20  C   UNL     1       5.361   3.778  13.467  0.00  0.00    +0.000 C 
ATOM     21  N   UNL     1       5.915   4.221  14.764  0.00  0.00    +0.000 N 
ENDBRANCH   3   5
BRANCH   2  22
ATOM     22  C   UNL     1       2.911   5.385  20.479  0.00  0.00    +0.000 C 
BRANCH  22  23
ATOM     23  C   UNL     1       1.797   6.442  20.575  0.00  0.00    +0.000 C 
ATOM     24  O   UNL     1       0.606   6.147  20.686  0.00  0.00    +0.000 OA
ATOM     25  N   UNL     1       2.236   7.760  20.431  0.00  0.00    +0.000 N 
ATOM     26  H   UNL     1       3.039   7.897  19.823  0.00  0.00    +0.000 HD
BRANCH  25  27
ATOM     27  C   UNL     1       1.279   8.806  20.444  0.00  0.00    +0.000 A 
ATOM     28  C   UNL     1       0.798   9.343  19.242  0.00  0.00    +0.000 A 
ATOM     29  C   UNL     1      -0.089  10.422  19.261  0.00  0.00    +0.000 A 
ATOM     30  C   UNL     1      -0.473  10.973  20.479  0.00  0.00    +0.000 A 
ATOM     31  F   UNL     1      -1.293  12.033  20.489  0.00  0.00    +0.000 F 
ATOM     32  C   UNL     1      -0.008  10.438  21.676  0.00  0.00    +0.000 A 
ATOM     33  F   UNL     1      -0.362  10.997  22.841  0.00  0.00    +0.000 F 
ATOM     34  C   UNL     1       0.843   9.340  21.659  0.00  0.00    +0.000 A 
ATOM     35  F   UNL     1       1.319   8.840  22.811  0.00  0.00    +0.000 F 
ENDBRANCH  25  27
ENDBRANCH  22  23
ENDBRANCH   2  22
TORSDOF 4
ENDMDL
MODEL 6
REMARK VINA RESULT:      -8.2      7.033      9.210
REMARK  Name = 
REMARK  5 active torsions:
REMARK  status: ('A' for Active; 'I' for Inactive)
REMARK    1  A    between atoms: C_1  and  N_2
REMARK    2  A    between atoms: N_2  and  C_3
REMARK    3  A    between atoms: C_3  and  C_4
REMARK    4  A    between atoms: N_6  and  C_7
REMARK    5  A    between atoms: C_16  and  C_18
REMARK                            x       y       z     vdW  Elec       q    Type
REMARK                         _______ _______ _______ _____ _____    ______ ____
ROOT
ATOM      1  C   UNL     1       1.146   9.226  21.721  0.00  0.00    +0.000 C 
ATOM      2  N   UNL     1       0.367  10.455  21.673  0.00  0.00    +0.000 N 
ATOM      3  C   UNL     1      -0.388  10.674  22.835  0.00  0.00    +0.000 C 
ATOM      4  O   UNL     1      -0.373   9.890  23.786  0.00  0.00    +0.000 OA
ENDROOT
BRANCH   3   5
ATOM      5  C   UNL     1      -1.238  11.874  23.002  0.00  0.00    +0.000 A 
ATOM      6  C   UNL     1      -2.599  11.690  23.235  0.00  0.00    +0.000 A 
ATOM      7  C   UNL     1      -3.458  12.789  23.372  0.00  0.00    +0.000 A 
ATOM      8  C   UNL     1      -3.003  14.122  23.287  0.00  0.00    +0.000 A 
ATOM      9  C   UNL     1      -1.638  14.247  23.042  0.00  0.00    +0.000 A 
ATOM     10  C   UNL     1      -0.771  13.164  22.853  0.00  0.00    +0.000 A 
ATOM     11  S   UNL     1      -0.889  15.827  23.010  0.00  0.00    +0.000 S 
ATOM     12  O   UNL     1      -0.388  15.995  21.657  0.00  0.00    +0.000 OA
ATOM     13  O   UNL     1       0.042  15.827  24.120  0.00  0.00    +0.000 OA
ATOM     14  N   UNL     1      -2.040  16.892  23.279  0.00  0.00    +0.000 NA
ATOM     15  C   UNL     1      -3.278  16.555  23.430  0.00  0.00    +0.000 C 
ATOM     16  C   UNL     1      -4.137  17.832  23.566  0.00  0.00    +0.000 C 
ATOM     17  C   UNL     1      -5.407  17.751  24.384  0.00  0.00    +0.000 C 
ATOM     18  C   UNL     1      -6.555  17.182  23.562  0.00  0.00    +0.000 C 
ATOM     19  C   UNL     1      -6.177  15.918  22.807  0.00  0.00    +0.000 C 
ATOM     20  C   UNL     1      -5.274  15.007  23.628  0.00  0.00    +0.000 C 
ATOM     21  N   UNL     1      -3.835  15.268  23.407  0.00  0.00    +0.000 N 
ENDBRANCH   3   5
BRANCH   2  22
ATOM     22  C   UNL     1       0.631  11.462  20.614  0.00  0.00    +0.000 C 
BRANCH  22  23
ATOM     23  C   UNL     1      -0.202  11.516  19.321  0.00  0.00    +0.000 C 
ATOM     24  O   UNL     1      -0.050  12.389  18.465  0.00  0.00    +0.000 OA
ATOM     25  N   UNL     1      -1.208  10.551  19.240  0.00  0.00    +0.000 N 
ATOM     26  H   UNL     1      -1.627  10.269  20.123  0.00  0.00    +0.000 HD
BRANCH  25  27
ATOM     27  C   UNL     1      -2.071  10.553  18.115  0.00  0.00    +0.000 A 
ATOM     28  C   UNL     1      -1.761   9.789  16.981  0.00  0.00    +0.000 A 
ATOM     29  C   UNL     1      -2.576   9.853  15.848  0.00  0.00    +0.000 A 
ATOM     30  C   UNL     1      -3.682  10.697  15.846  0.00  0.00    +0.000 A 
ATOM     31  F   UNL     1      -4.436  10.783  14.741  0.00  0.00    +0.000 F 
ATOM     32  C   UNL     1      -4.001  11.449  16.971  0.00  0.00    +0.000 A 
ATOM     33  F   UNL     1      -5.051  12.281  16.944  0.00  0.00    +0.000 F 
ATOM     34  C   UNL     1      -3.213  11.356  18.112  0.00  0.00    +0.000 A 
ATOM     35  F   UNL     1      -3.499  12.106  19.189  0.00  0.00    +0.000 F 
ENDBRANCH  25  27
ENDBRANCH  22  23
ENDBRANCH   2  22
TORSDOF 4
ENDMDL
MODEL 7
REMARK VINA RESULT:      -8.1      4.185      6.258
REMARK  Name = 
REMARK  5 active torsions:
REMARK  status: ('A' for Active; 'I' for Inactive)
REMARK    1  A    between atoms: C_1  and  N_2
REMARK    2  A    between atoms: N_2  and  C_3
REMARK    3  A    between atoms: C_3  and  C_4
REMARK    4  A    between atoms: N_6  and  C_7
REMARK    5  A    between atoms: C_16  and  C_18
REMARK                            x       y       z     vdW  Elec       q    Type
REMARK                         _______ _______ _______ _____ _____    ______ ____
ROOT
ATOM      1  C   UNL     1      -1.435  10.157  18.860  0.00  0.00    +0.000 C 
ATOM      2  N   UNL     1      -0.100  10.731  18.962  0.00  0.00    +0.000 N 
ATOM      3  C   UNL     1      -0.086  12.125  18.812  0.00  0.00    +0.000 C 
ATOM      4  O   UNL     1      -1.116  12.775  18.617  0.00  0.00    +0.000 OA
ENDROOT
BRANCH   3   5
ATOM      5  C   UNL     1       1.165  12.909  18.898  0.00  0.00    +0.000 A 
ATOM      6  C   UNL     1       2.096  12.780  17.871  0.00  0.00    +0.000 A 
ATOM      7  C   UNL     1       3.312  13.475  17.913  0.00  0.00    +0.000 A 
ATOM      8  C   UNL     1       3.656  14.336  18.976  0.00  0.00    +0.000 A 
ATOM      9  C   UNL     1       2.695  14.421  19.980  0.00  0.00    +0.000 A 
ATOM     10  C   UNL     1       1.496  13.697  19.982  0.00  0.00    +0.000 A 
ATOM     11  S   UNL     1       2.914  15.523  21.320  0.00  0.00    +0.000 S 
ATOM     12  O   UNL     1       2.998  14.685  22.505  0.00  0.00    +0.000 OA
ATOM     13  O   UNL     1       1.836  16.482  21.201  0.00  0.00    +0.000 OA
ATOM     14  N   UNL     1       4.308  16.255  21.096  0.00  0.00    +0.000 NA
ATOM     15  C   UNL     1       5.087  15.981  20.103  0.00  0.00    +0.000 C 
ATOM     16  C   UNL     1       6.394  16.791  20.245  0.00  0.00    +0.000 C 
ATOM     17  C   UNL     1       7.132  17.178  18.983  0.00  0.00    +0.000 C 
ATOM     18  C   UNL     1       8.008  16.036  18.486  0.00  0.00    +0.000 C 
ATOM     19  C   UNL     1       7.277  14.704  18.438  0.00  0.00    +0.000 C 
ATOM     20  C   UNL     1       5.838  14.853  17.962  0.00  0.00    +0.000 C 
ATOM     21  N   UNL     1       4.880  15.053  19.070  0.00  0.00    +0.000 N 
ENDBRANCH   3   5
BRANCH   2  22
ATOM     22  C   UNL     1       1.026   9.907  19.474  0.00  0.00    +0.000 C 
BRANCH  22  23
ATOM     23  C   UNL     1       1.805   8.944  18.561  0.00  0.00    +0.000 C 
ATOM     24  O   UNL     1       1.932   9.130  17.349  0.00  0.00    +0.000 OA
ATOM     25  N   UNL     1       2.277   7.795  19.199  0.00  0.00    +0.000 N 
ATOM     26  H   UNL     1       1.706   7.446  19.965  0.00  0.00    +0.000 HD
BRANCH  25  27
ATOM     27  C   UNL     1       2.956   6.815  18.432  0.00  0.00    +0.000 A 
ATOM     28  C   UNL     1       4.043   7.175  17.623  0.00  0.00    +0.000 A 
ATOM     29  C   UNL     1       4.661   6.219  16.813  0.00  0.00    +0.000 A 
ATOM     30  C   UNL     1       4.176   4.916  16.798  0.00  0.00    +0.000 A 
ATOM     31  F   UNL     1       4.748   4.014  15.989  0.00  0.00    +0.000 F 
ATOM     32  C   UNL     1       3.105   4.550  17.606  0.00  0.00    +0.000 A 
ATOM     33  F   UNL     1       2.627   3.298  17.558  0.00  0.00    +0.000 F 
ATOM     34  C   UNL     1       2.514   5.490  18.441  0.00  0.00    +0.000 A 
ATOM     35  F   UNL     1       1.459   5.148  19.198  0.00  0.00    +0.000 F 
ENDBRANCH  25  27
ENDBRANCH  22  23
ENDBRANCH   2  22
TORSDOF 4
ENDMDL
MODEL 8
REMARK VINA RESULT:      -8.1      6.618      9.227
REMARK  Name = 
REMARK  5 active torsions:
REMARK  status: ('A' for Active; 'I' for Inactive)
REMARK    1  A    between atoms: C_1  and  N_2
REMARK    2  A    between atoms: N_2  and  C_3
REMARK    3  A    between atoms: C_3  and  C_4
REMARK    4  A    between atoms: N_6  and  C_7
REMARK    5  A    between atoms: C_16  and  C_18
REMARK                            x       y       z     vdW  Elec       q    Type
REMARK                         _______ _______ _______ _____ _____    ______ ____
ROOT
ATOM      1  C   UNL     1       0.504   9.114  21.246  0.00  0.00    +0.000 C 
ATOM      2  N   UNL     1      -0.333  10.304  21.314  0.00  0.00    +0.000 N 
ATOM      3  C   UNL     1      -0.585  10.727  22.627  0.00  0.00    +0.000 C 
ATOM      4  O   UNL     1      -0.129  10.134  23.607  0.00  0.00    +0.000 OA
ENDROOT
BRANCH   3   5
ATOM      5  C   UNL     1      -1.400  11.926  22.920  0.00  0.00    +0.000 A 
ATOM      6  C   UNL     1      -0.749  13.151  23.045  0.00  0.00    +0.000 A 
ATOM      7  C   UNL     1      -1.466  14.316  23.351  0.00  0.00    +0.000 A 
ATOM      8  C   UNL     1      -2.863  14.318  23.543  0.00  0.00    +0.000 A 
ATOM      9  C   UNL     1      -3.461  13.066  23.417  0.00  0.00    +0.000 A 
ATOM     10  C   UNL     1      -2.758  11.883  23.162  0.00  0.00    +0.000 A 
ATOM     11  S   UNL     1      -5.199  12.905  23.521  0.00  0.00    +0.000 S 
ATOM     12  O   UNL     1      -5.445  12.077  24.690  0.00  0.00    +0.000 OA
ATOM     13  O   UNL     1      -5.614  12.436  22.216  0.00  0.00    +0.000 OA
ATOM     14  N   UNL     1      -5.786  14.360  23.778  0.00  0.00    +0.000 NA
ATOM     15  C   UNL     1      -5.033  15.400  23.919  0.00  0.00    +0.000 C 
ATOM     16  C   UNL     1      -5.914  16.623  24.258  0.00  0.00    +0.000 C 
ATOM     17  C   UNL     1      -5.432  17.990  23.824  0.00  0.00    +0.000 C 
ATOM     18  C   UNL     1      -4.429  18.559  24.817  0.00  0.00    +0.000 C 
ATOM     19  C   UNL     1      -3.341  17.568  25.199  0.00  0.00    +0.000 C 
ATOM     20  C   UNL     1      -2.880  16.734  24.010  0.00  0.00    +0.000 C 
ATOM     21  N   UNL     1      -3.632  15.469  23.866  0.00  0.00    +0.000 N 
ENDBRANCH   3   5
BRANCH   2  22
ATOM     22  C   UNL     1      -0.596  11.099  20.086  0.00  0.00    +0.000 C 
BRANCH  22  23
ATOM     23  C   UNL     1       0.113  12.439  19.822  0.00  0.00    +0.000 C 
ATOM     24  O   UNL     1      -0.471  13.423  19.364  0.00  0.00    +0.000 OA
ATOM     25  N   UNL     1       1.489  12.423  20.056  0.00  0.00    +0.000 N 
ATOM     26  H   UNL     1       1.959  11.538  19.882  0.00  0.00    +0.000 HD
BRANCH  25  27
ATOM     27  C   UNL     1       2.244  13.592  19.786  0.00  0.00    +0.000 A 
ATOM     28  C   UNL     1       2.528  14.506  20.810  0.00  0.00    +0.000 A 
ATOM     29  C   UNL     1       3.208  15.693  20.522  0.00  0.00    +0.000 A 
ATOM     30  C   UNL     1       3.580  15.969  19.211  0.00  0.00    +0.000 A 
ATOM     31  F   UNL     1       4.197  17.127  18.936  0.00  0.00    +0.000 F 
ATOM     32  C   UNL     1       3.311  15.061  18.192  0.00  0.00    +0.000 A 
ATOM     33  F   UNL     1       3.648  15.354  16.928  0.00  0.00    +0.000 F 
ATOM     34  C   UNL     1       2.670  13.864  18.484  0.00  0.00    +0.000 A 
ATOM     35  F   UNL     1       2.380  12.999  17.497  0.00  0.00    +0.000 F 
ENDBRANCH  25  27
ENDBRANCH  22  23
ENDBRANCH   2  22
TORSDOF 4
ENDMDL
MODEL 9
REMARK VINA RESULT:      -8.1      6.132     11.079
REMARK  Name = 
REMARK  5 active torsions:
REMARK  status: ('A' for Active; 'I' for Inactive)
REMARK    1  A    between atoms: C_1  and  N_2
REMARK    2  A    between atoms: N_2  and  C_3
REMARK    3  A    between atoms: C_3  and  C_4
REMARK    4  A    between atoms: N_6  and  C_7
REMARK    5  A    between atoms: C_16  and  C_18
REMARK                            x       y       z     vdW  Elec       q    Type
REMARK                         _______ _______ _______ _____ _____    ______ ____
ROOT
ATOM      1  C   UNL     1      -0.393  14.798  18.566  0.00  0.00    +0.000 C 
ATOM      2  N   UNL     1      -0.323  13.347  18.674  0.00  0.00    +0.000 N 
ATOM      3  C   UNL     1       0.986  12.868  18.828  0.00  0.00    +0.000 C 
ATOM      4  O   UNL     1       1.961  13.621  18.867  0.00  0.00    +0.000 OA
ENDROOT
BRANCH   3   5
ATOM      5  C   UNL     1       1.280  11.425  18.972  0.00  0.00    +0.000 A 
ATOM      6  C   UNL     1       1.905  10.770  17.914  0.00  0.00    +0.000 A 
ATOM      7  C   UNL     1       2.182   9.398  17.982  0.00  0.00    +0.000 A 
ATOM      8  C   UNL     1       1.854   8.614  19.108  0.00  0.00    +0.000 A 
ATOM      9  C   UNL     1       1.222   9.316  20.131  0.00  0.00    +0.000 A 
ATOM     10  C   UNL     1       0.892  10.675  20.063  0.00  0.00    +0.000 A 
ATOM     11  S   UNL     1       0.840   8.521  21.641  0.00  0.00    +0.000 S 
ATOM     12  O   UNL     1      -0.609   8.547  21.741  0.00  0.00    +0.000 OA
ATOM     13  O   UNL     1       1.636   9.204  22.640  0.00  0.00    +0.000 OA
ATOM     14  N   UNL     1       1.328   7.013  21.508  0.00  0.00    +0.000 NA
ATOM     15  C   UNL     1       1.853   6.544  20.424  0.00  0.00    +0.000 C 
ATOM     16  C   UNL     1       2.114   5.032  20.600  0.00  0.00    +0.000 C 
ATOM     17  C   UNL     1       3.262   4.413  19.834  0.00  0.00    +0.000 C 
ATOM     18  C   UNL     1       2.853   4.078  18.406  0.00  0.00    +0.000 C 
ATOM     19  C   UNL     1       2.137   5.224  17.708  0.00  0.00    +0.000 C 
ATOM     20  C   UNL     1       2.745   6.577  18.053  0.00  0.00    +0.000 C 
ATOM     21  N   UNL     1       2.103   7.219  19.219  0.00  0.00    +0.000 N 
ENDBRANCH   3   5
BRANCH   2  22
ATOM     22  C   UNL     1      -1.562  12.558  18.896  0.00  0.00    +0.000 C 
BRANCH  22  23
ATOM     23  C   UNL     1      -2.382  12.686  20.191  0.00  0.00    +0.000 C 
ATOM     24  O   UNL     1      -2.036  12.166  21.254  0.00  0.00    +0.000 OA
ATOM     25  N   UNL     1      -3.597  13.359  20.044  0.00  0.00    +0.000 N 
ATOM     26  H   UNL     1      -4.054  13.258  19.141  0.00  0.00    +0.000 HD
BRANCH  25  27
ATOM     27  C   UNL     1      -4.455  13.477  21.166  0.00  0.00    +0.000 A 
ATOM     28  C   UNL     1      -5.550  12.614  21.317  0.00  0.00    +0.000 A 
ATOM     29  C   UNL     1      -6.434  12.784  22.386  0.00  0.00    +0.000 A 
ATOM     30  C   UNL     1      -6.231  13.826  23.285  0.00  0.00    +0.000 A 
ATOM     31  F   UNL     1      -7.106  14.006  24.285  0.00  0.00    +0.000 F 
ATOM     32  C   UNL     1      -5.141  14.678  23.147  0.00  0.00    +0.000 A 
ATOM     33  F   UNL     1      -4.976  15.697  24.002  0.00  0.00    +0.000 F 
ATOM     34  C   UNL     1      -4.240  14.487  22.107  0.00  0.00    +0.000 A 
ATOM     35  F   UNL     1      -3.204  15.327  21.952  0.00  0.00    +0.000 F 
ENDBRANCH  25  27
ENDBRANCH  22  23
ENDBRANCH   2  22
TORSDOF 4
ENDMDL
