MODEL 1
REMARK VINA RESULT:      -9.0      0.000      0.000
REMARK  Name = 
REMARK  2 active torsions:
REMARK  status: ('A' for Active; 'I' for Inactive)
REMARK    1  A    between atoms: C_4  and  C_5
REMARK    2  A    between atoms: C_11  and  C_12
REMARK                            x       y       z     vdW  Elec       q    Type
REMARK                         _______ _______ _______ _____ _____    ______ ____
ROOT
ATOM      1  O   UNL     1       1.616  10.265  17.390  0.00  0.00    +0.000 OA
ATOM      2  C   UNL     1       1.840   9.309  18.120  0.00  0.00    +0.000 A 
ATOM      3  C   UNL     1       2.649   8.206  17.578  0.00  0.00    +0.000 A 
ATOM      4  C   UNL     1       2.934   7.163  18.359  0.00  0.00    +0.000 A 
ATOM      5  O   UNL     1       2.514   7.019  19.663  0.00  0.00    +0.000 OA
ATOM      6  C   UNL     1       1.714   8.002  20.199  0.00  0.00    +0.000 A 
ATOM      7  C   UNL     1       1.279   7.768  21.499  0.00  0.00    +0.000 A 
ATOM      8  C   UNL     1       0.464   8.700  22.134  0.00  0.00    +0.000 A 
ATOM      9  C   UNL     1       0.077   9.881  21.484  0.00  0.00    +0.000 A 
ATOM     10  C   UNL     1      -0.738  10.803  22.164  0.00  0.00    +0.000 A 
ATOM     11  C   UNL     1      -1.143  11.990  21.558  0.00  0.00    +0.000 A 
ATOM     12  C   UNL     1      -0.741  12.266  20.262  0.00  0.00    +0.000 A 
ATOM     13  C   UNL     1       0.069  11.358  19.575  0.00  0.00    +0.000 A 
ATOM     14  C   UNL     1       0.508  10.141  20.155  0.00  0.00    +0.000 A 
ATOM     15  C   UNL     1       1.340   9.166  19.515  0.00  0.00    +0.000 A 
ENDROOT
BRANCH   4  16
ATOM     16  C   UNL     1       3.722   6.034  17.856  0.00  0.00    +0.000 A 
ATOM     17  C   UNL     1       5.062   6.293  17.517  0.00  0.00    +0.000 A 
ATOM     18  C   UNL     1       5.861   5.285  16.991  0.00  0.00    +0.000 A 
ATOM     19  F   UNL     1       7.123   5.562  16.640  0.00  0.00    +0.000 F 
ATOM     20  C   UNL     1       5.365   4.003  16.814  0.00  0.00    +0.000 A 
ATOM     21  C   UNL     1       4.045   3.726  17.168  0.00  0.00    +0.000 A 
ATOM     22  C   UNL     1       3.199   4.736  17.681  0.00  0.00    +0.000 A 
BRANCH  22  23
ATOM     23  C   UNL     1       1.765   4.355  17.986  0.00  0.00    +0.000 C 
ATOM     24  F   UNL     1       1.352   4.577  19.261  0.00  0.00    +0.000 F 
ATOM     25  F   UNL     1       0.886   5.030  17.191  0.00  0.00    +0.000 F 
ATOM     26  F   UNL     1       1.529   3.032  17.750  0.00  0.00    +0.000 F 
ENDBRANCH  22  23
ENDBRANCH   4  16
TORSDOF 2
ENDMDL
MODEL 2
REMARK VINA RESULT:      -8.8      0.820      1.107
REMARK  Name = 
REMARK  2 active torsions:
REMARK  status: ('A' for Active; 'I' for Inactive)
REMARK    1  A    between atoms: C_4  and  C_5
REMARK    2  A    between atoms: C_11  and  C_12
REMARK                            x       y       z     vdW  Elec       q    Type
REMARK                         _______ _______ _______ _____ _____    ______ ____
ROOT
ATOM      1  O   UNL     1       1.801   9.795  17.280  0.00  0.00    +0.000 OA
ATOM      2  C   UNL     1       1.910   8.969  18.177  0.00  0.00    +0.000 A 
ATOM      3  C   UNL     1       2.706   7.762  17.905  0.00  0.00    +0.000 A 
ATOM      4  C   UNL     1       2.867   6.856  18.872  0.00  0.00    +0.000 A 
ATOM      5  O   UNL     1       2.325   6.951  20.135  0.00  0.00    +0.000 OA
ATOM      6  C   UNL     1       1.533   8.039  20.422  0.00  0.00    +0.000 A 
ATOM      7  C   UNL     1       0.974   8.045  21.695  0.00  0.00    +0.000 A 
ATOM      8  C   UNL     1       0.154   9.100  22.085  0.00  0.00    +0.000 A 
ATOM      9  C   UNL     1      -0.112  10.166  21.215  0.00  0.00    +0.000 A 
ATOM     10  C   UNL     1      -0.935  11.220  21.651  0.00  0.00    +0.000 A 
ATOM     11  C   UNL     1      -1.223  12.300  20.821  0.00  0.00    +0.000 A 
ATOM     12  C   UNL     1      -0.694  12.338  19.542  0.00  0.00    +0.000 A 
ATOM     13  C   UNL     1       0.125  11.297  19.096  0.00  0.00    +0.000 A 
ATOM     14  C   UNL     1       0.447  10.182  19.908  0.00  0.00    +0.000 A 
ATOM     15  C   UNL     1       1.282   9.083  19.522  0.00  0.00    +0.000 A 
ENDROOT
BRANCH   4  16
ATOM     16  C   UNL     1       3.637   5.631  18.640  0.00  0.00    +0.000 A 
ATOM     17  C   UNL     1       5.037   5.740  18.691  0.00  0.00    +0.000 A 
ATOM     18  C   UNL     1       5.837   4.632  18.439  0.00  0.00    +0.000 A 
ATOM     19  F   UNL     1       7.170   4.765  18.455  0.00  0.00    +0.000 F 
ATOM     20  C   UNL     1       5.275   3.397  18.158  0.00  0.00    +0.000 A 
ATOM     21  C   UNL     1       3.887   3.269  18.127  0.00  0.00    +0.000 A 
ATOM     22  C   UNL     1       3.045   4.383  18.354  0.00  0.00    +0.000 A 
BRANCH  22  23
ATOM     23  C   UNL     1       1.551   4.160  18.247  0.00  0.00    +0.000 C 
ATOM     24  F   UNL     1       0.913   4.884  17.290  0.00  0.00    +0.000 F 
ATOM     25  F   UNL     1       1.255   2.856  17.982  0.00  0.00    +0.000 F 
ATOM     26  F   UNL     1       0.909   4.451  19.414  0.00  0.00    +0.000 F 
ENDBRANCH  22  23
ENDBRANCH   4  16
TORSDOF 2
ENDMDL
MODEL 3
REMARK VINA RESULT:      -8.7      1.555      2.989
REMARK  Name = 
REMARK  2 active torsions:
REMARK  status: ('A' for Active; 'I' for Inactive)
REMARK    1  A    between atoms: C_4  and  C_5
REMARK    2  A    between atoms: C_11  and  C_12
REMARK                            x       y       z     vdW  Elec       q    Type
REMARK                         _______ _______ _______ _____ _____    ______ ____
ROOT
ATOM      1  O   UNL     1       2.205   9.269  17.113  0.00  0.00    +0.000 OA
ATOM      2  C   UNL     1       2.066   8.503  18.058  0.00  0.00    +0.000 A 
ATOM      3  C   UNL     1       2.379   7.082  17.841  0.00  0.00    +0.000 A 
ATOM      4  C   UNL     1       2.264   6.227  18.859  0.00  0.00    +0.000 A 
ATOM      5  O   UNL     1       1.853   6.569  20.129  0.00  0.00    +0.000 OA
ATOM      6  C   UNL     1       1.503   7.878  20.368  0.00  0.00    +0.000 A 
ATOM      7  C   UNL     1       1.044   8.143  21.654  0.00  0.00    +0.000 A 
ATOM      8  C   UNL     1       0.663   9.435  21.999  0.00  0.00    +0.000 A 
ATOM      9  C   UNL     1       0.739  10.482  21.070  0.00  0.00    +0.000 A 
ATOM     10  C   UNL     1       0.356  11.778  21.461  0.00  0.00    +0.000 A 
ATOM     11  C   UNL     1       0.419  12.847  20.572  0.00  0.00    +0.000 A 
ATOM     12  C   UNL     1       0.863  12.634  19.278  0.00  0.00    +0.000 A 
ATOM     13  C   UNL     1       1.247  11.351  18.876  0.00  0.00    +0.000 A 
ATOM     14  C   UNL     1       1.203  10.236  19.749  0.00  0.00    +0.000 A 
ATOM     15  C   UNL     1       1.584   8.897  19.410  0.00  0.00    +0.000 A 
ENDROOT
BRANCH   4  16
ATOM     16  C   UNL     1       2.548   4.800  18.685  0.00  0.00    +0.000 A 
ATOM     17  C   UNL     1       1.445   3.929  18.664  0.00  0.00    +0.000 A 
ATOM     18  C   UNL     1       1.635   2.558  18.546  0.00  0.00    +0.000 A 
ATOM     19  F   UNL     1       0.573   1.743  18.565  0.00  0.00    +0.000 F 
ATOM     20  C   UNL     1       2.908   2.024  18.423  0.00  0.00    +0.000 A 
ATOM     21  C   UNL     1       4.010   2.878  18.419  0.00  0.00    +0.000 A 
ATOM     22  C   UNL     1       3.852   4.276  18.563  0.00  0.00    +0.000 A 
BRANCH  22  23
ATOM     23  C   UNL     1       5.109   5.118  18.603  0.00  0.00    +0.000 C 
ATOM     24  F   UNL     1       5.233   6.043  17.615  0.00  0.00    +0.000 F 
ATOM     25  F   UNL     1       5.212   5.813  19.772  0.00  0.00    +0.000 F 
ATOM     26  F   UNL     1       6.236   4.353  18.531  0.00  0.00    +0.000 F 
ENDBRANCH  22  23
ENDBRANCH   4  16
TORSDOF 2
ENDMDL
MODEL 4
REMARK VINA RESULT:      -8.6      2.346      3.877
REMARK  Name = 
REMARK  2 active torsions:
REMARK  status: ('A' for Active; 'I' for Inactive)
REMARK    1  A    between atoms: C_4  and  C_5
REMARK    2  A    between atoms: C_11  and  C_12
REMARK                            x       y       z     vdW  Elec       q    Type
REMARK                         _______ _______ _______ _____ _____    ______ ____
ROOT
ATOM      1  O   UNL     1       2.362   5.534  20.665  0.00  0.00    +0.000 OA
ATOM      2  C   UNL     1       2.743   6.135  19.669  0.00  0.00    +0.000 A 
ATOM      3  C   UNL     1       3.735   5.477  18.806  0.00  0.00    +0.000 A 
ATOM      4  C   UNL     1       4.149   6.096  17.699  0.00  0.00    +0.000 A 
ATOM      5  O   UNL     1       3.724   7.340  17.290  0.00  0.00    +0.000 OA
ATOM      6  C   UNL     1       2.831   8.017  18.089  0.00  0.00    +0.000 A 
ATOM      7  C   UNL     1       2.486   9.290  17.646  0.00  0.00    +0.000 A 
ATOM      8  C   UNL     1       1.592  10.059  18.383  0.00  0.00    +0.000 A 
ATOM      9  C   UNL     1       1.023   9.568  19.567  0.00  0.00    +0.000 A 
ATOM     10  C   UNL     1       0.114  10.372  20.277  0.00  0.00    +0.000 A 
ATOM     11  C   UNL     1      -0.477   9.924  21.455  0.00  0.00    +0.000 A 
ATOM     12  C   UNL     1      -0.162   8.666  21.941  0.00  0.00    +0.000 A 
ATOM     13  C   UNL     1       0.741   7.857  21.245  0.00  0.00    +0.000 A 
ATOM     14  C   UNL     1       1.361   8.272  20.040  0.00  0.00    +0.000 A 
ATOM     15  C   UNL     1       2.290   7.497  19.272  0.00  0.00    +0.000 A 
ENDROOT
BRANCH   4  16
ATOM     16  C   UNL     1       5.149   5.485  16.820  0.00  0.00    +0.000 A 
ATOM     17  C   UNL     1       4.691   4.974  15.592  0.00  0.00    +0.000 A 
ATOM     18  C   UNL     1       5.571   4.341  14.723  0.00  0.00    +0.000 A 
ATOM     19  F   UNL     1       5.108   3.829  13.576  0.00  0.00    +0.000 F 
ATOM     20  C   UNL     1       6.916   4.221  15.033  0.00  0.00    +0.000 A 
ATOM     21  C   UNL     1       7.389   4.744  16.237  0.00  0.00    +0.000 A 
ATOM     22  C   UNL     1       6.515   5.372  17.154  0.00  0.00    +0.000 A 
BRANCH  22  23
ATOM     23  C   UNL     1       7.108   5.860  18.459  0.00  0.00    +0.000 C 
ATOM     24  F   UNL     1       6.353   5.647  19.569  0.00  0.00    +0.000 F 
ATOM     25  F   UNL     1       8.312   5.272  18.716  0.00  0.00    +0.000 F 
ATOM     26  F   UNL     1       7.354   7.201  18.436  0.00  0.00    +0.000 F 
ENDBRANCH  22  23
ENDBRANCH   4  16
TORSDOF 2
ENDMDL
MODEL 5
REMARK VINA RESULT:      -8.6      1.031      2.275
REMARK  Name = 
REMARK  2 active torsions:
REMARK  status: ('A' for Active; 'I' for Inactive)
REMARK    1  A    between atoms: C_4  and  C_5
REMARK    2  A    between atoms: C_11  and  C_12
REMARK                            x       y       z     vdW  Elec       q    Type
REMARK                         _______ _______ _______ _____ _____    ______ ____
ROOT
ATOM      1  O   UNL     1       1.394   6.804  21.516  0.00  0.00    +0.000 OA
ATOM      2  C   UNL     1       1.812   7.188  20.431  0.00  0.00    +0.000 A 
ATOM      3  C   UNL     1       2.703   6.290  19.681  0.00  0.00    +0.000 A 
ATOM      4  C   UNL     1       3.152   6.669  18.484  0.00  0.00    +0.000 A 
ATOM      5  O   UNL     1       2.855   7.869  17.878  0.00  0.00    +0.000 OA
ATOM      6  C   UNL     1       2.064   8.764  18.561  0.00  0.00    +0.000 A 
ATOM      7  C   UNL     1       1.850   9.978  17.916  0.00  0.00    +0.000 A 
ATOM      8  C   UNL     1       1.065  10.953  18.523  0.00  0.00    +0.000 A 
ATOM      9  C   UNL     1       0.477  10.730  19.776  0.00  0.00    +0.000 A 
ATOM     10  C   UNL     1      -0.319  11.736  20.350  0.00  0.00    +0.000 A 
ATOM     11  C   UNL     1      -0.925  11.556  21.591  0.00  0.00    +0.000 A 
ATOM     12  C   UNL     1      -0.736  10.367  22.276  0.00  0.00    +0.000 A 
ATOM     13  C   UNL     1       0.053   9.359  21.717  0.00  0.00    +0.000 A 
ATOM     14  C   UNL     1       0.683   9.498  20.455  0.00  0.00    +0.000 A 
ATOM     15  C   UNL     1       1.501   8.509  19.818  0.00  0.00    +0.000 A 
ENDROOT
BRANCH   4  16
ATOM     16  C   UNL     1       4.056   5.814  17.709  0.00  0.00    +0.000 A 
ATOM     17  C   UNL     1       5.307   6.355  17.367  0.00  0.00    +0.000 A 
ATOM     18  C   UNL     1       6.202   5.623  16.597  0.00  0.00    +0.000 A 
ATOM     19  F   UNL     1       7.374   6.171  16.250  0.00  0.00    +0.000 F 
ATOM     20  C   UNL     1       5.893   4.340  16.172  0.00  0.00    +0.000 A 
ATOM     21  C   UNL     1       4.664   3.782  16.525  0.00  0.00    +0.000 A 
ATOM     22  C   UNL     1       3.722   4.510  17.286  0.00  0.00    +0.000 A 
BRANCH  22  23
ATOM     23  C   UNL     1       2.393   3.843  17.573  0.00  0.00    +0.000 C 
ATOM     24  F   UNL     1       1.287   4.576  17.278  0.00  0.00    +0.000 F 
ATOM     25  F   UNL     1       2.257   2.675  16.882  0.00  0.00    +0.000 F 
ATOM     26  F   UNL     1       2.268   3.505  18.889  0.00  0.00    +0.000 F 
ENDBRANCH  22  23
ENDBRANCH   4  16
TORSDOF 2
ENDMDL
MODEL 6
REMARK VINA RESULT:      -8.4      1.245      1.573
REMARK  Name = 
REMARK  2 active torsions:
REMARK  status: ('A' for Active; 'I' for Inactive)
REMARK    1  A    between atoms: C_4  and  C_5
REMARK    2  A    between atoms: C_11  and  C_12
REMARK                            x       y       z     vdW  Elec       q    Type
REMARK                         _______ _______ _______ _____ _____    ______ ____
ROOT
ATOM      1  O   UNL     1       0.075  10.278  17.815  0.00  0.00    +0.000 OA
ATOM      2  C   UNL     1       0.659   9.538  18.596  0.00  0.00    +0.000 A 
ATOM      3  C   UNL     1       1.555   8.516  18.034  0.00  0.00    +0.000 A 
ATOM      4  C   UNL     1       2.226   7.713  18.861  0.00  0.00    +0.000 A 
ATOM      5  O   UNL     1       2.140   7.751  20.235  0.00  0.00    +0.000 OA
ATOM      6  C   UNL     1       1.279   8.659  20.807  0.00  0.00    +0.000 A 
ATOM      7  C   UNL     1       1.199   8.606  22.195  0.00  0.00    +0.000 A 
ATOM      8  C   UNL     1       0.354   9.481  22.872  0.00  0.00    +0.000 A 
ATOM      9  C   UNL     1      -0.416  10.424  22.176  0.00  0.00    +0.000 A 
ATOM     10  C   UNL     1      -1.248  11.298  22.897  0.00  0.00    +0.000 A 
ATOM     11  C   UNL     1      -2.027  12.252  22.248  0.00  0.00    +0.000 A 
ATOM     12  C   UNL     1      -1.987  12.340  20.866  0.00  0.00    +0.000 A 
ATOM     13  C   UNL     1      -1.165  11.476  20.137  0.00  0.00    +0.000 A 
ATOM     14  C   UNL     1      -0.352  10.495  20.758  0.00  0.00    +0.000 A 
ATOM     15  C   UNL     1       0.517   9.581  20.078  0.00  0.00    +0.000 A 
ENDROOT
BRANCH   4  16
ATOM     16  C   UNL     1       3.116   6.669  18.345  0.00  0.00    +0.000 A 
ATOM     17  C   UNL     1       4.041   7.051  17.358  0.00  0.00    +0.000 A 
ATOM     18  C   UNL     1       4.889   6.110  16.788  0.00  0.00    +0.000 A 
ATOM     19  F   UNL     1       5.737   6.487  15.823  0.00  0.00    +0.000 F 
ATOM     20  C   UNL     1       4.859   4.786  17.195  0.00  0.00    +0.000 A 
ATOM     21  C   UNL     1       3.963   4.397  18.190  0.00  0.00    +0.000 A 
ATOM     22  C   UNL     1       3.069   5.325  18.772  0.00  0.00    +0.000 A 
BRANCH  22  23
ATOM     23  C   UNL     1       2.095   4.800  19.806  0.00  0.00    +0.000 C 
ATOM     24  F   UNL     1       0.801   5.186  19.648  0.00  0.00    +0.000 F 
ATOM     25  F   UNL     1       2.072   3.437  19.829  0.00  0.00    +0.000 F 
ATOM     26  F   UNL     1       2.439   5.182  21.069  0.00  0.00    +0.000 F 
ENDBRANCH  22  23
ENDBRANCH   4  16
TORSDOF 2
ENDMDL
MODEL 7
REMARK VINA RESULT:      -8.1      1.397      1.800
REMARK  Name = 
REMARK  2 active torsions:
REMARK  status: ('A' for Active; 'I' for Inactive)
REMARK    1  A    between atoms: C_4  and  C_5
REMARK    2  A    between atoms: C_11  and  C_12
REMARK                            x       y       z     vdW  Elec       q    Type
REMARK                         _______ _______ _______ _____ _____    ______ ____
ROOT
ATOM      1  O   UNL     1       1.878   9.724  17.343  0.00  0.00    +0.000 OA
ATOM      2  C   UNL     1       1.883   8.884  18.233  0.00  0.00    +0.000 A 
ATOM      3  C   UNL     1       2.410   7.548  17.912  0.00  0.00    +0.000 A 
ATOM      4  C   UNL     1       2.454   6.619  18.869  0.00  0.00    +0.000 A 
ATOM      5  O   UNL     1       2.026   6.805  20.165  0.00  0.00    +0.000 OA
ATOM      6  C   UNL     1       1.481   8.022  20.500  0.00  0.00    +0.000 A 
ATOM      7  C   UNL     1       1.017   8.124  21.808  0.00  0.00    +0.000 A 
ATOM      8  C   UNL     1       0.446   9.314  22.248  0.00  0.00    +0.000 A 
ATOM      9  C   UNL     1       0.336  10.420  21.394  0.00  0.00    +0.000 A 
ATOM     10  C   UNL     1      -0.236  11.609  21.881  0.00  0.00    +0.000 A 
ATOM     11  C   UNL     1      -0.362  12.733  21.069  0.00  0.00    +0.000 A 
ATOM     12  C   UNL     1       0.079  12.680  19.757  0.00  0.00    +0.000 A 
ATOM     13  C   UNL     1       0.649  11.505  19.261  0.00  0.00    +0.000 A 
ATOM     14  C   UNL     1       0.801  10.340  20.054  0.00  0.00    +0.000 A 
ATOM     15  C   UNL     1       1.379   9.104  19.616  0.00  0.00    +0.000 A 
ENDROOT
BRANCH   4  16
ATOM     16  C   UNL     1       2.954   5.270  18.590  0.00  0.00    +0.000 A 
ATOM     17  C   UNL     1       3.807   5.123  17.482  0.00  0.00    +0.000 A 
ATOM     18  C   UNL     1       4.287   3.869  17.127  0.00  0.00    +0.000 A 
ATOM     19  F   UNL     1       5.068   3.744  16.046  0.00  0.00    +0.000 F 
ATOM     20  C   UNL     1       3.958   2.744  17.868  0.00  0.00    +0.000 A 
ATOM     21  C   UNL     1       3.132   2.879  18.984  0.00  0.00    +0.000 A 
ATOM     22  C   UNL     1       2.607   4.137  19.356  0.00  0.00    +0.000 A 
BRANCH  22  23
ATOM     23  C   UNL     1       1.675   4.178  20.549  0.00  0.00    +0.000 C 
ATOM     24  F   UNL     1       0.479   4.790  20.345  0.00  0.00    +0.000 F 
ATOM     25  F   UNL     1       1.375   2.924  20.996  0.00  0.00    +0.000 F 
ATOM     26  F   UNL     1       2.238   4.819  21.613  0.00  0.00    +0.000 F 
ENDBRANCH  22  23
ENDBRANCH   4  16
TORSDOF 2
ENDMDL
MODEL 8
REMARK VINA RESULT:      -7.9      1.668      2.937
REMARK  Name = 
REMARK  2 active torsions:
REMARK  status: ('A' for Active; 'I' for Inactive)
REMARK    1  A    between atoms: C_4  and  C_5
REMARK    2  A    between atoms: C_11  and  C_12
REMARK                            x       y       z     vdW  Elec       q    Type
REMARK                         _______ _______ _______ _____ _____    ______ ____
ROOT
ATOM      1  O   UNL     1       1.144   9.271  22.836  0.00  0.00    +0.000 OA
ATOM      2  C   UNL     1       1.055   9.156  21.621  0.00  0.00    +0.000 A 
ATOM      3  C   UNL     1       1.881   8.130  20.966  0.00  0.00    +0.000 A 
ATOM      4  C   UNL     1       1.785   7.961  19.646  0.00  0.00    +0.000 A 
ATOM      5  O   UNL     1       0.965   8.695  18.818  0.00  0.00    +0.000 OA
ATOM      6  C   UNL     1       0.208   9.699  19.377  0.00  0.00    +0.000 A 
ATOM      7  C   UNL     1      -0.555  10.437  18.478  0.00  0.00    +0.000 A 
ATOM      8  C   UNL     1      -1.355  11.477  18.941  0.00  0.00    +0.000 A 
ATOM      9  C   UNL     1      -1.411  11.791  20.306  0.00  0.00    +0.000 A 
ATOM     10  C   UNL     1      -2.241  12.841  20.736  0.00  0.00    +0.000 A 
ATOM     11  C   UNL     1      -2.330  13.185  22.083  0.00  0.00    +0.000 A 
ATOM     12  C   UNL     1      -1.586  12.484  23.016  0.00  0.00    +0.000 A 
ATOM     13  C   UNL     1      -0.756  11.438  22.603  0.00  0.00    +0.000 A 
ATOM     14  C   UNL     1      -0.639  11.052  21.244  0.00  0.00    +0.000 A 
ATOM     15  C   UNL     1       0.184   9.990  20.747  0.00  0.00    +0.000 A 
ENDROOT
BRANCH   4  16
ATOM     16  C   UNL     1       2.602   6.964  18.949  0.00  0.00    +0.000 A 
ATOM     17  C   UNL     1       3.412   7.426  17.897  0.00  0.00    +0.000 A 
ATOM     18  C   UNL     1       4.182   6.535  17.159  0.00  0.00    +0.000 A 
ATOM     19  F   UNL     1       4.918   6.991  16.138  0.00  0.00    +0.000 F 
ATOM     20  C   UNL     1       4.187   5.182  17.459  0.00  0.00    +0.000 A 
ATOM     21  C   UNL     1       3.407   4.713  18.515  0.00  0.00    +0.000 A 
ATOM     22  C   UNL     1       2.593   5.590  19.268  0.00  0.00    +0.000 A 
BRANCH  22  23
ATOM     23  C   UNL     1       1.737   4.982  20.360  0.00  0.00    +0.000 C 
ATOM     24  F   UNL     1       0.532   5.575  20.566  0.00  0.00    +0.000 F 
ATOM     25  F   UNL     1       1.464   3.669  20.112  0.00  0.00    +0.000 F 
ATOM     26  F   UNL     1       2.367   5.001  21.569  0.00  0.00    +0.000 F 
ENDBRANCH  22  23
ENDBRANCH   4  16
TORSDOF 2
ENDMDL
MODEL 9
REMARK VINA RESULT:      -7.9      3.342      7.078
REMARK  Name = 
REMARK  2 active torsions:
REMARK  status: ('A' for Active; 'I' for Inactive)
REMARK    1  A    between atoms: C_4  and  C_5
REMARK    2  A    between atoms: C_11  and  C_12
REMARK                            x       y       z     vdW  Elec       q    Type
REMARK                         _______ _______ _______ _____ _____    ______ ____
ROOT
ATOM      1  O   UNL     1       0.722   7.461  21.713  0.00  0.00    +0.000 OA
ATOM      2  C   UNL     1       1.129   8.005  20.695  0.00  0.00    +0.000 A 
ATOM      3  C   UNL     1       0.717   9.395  20.447  0.00  0.00    +0.000 A 
ATOM      4  C   UNL     1       1.167  10.024  19.360  0.00  0.00    +0.000 A 
ATOM      5  O   UNL     1       1.998   9.463  18.416  0.00  0.00    +0.000 OA
ATOM      6  C   UNL     1       2.372   8.149  18.578  0.00  0.00    +0.000 A 
ATOM      7  C   UNL     1       3.165   7.628  17.561  0.00  0.00    +0.000 A 
ATOM      8  C   UNL     1       3.596   6.307  17.628  0.00  0.00    +0.000 A 
ATOM      9  C   UNL     1       3.250   5.490  18.713  0.00  0.00    +0.000 A 
ATOM     10  C   UNL     1       3.715   4.163  18.751  0.00  0.00    +0.000 A 
ATOM     11  C   UNL     1       3.398   3.317  19.810  0.00  0.00    +0.000 A 
ATOM     12  C   UNL     1       2.606   3.787  20.845  0.00  0.00    +0.000 A 
ATOM     13  C   UNL     1       2.136   5.103  20.820  0.00  0.00    +0.000 A 
ATOM     14  C   UNL     1       2.439   5.998  19.764  0.00  0.00    +0.000 A 
ATOM     15  C   UNL     1       1.998   7.359  19.673  0.00  0.00    +0.000 A 
ENDROOT
BRANCH   4  16
ATOM     16  C   UNL     1       0.769  11.403  19.064  0.00  0.00    +0.000 A 
ATOM     17  C   UNL     1       1.641  12.422  19.486  0.00  0.00    +0.000 A 
ATOM     18  C   UNL     1       1.313  13.756  19.282  0.00  0.00    +0.000 A 
ATOM     19  F   UNL     1       2.139  14.713  19.725  0.00  0.00    +0.000 F 
ATOM     20  C   UNL     1       0.137  14.110  18.638  0.00  0.00    +0.000 A 
ATOM     21  C   UNL     1      -0.726  13.109  18.193  0.00  0.00    +0.000 A 
ATOM     22  C   UNL     1      -0.433  11.743  18.408  0.00  0.00    +0.000 A 
BRANCH  22  23
ATOM     23  C   UNL     1      -1.455  10.729  17.939  0.00  0.00    +0.000 C 
ATOM     24  F   UNL     1      -2.143  10.086  18.918  0.00  0.00    +0.000 F 
ATOM     25  F   UNL     1      -2.400  11.300  17.139  0.00  0.00    +0.000 F 
ATOM     26  F   UNL     1      -0.885   9.745  17.185  0.00  0.00    +0.000 F 
ENDBRANCH  22  23
ENDBRANCH   4  16
TORSDOF 2
ENDMDL
