MODEL 1
REMARK VINA RESULT:      -7.3      0.000      0.000
REMARK  Name = 
REMARK  9 active torsions:
REMARK  status: ('A' for Active; 'I' for Inactive)
REMARK    1  A    between atoms: C_1  and  N_2
REMARK    2  A    between atoms: C_3  and  S_4
REMARK    3  A    between atoms: S_4  and  C_5
REMARK    4  A    between atoms: C_5  and  C_6
REMARK    5  A    between atoms: C_6  and  C_7
REMARK    6  A    between atoms: C_7  and  N_8
REMARK    7  A    between atoms: C_13  and  C_14
REMARK    8  A    between atoms: C_17  and  C_18
REMARK    9  A    between atoms: C_27  and  C_28
REMARK                            x       y       z     vdW  Elec       q    Type
REMARK                         _______ _______ _______ _____ _____    ______ ____
ROOT
ATOM      1  N   UNL     1      -2.043  12.287  18.426  0.00  0.00    +0.000 NA
ATOM      2  C   UNL     1      -1.895  11.152  17.488  0.00  0.00    +0.000 C 
ATOM      3  C   UNL     1      -1.321  10.006  18.323  0.00  0.00    +0.000 C 
ATOM      4  C   UNL     1      -0.491  10.730  19.348  0.00  0.00    +0.000 C 
ATOM      5  C   UNL     1      -0.260  10.144  20.728  0.00  0.00    +0.000 C 
ATOM      6  C   UNL     1       0.902  10.277  19.764  0.00  0.00    +0.000 C 
ATOM      7  C   UNL     1      -0.810  12.209  19.245  0.00  0.00    +0.000 C 
ENDROOT
BRANCH   6   8
ATOM      8  C   UNL     1       1.575   9.004  19.275  0.00  0.00    +0.000 A 
ATOM      9  C   UNL     1       2.153   8.908  17.993  0.00  0.00    +0.000 A 
ATOM     10  C   UNL     1       2.899   7.786  17.612  0.00  0.00    +0.000 A 
ATOM     11  C   UNL     1       3.038   6.692  18.458  0.00  0.00    +0.000 A 
ATOM     12  C   UNL     1       2.404   6.731  19.709  0.00  0.00    +0.000 A 
ATOM     13  C   UNL     1       1.709   7.883  20.103  0.00  0.00    +0.000 A 
BRANCH  11  14
ATOM     14  C   UNL     1       3.863   5.509  18.022  0.00  0.00    +0.000 C 
ATOM     15  F   UNL     1       5.102   5.500  18.593  0.00  0.00    +0.000 F 
ATOM     16  F   UNL     1       3.296   4.320  18.359  0.00  0.00    +0.000 F 
ATOM     17  F   UNL     1       4.075   5.465  16.680  0.00  0.00    +0.000 F 
ENDBRANCH  11  14
ENDBRANCH   6   8
BRANCH   1  18
ATOM     18  C   UNL     1      -3.225  12.100  19.275  0.00  0.00    +0.000 C 
BRANCH  18  19
ATOM     19  C   UNL     1      -4.515  11.802  18.500  0.00  0.00    +0.000 C 
BRANCH  19  20
ATOM     20  C   UNL     1      -5.674  11.750  19.501  0.00  0.00    +0.000 C 
BRANCH  20  21
ATOM     21  S   UNL     1      -6.030  13.383  20.341  0.00  0.00    +0.000 S 
BRANCH  21  24
ATOM     22  C   UNL     1      -3.462  15.375  21.461  0.00  0.00    +0.000 C 
ATOM     23  N   UNL     1      -4.073  14.262  22.130  0.00  0.00    +0.000 N 
ATOM     24  C   UNL     1      -5.004  13.312  21.739  0.00  0.00    +0.000 A 
ATOM     25  N   UNL     1      -5.014  12.333  22.585  0.00  0.00    +0.000 NA
ATOM     26  N   UNL     1      -4.103  12.605  23.585  0.00  0.00    +0.000 NA
ATOM     27  C   UNL     1      -3.589  13.787  23.334  0.00  0.00    +0.000 A 
BRANCH  27  28
ATOM     28  C   UNL     1      -2.598  14.463  24.231  0.00  0.00    +0.000 A 
ATOM     29  C   UNL     1      -2.937  15.129  25.383  0.00  0.00    +0.000 A 
ATOM     30  S   UNL     1      -1.498  15.799  26.032  0.00  0.00    +0.000 S 
ATOM     31  N   UNL     1      -0.545  15.158  24.817  0.00  0.00    +0.000 NA
ATOM     32  N   UNL     1      -1.236  14.448  23.949  0.00  0.00    +0.000 NA
ENDBRANCH  27  28
ENDBRANCH  21  24
ENDBRANCH  20  21
ENDBRANCH  19  20
ENDBRANCH  18  19
ENDBRANCH   1  18
TORSDOF 8
ENDMDL
MODEL 2
REMARK VINA RESULT:      -7.1      4.686      6.178
REMARK  Name = 
REMARK  9 active torsions:
REMARK  status: ('A' for Active; 'I' for Inactive)
REMARK    1  A    between atoms: C_1  and  N_2
REMARK    2  A    between atoms: C_3  and  S_4
REMARK    3  A    between atoms: S_4  and  C_5
REMARK    4  A    between atoms: C_5  and  C_6
REMARK    5  A    between atoms: C_6  and  C_7
REMARK    6  A    between atoms: C_7  and  N_8
REMARK    7  A    between atoms: C_13  and  C_14
REMARK    8  A    between atoms: C_17  and  C_18
REMARK    9  A    between atoms: C_27  and  C_28
REMARK                            x       y       z     vdW  Elec       q    Type
REMARK                         _______ _______ _______ _____ _____    ______ ____
ROOT
ATOM      1  N   UNL     1      -0.678  10.559  20.421  0.00  0.00    +0.000 NA
ATOM      2  C   UNL     1      -0.026   9.440  21.136  0.00  0.00    +0.000 C 
ATOM      3  C   UNL     1       1.303   9.213  20.414  0.00  0.00    +0.000 C 
ATOM      4  C   UNL     1       0.977   9.601  18.997  0.00  0.00    +0.000 C 
ATOM      5  C   UNL     1       2.041  10.159  18.072  0.00  0.00    +0.000 C 
ATOM      6  C   UNL     1       1.437   8.799  17.788  0.00  0.00    +0.000 C 
ATOM      7  C   UNL     1      -0.387  10.262  18.997  0.00  0.00    +0.000 C 
ENDROOT
BRANCH   6   8
ATOM      8  C   UNL     1       2.347   7.583  17.856  0.00  0.00    +0.000 A 
ATOM      9  C   UNL     1       1.872   6.314  18.242  0.00  0.00    +0.000 A 
ATOM     10  C   UNL     1       2.683   5.175  18.155  0.00  0.00    +0.000 A 
ATOM     11  C   UNL     1       4.010   5.265  17.753  0.00  0.00    +0.000 A 
ATOM     12  C   UNL     1       4.529   6.530  17.441  0.00  0.00    +0.000 A 
ATOM     13  C   UNL     1       3.692   7.654  17.474  0.00  0.00    +0.000 A 
BRANCH  11  14
ATOM     14  C   UNL     1       4.849   4.016  17.655  0.00  0.00    +0.000 C 
ATOM     15  F   UNL     1       5.857   3.994  18.575  0.00  0.00    +0.000 F 
ATOM     16  F   UNL     1       4.131   2.882  17.871  0.00  0.00    +0.000 F 
ATOM     17  F   UNL     1       5.449   3.865  16.445  0.00  0.00    +0.000 F 
ENDBRANCH  11  14
ENDBRANCH   6   8
BRANCH   1  18
ATOM     18  C   UNL     1      -0.067  11.838  20.804  0.00  0.00    +0.000 C 
BRANCH  18  19
ATOM     19  C   UNL     1      -0.866  13.072  20.367  0.00  0.00    +0.000 C 
BRANCH  19  20
ATOM     20  C   UNL     1      -0.026  13.849  19.347  0.00  0.00    +0.000 C 
BRANCH  20  21
ATOM     21  S   UNL     1      -0.027  15.700  19.611  0.00  0.00    +0.000 S 
BRANCH  21  24
ATOM     22  C   UNL     1       3.202  14.863  20.440  0.00  0.00    +0.000 C 
ATOM     23  N   UNL     1       2.751  15.654  19.330  0.00  0.00    +0.000 N 
ATOM     24  C   UNL     1       1.516  16.167  18.967  0.00  0.00    +0.000 A 
ATOM     25  N   UNL     1       1.666  17.067  18.050  0.00  0.00    +0.000 NA
ATOM     26  N   UNL     1       3.009  17.172  17.751  0.00  0.00    +0.000 NA
ATOM     27  C   UNL     1       3.642  16.281  18.480  0.00  0.00    +0.000 A 
BRANCH  27  28
ATOM     28  C   UNL     1       5.118  16.045  18.394  0.00  0.00    +0.000 A 
ATOM     29  C   UNL     1       6.062  16.895  18.914  0.00  0.00    +0.000 A 
ATOM     30  S   UNL     1       7.604  16.260  18.513  0.00  0.00    +0.000 S 
ATOM     31  N   UNL     1       6.953  14.929  17.739  0.00  0.00    +0.000 NA
ATOM     32  N   UNL     1       5.637  14.912  17.773  0.00  0.00    +0.000 NA
ENDBRANCH  27  28
ENDBRANCH  21  24
ENDBRANCH  20  21
ENDBRANCH  19  20
ENDBRANCH  18  19
ENDBRANCH   1  18
TORSDOF 8
ENDMDL
MODEL 3
REMARK VINA RESULT:      -7.1      7.331     11.239
REMARK  Name = 
REMARK  9 active torsions:
REMARK  status: ('A' for Active; 'I' for Inactive)
REMARK    1  A    between atoms: C_1  and  N_2
REMARK    2  A    between atoms: C_3  and  S_4
REMARK    3  A    between atoms: S_4  and  C_5
REMARK    4  A    between atoms: C_5  and  C_6
REMARK    5  A    between atoms: C_6  and  C_7
REMARK    6  A    between atoms: C_7  and  N_8
REMARK    7  A    between atoms: C_13  and  C_14
REMARK    8  A    between atoms: C_17  and  C_18
REMARK    9  A    between atoms: C_27  and  C_28
REMARK                            x       y       z     vdW  Elec       q    Type
REMARK                         _______ _______ _______ _____ _____    ______ ____
ROOT
ATOM      1  N   UNL     1       1.860   9.096  19.437  0.00  0.00    +0.000 NA
ATOM      2  C   UNL     1       0.976   9.267  20.611  0.00  0.00    +0.000 C 
ATOM      3  C   UNL     1      -0.428   9.466  20.039  0.00  0.00    +0.000 C 
ATOM      4  C   UNL     1      -0.154  10.156  18.730  0.00  0.00    +0.000 C 
ATOM      5  C   UNL     1      -1.088   9.992  17.546  0.00  0.00    +0.000 C 
ATOM      6  C   UNL     1      -0.968  11.340  18.227  0.00  0.00    +0.000 C 
ATOM      7  C   UNL     1       1.339  10.097  18.475  0.00  0.00    +0.000 C 
ENDROOT
BRANCH   6   8
ATOM      8  C   UNL     1      -2.198  11.900  18.926  0.00  0.00    +0.000 A 
ATOM      9  C   UNL     1      -3.504  11.616  18.482  0.00  0.00    +0.000 A 
ATOM     10  C   UNL     1      -4.627  12.012  19.221  0.00  0.00    +0.000 A 
ATOM     11  C   UNL     1      -4.496  12.763  20.383  0.00  0.00    +0.000 A 
ATOM     12  C   UNL     1      -3.207  13.126  20.802  0.00  0.00    +0.000 A 
ATOM     13  C   UNL     1      -2.089  12.675  20.087  0.00  0.00    +0.000 A 
BRANCH  11  14
ATOM     14  C   UNL     1      -5.725  13.157  21.161  0.00  0.00    +0.000 C 
ATOM     15  F   UNL     1      -5.487  14.190  22.021  0.00  0.00    +0.000 F 
ATOM     16  F   UNL     1      -6.743  13.572  20.362  0.00  0.00    +0.000 F 
ATOM     17  F   UNL     1      -6.224  12.149  21.925  0.00  0.00    +0.000 F 
ENDBRANCH  11  14
ENDBRANCH   6   8
BRANCH   1  18
ATOM     18  C   UNL     1       1.721   7.744  18.883  0.00  0.00    +0.000 C 
BRANCH  18  19
ATOM     19  C   UNL     1       2.761   6.742  19.401  0.00  0.00    +0.000 C 
BRANCH  19  20
ATOM     20  C   UNL     1       2.045   5.731  20.302  0.00  0.00    +0.000 C 
BRANCH  20  21
ATOM     21  S   UNL     1       2.853   4.046  20.350  0.00  0.00    +0.000 S 
BRANCH  21  24
ATOM     22  C   UNL     1       3.436   3.653  16.985  0.00  0.00    +0.000 C 
ATOM     23  N   UNL     1       4.320   4.194  17.978  0.00  0.00    +0.000 N 
ATOM     24  C   UNL     1       4.260   4.281  19.360  0.00  0.00    +0.000 A 
ATOM     25  N   UNL     1       5.427   4.576  19.833  0.00  0.00    +0.000 NA
ATOM     26  N   UNL     1       6.306   4.719  18.780  0.00  0.00    +0.000 NA
ATOM     27  C   UNL     1       5.621   4.546  17.673  0.00  0.00    +0.000 A 
BRANCH  27  28
ATOM     28  C   UNL     1       6.216   4.683  16.305  0.00  0.00    +0.000 A 
ATOM     29  C   UNL     1       5.871   3.893  15.237  0.00  0.00    +0.000 A 
ATOM     30  S   UNL     1       6.856   4.360  13.913  0.00  0.00    +0.000 S 
ATOM     31  N   UNL     1       7.623   5.559  14.790  0.00  0.00    +0.000 NA
ATOM     32  N   UNL     1       7.174   5.652  16.025  0.00  0.00    +0.000 NA
ENDBRANCH  27  28
ENDBRANCH  21  24
ENDBRANCH  20  21
ENDBRANCH  19  20
ENDBRANCH  18  19
ENDBRANCH   1  18
TORSDOF 8
ENDMDL
MODEL 4
REMARK VINA RESULT:      -7.1      4.981      6.587
REMARK  Name = 
REMARK  9 active torsions:
REMARK  status: ('A' for Active; 'I' for Inactive)
REMARK    1  A    between atoms: C_1  and  N_2
REMARK    2  A    between atoms: C_3  and  S_4
REMARK    3  A    between atoms: S_4  and  C_5
REMARK    4  A    between atoms: C_5  and  C_6
REMARK    5  A    between atoms: C_6  and  C_7
REMARK    6  A    between atoms: C_7  and  N_8
REMARK    7  A    between atoms: C_13  and  C_14
REMARK    8  A    between atoms: C_17  and  C_18
REMARK    9  A    between atoms: C_27  and  C_28
REMARK                            x       y       z     vdW  Elec       q    Type
REMARK                         _______ _______ _______ _____ _____    ______ ____
ROOT
ATOM      1  N   UNL     1       0.145  10.436  19.480  0.00  0.00    +0.000 NA
ATOM      2  C   UNL     1       0.189   9.315  20.445  0.00  0.00    +0.000 C 
ATOM      3  C   UNL     1       1.460   8.534  20.106  0.00  0.00    +0.000 C 
ATOM      4  C   UNL     1       1.586   8.742  18.620  0.00  0.00    +0.000 C 
ATOM      5  C   UNL     1       2.942   8.739  17.940  0.00  0.00    +0.000 C 
ATOM      6  C   UNL     1       1.954   7.627  17.652  0.00  0.00    +0.000 C 
ATOM      7  C   UNL     1       0.585   9.805  18.212  0.00  0.00    +0.000 C 
ENDROOT
BRANCH   6   8
ATOM      8  C   UNL     1       2.327   6.212  18.067  0.00  0.00    +0.000 A 
ATOM      9  C   UNL     1       1.459   5.121  17.866  0.00  0.00    +0.000 A 
ATOM     10  C   UNL     1       1.873   3.805  18.114  0.00  0.00    +0.000 A 
ATOM     11  C   UNL     1       3.132   3.533  18.637  0.00  0.00    +0.000 A 
ATOM     12  C   UNL     1       3.984   4.611  18.921  0.00  0.00    +0.000 A 
ATOM     13  C   UNL     1       3.581   5.918  18.614  0.00  0.00    +0.000 A 
BRANCH  11  14
ATOM     14  C   UNL     1       3.550   2.105  18.875  0.00  0.00    +0.000 C 
ATOM     15  F   UNL     1       4.026   1.507  17.744  0.00  0.00    +0.000 F 
ATOM     16  F   UNL     1       4.546   1.995  19.794  0.00  0.00    +0.000 F 
ATOM     17  F   UNL     1       2.536   1.313  19.312  0.00  0.00    +0.000 F 
ENDBRANCH  11  14
ENDBRANCH   6   8
BRANCH   1  18
ATOM     18  C   UNL     1       1.089  11.488  19.874  0.00  0.00    +0.000 C 
BRANCH  18  19
ATOM     19  C   UNL     1       1.372  12.522  18.776  0.00  0.00    +0.000 C 
BRANCH  19  20
ATOM     20  C   UNL     1       0.228  13.541  18.773  0.00  0.00    +0.000 C 
BRANCH  20  21
ATOM     21  S   UNL     1       0.509  15.006  19.902  0.00  0.00    +0.000 S 
BRANCH  21  24
ATOM     22  C   UNL     1       3.831  15.085  20.780  0.00  0.00    +0.000 C 
ATOM     23  N   UNL     1       3.217  15.611  19.593  0.00  0.00    +0.000 N 
ATOM     24  C   UNL     1       1.900  15.761  19.190  0.00  0.00    +0.000 A 
ATOM     25  N   UNL     1       1.840  16.562  18.176  0.00  0.00    +0.000 NA
ATOM     26  N   UNL     1       3.120  16.959  17.850  0.00  0.00    +0.000 NA
ATOM     27  C   UNL     1       3.940  16.338  18.667  0.00  0.00    +0.000 A 
BRANCH  27  28
ATOM     28  C   UNL     1       5.431  16.463  18.590  0.00  0.00    +0.000 A 
ATOM     29  C   UNL     1       6.263  15.461  18.157  0.00  0.00    +0.000 A 
ATOM     30  S   UNL     1       7.874  16.027  18.312  0.00  0.00    +0.000 S 
ATOM     31  N   UNL     1       7.390  17.520  18.886  0.00  0.00    +0.000 NA
ATOM     32  N   UNL     1       6.080  17.639  18.955  0.00  0.00    +0.000 NA
ENDBRANCH  27  28
ENDBRANCH  21  24
ENDBRANCH  20  21
ENDBRANCH  19  20
ENDBRANCH  18  19
ENDBRANCH   1  18
TORSDOF 8
ENDMDL
MODEL 5
REMARK VINA RESULT:      -7.0      2.355      3.979
REMARK  Name = 
REMARK  9 active torsions:
REMARK  status: ('A' for Active; 'I' for Inactive)
REMARK    1  A    between atoms: C_1  and  N_2
REMARK    2  A    between atoms: C_3  and  S_4
REMARK    3  A    between atoms: S_4  and  C_5
REMARK    4  A    between atoms: C_5  and  C_6
REMARK    5  A    between atoms: C_6  and  C_7
REMARK    6  A    between atoms: C_7  and  N_8
REMARK    7  A    between atoms: C_13  and  C_14
REMARK    8  A    between atoms: C_17  and  C_18
REMARK    9  A    between atoms: C_27  and  C_28
REMARK                            x       y       z     vdW  Elec       q    Type
REMARK                         _______ _______ _______ _____ _____    ______ ____
ROOT
ATOM      1  N   UNL     1      -0.312  10.648  20.346  0.00  0.00    +0.000 NA
ATOM      2  C   UNL     1       0.067   9.411  21.065  0.00  0.00    +0.000 C 
ATOM      3  C   UNL     1       1.368   8.942  20.413  0.00  0.00    +0.000 C 
ATOM      4  C   UNL     1       1.210   9.411  18.991  0.00  0.00    +0.000 C 
ATOM      5  C   UNL     1       2.416   9.767  18.143  0.00  0.00    +0.000 C 
ATOM      6  C   UNL     1       1.578   8.555  17.787  0.00  0.00    +0.000 C 
ATOM      7  C   UNL     1       0.002  10.325  18.934  0.00  0.00    +0.000 C 
ENDROOT
BRANCH   6   8
ATOM      8  C   UNL     1       2.231   7.184  17.872  0.00  0.00    +0.000 A 
ATOM      9  C   UNL     1       1.474   6.002  17.991  0.00  0.00    +0.000 A 
ATOM     10  C   UNL     1       2.077   4.739  17.916  0.00  0.00    +0.000 A 
ATOM     11  C   UNL     1       3.455   4.606  17.793  0.00  0.00    +0.000 A 
ATOM     12  C   UNL     1       4.238   5.770  17.752  0.00  0.00    +0.000 A 
ATOM     13  C   UNL     1       3.618   7.027  17.769  0.00  0.00    +0.000 A 
BRANCH  11  14
ATOM     14  C   UNL     1       4.068   3.233  17.698  0.00  0.00    +0.000 C 
ATOM     15  F   UNL     1       5.032   3.159  16.734  0.00  0.00    +0.000 F 
ATOM     16  F   UNL     1       4.673   2.846  18.851  0.00  0.00    +0.000 F 
ATOM     17  F   UNL     1       3.167   2.261  17.393  0.00  0.00    +0.000 F 
ENDBRANCH  11  14
ENDBRANCH   6   8
BRANCH   1  18
ATOM     18  C   UNL     1       0.510  11.776  20.800  0.00  0.00    +0.000 C 
BRANCH  18  19
ATOM     19  C   UNL     1       0.849  12.789  19.699  0.00  0.00    +0.000 C 
BRANCH  19  20
ATOM     20  C   UNL     1       0.234  14.139  20.084  0.00  0.00    +0.000 C 
BRANCH  20  21
ATOM     21  S   UNL     1      -0.357  14.229  21.856  0.00  0.00    +0.000 S 
BRANCH  21  24
ATOM     22  C   UNL     1      -2.744  12.128  23.161  0.00  0.00    +0.000 C 
ATOM     23  N   UNL     1      -2.944  13.305  22.363  0.00  0.00    +0.000 N 
ATOM     24  C   UNL     1      -2.082  14.145  21.676  0.00  0.00    +0.000 A 
ATOM     25  N   UNL     1      -2.754  14.889  20.858  0.00  0.00    +0.000 NA
ATOM     26  N   UNL     1      -4.094  14.587  20.986  0.00  0.00    +0.000 NA
ATOM     27  C   UNL     1      -4.201  13.680  21.930  0.00  0.00    +0.000 A 
BRANCH  27  28
ATOM     28  C   UNL     1      -5.513  13.136  22.405  0.00  0.00    +0.000 A 
ATOM     29  C   UNL     1      -6.190  13.615  23.499  0.00  0.00    +0.000 A 
ATOM     30  S   UNL     1      -7.590  12.645  23.703  0.00  0.00    +0.000 S 
ATOM     31  N   UNL     1      -7.247  11.711  22.360  0.00  0.00    +0.000 NA
ATOM     32  N   UNL     1      -6.147  12.089  21.743  0.00  0.00    +0.000 NA
ENDBRANCH  27  28
ENDBRANCH  21  24
ENDBRANCH  20  21
ENDBRANCH  19  20
ENDBRANCH  18  19
ENDBRANCH   1  18
TORSDOF 8
ENDMDL
MODEL 6
REMARK VINA RESULT:      -7.0      1.718      2.414
REMARK  Name = 
REMARK  9 active torsions:
REMARK  status: ('A' for Active; 'I' for Inactive)
REMARK    1  A    between atoms: C_1  and  N_2
REMARK    2  A    between atoms: C_3  and  S_4
REMARK    3  A    between atoms: S_4  and  C_5
REMARK    4  A    between atoms: C_5  and  C_6
REMARK    5  A    between atoms: C_6  and  C_7
REMARK    6  A    between atoms: C_7  and  N_8
REMARK    7  A    between atoms: C_13  and  C_14
REMARK    8  A    between atoms: C_17  and  C_18
REMARK    9  A    between atoms: C_27  and  C_28
REMARK                            x       y       z     vdW  Elec       q    Type
REMARK                         _______ _______ _______ _____ _____    ______ ____
ROOT
ATOM      1  N   UNL     1       0.139  11.758  19.880  0.00  0.00    +0.000 NA
ATOM      2  C   UNL     1       0.409  11.011  18.631  0.00  0.00    +0.000 C 
ATOM      3  C   UNL     1       0.217   9.537  18.988  0.00  0.00    +0.000 C 
ATOM      4  C   UNL     1       0.631   9.493  20.434  0.00  0.00    +0.000 C 
ATOM      5  C   UNL     1       0.039   8.475  21.390  0.00  0.00    +0.000 C 
ATOM      6  C   UNL     1       1.505   8.390  21.017  0.00  0.00    +0.000 C 
ATOM      7  C   UNL     1       0.787  10.921  20.918  0.00  0.00    +0.000 C 
ENDROOT
BRANCH   6   8
ATOM      8  C   UNL     1       1.977   7.167  20.246  0.00  0.00    +0.000 A 
ATOM      9  C   UNL     1       1.632   5.858  20.637  0.00  0.00    +0.000 A 
ATOM     10  C   UNL     1       1.946   4.752  19.836  0.00  0.00    +0.000 A 
ATOM     11  C   UNL     1       2.673   4.897  18.660  0.00  0.00    +0.000 A 
ATOM     12  C   UNL     1       3.096   6.183  18.292  0.00  0.00    +0.000 A 
ATOM     13  C   UNL     1       2.726   7.288  19.070  0.00  0.00    +0.000 A 
BRANCH  11  14
ATOM     14  C   UNL     1       2.977   3.688  17.815  0.00  0.00    +0.000 C 
ATOM     15  F   UNL     1       1.973   3.401  16.936  0.00  0.00    +0.000 F 
ATOM     16  F   UNL     1       4.094   3.844  17.056  0.00  0.00    +0.000 F 
ATOM     17  F   UNL     1       3.164   2.555  18.543  0.00  0.00    +0.000 F 
ENDBRANCH  11  14
ENDBRANCH   6   8
BRANCH   1  18
ATOM     18  C   UNL     1      -1.305  11.841  20.126  0.00  0.00    +0.000 C 
BRANCH  18  19
ATOM     19  C   UNL     1      -2.135  12.197  18.886  0.00  0.00    +0.000 C 
BRANCH  19  20
ATOM     20  C   UNL     1      -3.401  11.335  18.894  0.00  0.00    +0.000 C 
BRANCH  20  21
ATOM     21  S   UNL     1      -4.991  12.315  18.998  0.00  0.00    +0.000 S 
BRANCH  21  24
ATOM     22  C   UNL     1      -3.504  14.885  20.731  0.00  0.00    +0.000 C 
ATOM     23  N   UNL     1      -4.463  13.931  21.214  0.00  0.00    +0.000 N 
ATOM     24  C   UNL     1      -5.025  12.788  20.669  0.00  0.00    +0.000 A 
ATOM     25  N   UNL     1      -5.604  12.097  21.597  0.00  0.00    +0.000 NA
ATOM     26  N   UNL     1      -5.468  12.767  22.795  0.00  0.00    +0.000 NA
ATOM     27  C   UNL     1      -4.834  13.890  22.544  0.00  0.00    +0.000 A 
BRANCH  27  28
ATOM     28  C   UNL     1      -4.547  14.925  23.588  0.00  0.00    +0.000 A 
ATOM     29  C   UNL     1      -5.293  16.064  23.763  0.00  0.00    +0.000 A 
ATOM     30  S   UNL     1      -4.552  16.977  25.012  0.00  0.00    +0.000 S 
ATOM     31  N   UNL     1      -3.358  15.835  25.261  0.00  0.00    +0.000 NA
ATOM     32  N   UNL     1      -3.483  14.786  24.474  0.00  0.00    +0.000 NA
ENDBRANCH  27  28
ENDBRANCH  21  24
ENDBRANCH  20  21
ENDBRANCH  19  20
ENDBRANCH  18  19
ENDBRANCH   1  18
TORSDOF 8
ENDMDL
MODEL 7
REMARK VINA RESULT:      -6.9      1.940      4.473
REMARK  Name = 
REMARK  9 active torsions:
REMARK  status: ('A' for Active; 'I' for Inactive)
REMARK    1  A    between atoms: C_1  and  N_2
REMARK    2  A    between atoms: C_3  and  S_4
REMARK    3  A    between atoms: S_4  and  C_5
REMARK    4  A    between atoms: C_5  and  C_6
REMARK    5  A    between atoms: C_6  and  C_7
REMARK    6  A    between atoms: C_7  and  N_8
REMARK    7  A    between atoms: C_13  and  C_14
REMARK    8  A    between atoms: C_17  and  C_18
REMARK    9  A    between atoms: C_27  and  C_28
REMARK                            x       y       z     vdW  Elec       q    Type
REMARK                         _______ _______ _______ _____ _____    ______ ____
ROOT
ATOM      1  N   UNL     1      -1.897  12.314  22.497  0.00  0.00    +0.000 NA
ATOM      2  C   UNL     1      -1.267  11.072  22.997  0.00  0.00    +0.000 C 
ATOM      3  C   UNL     1       0.034  10.928  22.205  0.00  0.00    +0.000 C 
ATOM      4  C   UNL     1      -0.317  11.555  20.882  0.00  0.00    +0.000 C 
ATOM      5  C   UNL     1       0.741  12.226  20.027  0.00  0.00    +0.000 C 
ATOM      6  C   UNL     1       0.082  10.951  19.543  0.00  0.00    +0.000 C 
ATOM      7  C   UNL     1      -1.656  12.248  21.036  0.00  0.00    +0.000 C 
ENDROOT
BRANCH   6   8
ATOM      8  C   UNL     1       0.950   9.714  19.380  0.00  0.00    +0.000 A 
ATOM      9  C   UNL     1       1.132   8.785  20.424  0.00  0.00    +0.000 A 
ATOM     10  C   UNL     1       1.809   7.576  20.215  0.00  0.00    +0.000 A 
ATOM     11  C   UNL     1       2.390   7.280  18.988  0.00  0.00    +0.000 A 
ATOM     12  C   UNL     1       2.291   8.225  17.956  0.00  0.00    +0.000 A 
ATOM     13  C   UNL     1       1.562   9.405  18.159  0.00  0.00    +0.000 A 
BRANCH  11  14
ATOM     14  C   UNL     1       3.096   5.963  18.793  0.00  0.00    +0.000 C 
ATOM     15  F   UNL     1       3.073   5.547  17.494  0.00  0.00    +0.000 F 
ATOM     16  F   UNL     1       4.410   6.014  19.138  0.00  0.00    +0.000 F 
ATOM     17  F   UNL     1       2.551   4.948  19.514  0.00  0.00    +0.000 F 
ENDBRANCH  11  14
ENDBRANCH   6   8
BRANCH   1  18
ATOM     18  C   UNL     1      -1.232  13.492  23.066  0.00  0.00    +0.000 C 
BRANCH  18  19
ATOM     19  C   UNL     1      -2.159  14.406  23.879  0.00  0.00    +0.000 C 
BRANCH  19  20
ATOM     20  C   UNL     1      -3.324  13.560  24.404  0.00  0.00    +0.000 C 
BRANCH  20  21
ATOM     21  S   UNL     1      -5.013  14.248  23.989  0.00  0.00    +0.000 S 
BRANCH  21  24
ATOM     22  C   UNL     1      -4.397  14.704  20.638  0.00  0.00    +0.000 C 
ATOM     23  N   UNL     1      -5.024  13.582  21.277  0.00  0.00    +0.000 N 
ATOM     24  C   UNL     1      -5.445  13.339  22.575  0.00  0.00    +0.000 A 
ATOM     25  N   UNL     1      -6.226  12.308  22.597  0.00  0.00    +0.000 NA
ATOM     26  N   UNL     1      -6.337  11.810  21.316  0.00  0.00    +0.000 NA
ATOM     27  C   UNL     1      -5.568  12.544  20.544  0.00  0.00    +0.000 A 
BRANCH  27  28
ATOM     28  C   UNL     1      -5.373  12.279  19.083  0.00  0.00    +0.000 A 
ATOM     29  C   UNL     1      -4.386  11.469  18.577  0.00  0.00    +0.000 A 
ATOM     30  S   UNL     1      -4.503  11.525  16.867  0.00  0.00    +0.000 S 
ATOM     31  N   UNL     1      -5.825  12.548  16.901  0.00  0.00    +0.000 NA
ATOM     32  N   UNL     1      -6.208  12.844  18.125  0.00  0.00    +0.000 NA
ENDBRANCH  27  28
ENDBRANCH  21  24
ENDBRANCH  20  21
ENDBRANCH  19  20
ENDBRANCH  18  19
ENDBRANCH   1  18
TORSDOF 8
ENDMDL
MODEL 8
REMARK VINA RESULT:      -6.9      3.564      4.562
REMARK  Name = 
REMARK  9 active torsions:
REMARK  status: ('A' for Active; 'I' for Inactive)
REMARK    1  A    between atoms: C_1  and  N_2
REMARK    2  A    between atoms: C_3  and  S_4
REMARK    3  A    between atoms: S_4  and  C_5
REMARK    4  A    between atoms: C_5  and  C_6
REMARK    5  A    between atoms: C_6  and  C_7
REMARK    6  A    between atoms: C_7  and  N_8
REMARK    7  A    between atoms: C_13  and  C_14
REMARK    8  A    between atoms: C_17  and  C_18
REMARK    9  A    between atoms: C_27  and  C_28
REMARK                            x       y       z     vdW  Elec       q    Type
REMARK                         _______ _______ _______ _____ _____    ______ ____
ROOT
ATOM      1  N   UNL     1      -1.720  12.682  19.397  0.00  0.00    +0.000 NA
ATOM      2  C   UNL     1      -1.641  11.731  18.267  0.00  0.00    +0.000 C 
ATOM      3  C   UNL     1      -1.253  10.389  18.889  0.00  0.00    +0.000 C 
ATOM      4  C   UNL     1      -0.414  10.804  20.067  0.00  0.00    +0.000 C 
ATOM      5  C   UNL     1      -0.338   9.948  21.317  0.00  0.00    +0.000 C 
ATOM      6  C   UNL     1       0.890  10.114  20.445  0.00  0.00    +0.000 C 
ATOM      7  C   UNL     1      -0.557  12.304  20.237  0.00  0.00    +0.000 C 
ENDROOT
BRANCH   6   8
ATOM      8  C   UNL     1       1.446   8.881  19.749  0.00  0.00    +0.000 A 
ATOM      9  C   UNL     1       1.878   8.911  18.408  0.00  0.00    +0.000 A 
ATOM     10  C   UNL     1       2.525   7.813  17.827  0.00  0.00    +0.000 A 
ATOM     11  C   UNL     1       2.702   6.627  18.529  0.00  0.00    +0.000 A 
ATOM     12  C   UNL     1       2.208   6.546  19.840  0.00  0.00    +0.000 A 
ATOM     13  C   UNL     1       1.614   7.670  20.431  0.00  0.00    +0.000 A 
BRANCH  11  14
ATOM     14  C   UNL     1       3.418   5.471  17.878  0.00  0.00    +0.000 C 
ATOM     15  F   UNL     1       2.558   4.502  17.449  0.00  0.00    +0.000 F 
ATOM     16  F   UNL     1       4.128   5.843  16.781  0.00  0.00    +0.000 F 
ATOM     17  F   UNL     1       4.295   4.846  18.707  0.00  0.00    +0.000 F 
ENDBRANCH  11  14
ENDBRANCH   6   8
BRANCH   1  18
ATOM     18  C   UNL     1      -2.967  12.487  20.145  0.00  0.00    +0.000 C 
BRANCH  18  19
ATOM     19  C   UNL     1      -3.066  13.317  21.431  0.00  0.00    +0.000 C 
BRANCH  19  20
ATOM     20  C   UNL     1      -3.279  14.783  21.039  0.00  0.00    +0.000 C 
BRANCH  20  21
ATOM     21  S   UNL     1      -2.059  15.966  21.820  0.00  0.00    +0.000 S 
BRANCH  21  24
ATOM     22  C   UNL     1       1.368  15.775  21.649  0.00  0.00    +0.000 C 
ATOM     23  N   UNL     1       0.441  16.002  20.577  0.00  0.00    +0.000 N 
ATOM     24  C   UNL     1      -0.925  16.232  20.533  0.00  0.00    +0.000 A 
ATOM     25  N   UNL     1      -1.258  16.681  19.367  0.00  0.00    +0.000 NA
ATOM     26  N   UNL     1      -0.126  16.746  18.580  0.00  0.00    +0.000 NA
ATOM     27  C   UNL     1       0.873  16.283  19.295  0.00  0.00    +0.000 A 
BRANCH  27  28
ATOM     28  C   UNL     1       2.267  16.137  18.765  0.00  0.00    +0.000 A 
ATOM     29  C   UNL     1       2.761  14.978  18.219  0.00  0.00    +0.000 A 
ATOM     30  S   UNL     1       4.407  15.257  17.825  0.00  0.00    +0.000 S 
ATOM     31  N   UNL     1       4.356  16.844  18.347  0.00  0.00    +0.000 NA
ATOM     32  N   UNL     1       3.166  17.198  18.788  0.00  0.00    +0.000 NA
ENDBRANCH  27  28
ENDBRANCH  21  24
ENDBRANCH  20  21
ENDBRANCH  19  20
ENDBRANCH  18  19
ENDBRANCH   1  18
TORSDOF 8
ENDMDL
MODEL 9
REMARK VINA RESULT:      -6.9      3.780      4.945
REMARK  Name = 
REMARK  9 active torsions:
REMARK  status: ('A' for Active; 'I' for Inactive)
REMARK    1  A    between atoms: C_1  and  N_2
REMARK    2  A    between atoms: C_3  and  S_4
REMARK    3  A    between atoms: S_4  and  C_5
REMARK    4  A    between atoms: C_5  and  C_6
REMARK    5  A    between atoms: C_6  and  C_7
REMARK    6  A    between atoms: C_7  and  N_8
REMARK    7  A    between atoms: C_13  and  C_14
REMARK    8  A    between atoms: C_17  and  C_18
REMARK    9  A    between atoms: C_27  and  C_28
REMARK                            x       y       z     vdW  Elec       q    Type
REMARK                         _______ _______ _______ _____ _____    ______ ____
ROOT
ATOM      1  N   UNL     1      -0.420  12.120  20.145  0.00  0.00    +0.000 NA
ATOM      2  C   UNL     1      -0.364  11.386  18.861  0.00  0.00    +0.000 C 
ATOM      3  C   UNL     1      -0.390   9.904  19.237  0.00  0.00    +0.000 C 
ATOM      4  C   UNL     1       0.311   9.891  20.569  0.00  0.00    +0.000 C 
ATOM      5  C   UNL     1      -0.014   8.843  21.616  0.00  0.00    +0.000 C 
ATOM      6  C   UNL     1       1.349   8.846  20.954  0.00  0.00    +0.000 C 
ATOM      7  C   UNL     1       0.474  11.328  21.024  0.00  0.00    +0.000 C 
ENDROOT
BRANCH   6   8
ATOM      8  C   UNL     1       1.729   7.652  20.093  0.00  0.00    +0.000 A 
ATOM      9  C   UNL     1       2.291   7.803  18.810  0.00  0.00    +0.000 A 
ATOM     10  C   UNL     1       2.774   6.702  18.091  0.00  0.00    +0.000 A 
ATOM     11  C   UNL     1       2.652   5.410  18.586  0.00  0.00    +0.000 A 
ATOM     12  C   UNL     1       2.023   5.226  19.827  0.00  0.00    +0.000 A 
ATOM     13  C   UNL     1       1.596   6.340  20.563  0.00  0.00    +0.000 A 
BRANCH  11  14
ATOM     14  C   UNL     1       3.199   4.250  17.794  0.00  0.00    +0.000 C 
ATOM     15  F   UNL     1       3.990   4.655  16.758  0.00  0.00    +0.000 F 
ATOM     16  F   UNL     1       3.972   3.419  18.542  0.00  0.00    +0.000 F 
ATOM     17  F   UNL     1       2.231   3.474  17.237  0.00  0.00    +0.000 F 
ENDBRANCH  11  14
ENDBRANCH   6   8
BRANCH   1  18
ATOM     18  C   UNL     1      -1.787  12.115  20.679  0.00  0.00    +0.000 C 
BRANCH  18  19
ATOM     19  C   UNL     1      -2.407  13.510  20.833  0.00  0.00    +0.000 C 
BRANCH  19  20
ATOM     20  C   UNL     1      -1.817  14.159  22.089  0.00  0.00    +0.000 C 
BRANCH  20  21
ATOM     21  S   UNL     1      -0.936  15.777  21.768  0.00  0.00    +0.000 S 
BRANCH  21  24
ATOM     22  C   UNL     1       1.123  16.190  19.047  0.00  0.00    +0.000 C 
ATOM     23  N   UNL     1       1.443  15.597  20.315  0.00  0.00    +0.000 N 
ATOM     24  C   UNL     1       0.684  15.255  21.423  0.00  0.00    +0.000 A 
ATOM     25  N   UNL     1       1.364  14.473  22.197  0.00  0.00    +0.000 NA
ATOM     26  N   UNL     1       2.613  14.282  21.643  0.00  0.00    +0.000 NA
ATOM     27  C   UNL     1       2.669  15.005  20.548  0.00  0.00    +0.000 A 
BRANCH  27  28
ATOM     28  C   UNL     1       3.893  15.110  19.692  0.00  0.00    +0.000 A 
ATOM     29  C   UNL     1       4.972  15.905  19.991  0.00  0.00    +0.000 A 
ATOM     30  S   UNL     1       6.090  15.762  18.698  0.00  0.00    +0.000 S 
ATOM     31  N   UNL     1       5.131  14.670  17.871  0.00  0.00    +0.000 NA
ATOM     32  N   UNL     1       4.018  14.381  18.513  0.00  0.00    +0.000 NA
ENDBRANCH  27  28
ENDBRANCH  21  24
ENDBRANCH  20  21
ENDBRANCH  19  20
ENDBRANCH  18  19
ENDBRANCH   1  18
TORSDOF 8
ENDMDL
