MODEL 1
REMARK VINA RESULT:      -6.5      0.000      0.000
REMARK  Name = 
REMARK  5 active torsions:
REMARK  status: ('A' for Active; 'I' for Inactive)
REMARK    1  A    between atoms: C_1  and  C_2
REMARK    2  A    between atoms: C_2  and  O_4
REMARK    3  A    between atoms: O_4  and  C_5
REMARK    4  A    between atoms: C_11  and  N_12
REMARK    5  A    between atoms: C_13  and  C_14
REMARK                            x       y       z     vdW  Elec       q    Type
REMARK                         _______ _______ _______ _____ _____    ______ ____
ROOT
ATOM      1  C   UNL     1       2.716   5.353  19.479  0.00  0.00    +0.000 A 
ATOM      2  C   UNL     1       1.614   5.595  20.328  0.00  0.00    +0.000 A 
ATOM      3  C   UNL     1       0.801   4.554  20.760  0.00  0.00    +0.000 A 
ATOM      4  C   UNL     1       1.061   3.241  20.372  0.00  0.00    +0.000 A 
ATOM      5  C   UNL     1       2.168   3.031  19.548  0.00  0.00    +0.000 A 
ATOM      6  O   UNL     1       2.540   1.814  19.077  0.00  0.00    +0.000 OA
ATOM      7  C   UNL     1       3.643   2.001  18.317  0.00  0.00    +0.000 A 
ATOM      8  C   UNL     1       4.021   3.335  18.318  0.00  0.00    +0.000 A 
ATOM      9  C   UNL     1       3.036   4.028  19.101  0.00  0.00    +0.000 A 
ENDROOT
BRANCH   8  10
ATOM     10  C   UNL     1       5.242   3.865  17.623  0.00  0.00    +0.000 A 
ATOM     11  C   UNL     1       6.336   4.414  18.259  0.00  0.00    +0.000 A 
ATOM     12  C   UNL     1       7.351   4.833  17.347  0.00  0.00    +0.000 A 
ATOM     13  C   UNL     1       6.999   4.587  16.040  0.00  0.00    +0.000 A 
ATOM     14  S   UNL     1       5.480   3.818  15.925  0.00  0.00    +0.000 S 
ENDBRANCH   8  10
BRANCH   7  15
ATOM     15  N   UNL     1       4.156   0.880  17.788  0.00  0.00    +0.000 N 
ATOM     16  H   UNL     1       3.783  -0.012  18.095  0.00  0.00    +0.000 HD
ATOM     17  H   UNL     1       5.125   0.860  17.488  0.00  0.00    +0.000 HD
ENDBRANCH   7  15
BRANCH   1  18
ATOM     18  O   UNL     1       3.541   6.449  19.131  0.00  0.00    +0.000 OA
BRANCH  18  20
ATOM     19  C   UNL     1       4.271   7.238  17.040  0.00  0.00    +0.000 C 
ATOM     20  C   UNL     1       3.156   7.230  18.045  0.00  0.00    +0.000 C 
ATOM     21  O   UNL     1       2.113   7.857  17.922  0.00  0.00    +0.000 OA
ENDBRANCH  18  20
ENDBRANCH   1  18
TORSDOF 4
ENDMDL
MODEL 2
REMARK VINA RESULT:      -6.5      2.046      2.513
REMARK  Name = 
REMARK  5 active torsions:
REMARK  status: ('A' for Active; 'I' for Inactive)
REMARK    1  A    between atoms: C_1  and  C_2
REMARK    2  A    between atoms: C_2  and  O_4
REMARK    3  A    between atoms: O_4  and  C_5
REMARK    4  A    between atoms: C_11  and  N_12
REMARK    5  A    between atoms: C_13  and  C_14
REMARK                            x       y       z     vdW  Elec       q    Type
REMARK                         _______ _______ _______ _____ _____    ______ ____
ROOT
ATOM      1  C   UNL     1       2.890   5.066  18.981  0.00  0.00    +0.000 A 
ATOM      2  C   UNL     1       1.671   4.460  19.360  0.00  0.00    +0.000 A 
ATOM      3  C   UNL     1       1.271   3.250  18.806  0.00  0.00    +0.000 A 
ATOM      4  C   UNL     1       2.070   2.599  17.869  0.00  0.00    +0.000 A 
ATOM      5  C   UNL     1       3.278   3.212  17.529  0.00  0.00    +0.000 A 
ATOM      6  O   UNL     1       4.153   2.709  16.623  0.00  0.00    +0.000 OA
ATOM      7  C   UNL     1       5.194   3.569  16.554  0.00  0.00    +0.000 A 
ATOM      8  C   UNL     1       5.023   4.621  17.441  0.00  0.00    +0.000 A 
ATOM      9  C   UNL     1       3.746   4.412  18.066  0.00  0.00    +0.000 A 
ENDROOT
BRANCH   8  10
ATOM     10  C   UNL     1       6.029   5.715  17.655  0.00  0.00    +0.000 A 
ATOM     11  C   UNL     1       6.011   6.938  17.019  0.00  0.00    +0.000 A 
ATOM     12  C   UNL     1       7.091   7.783  17.418  0.00  0.00    +0.000 A 
ATOM     13  C   UNL     1       7.898   7.176  18.351  0.00  0.00    +0.000 A 
ATOM     14  S   UNL     1       7.329   5.622  18.769  0.00  0.00    +0.000 S 
ENDBRANCH   8  10
BRANCH   7  15
ATOM     15  N   UNL     1       6.170   3.202  15.710  0.00  0.00    +0.000 N 
ATOM     16  H   UNL     1       6.339   2.212  15.571  0.00  0.00    +0.000 HD
ATOM     17  H   UNL     1       6.981   3.799  15.584  0.00  0.00    +0.000 HD
ENDBRANCH   7  15
BRANCH   1  18
ATOM     18  O   UNL     1       3.267   6.264  19.633  0.00  0.00    +0.000 OA
BRANCH  18  20
ATOM     19  C   UNL     1       2.520   7.884  18.100  0.00  0.00    +0.000 C 
ATOM     20  C   UNL     1       2.424   7.365  19.505  0.00  0.00    +0.000 C 
ATOM     21  O   UNL     1       1.743   7.876  20.383  0.00  0.00    +0.000 OA
ENDBRANCH  18  20
ENDBRANCH   1  18
TORSDOF 4
ENDMDL
MODEL 3
REMARK VINA RESULT:      -6.5      0.992      1.247
REMARK  Name = 
REMARK  5 active torsions:
REMARK  status: ('A' for Active; 'I' for Inactive)
REMARK    1  A    between atoms: C_1  and  C_2
REMARK    2  A    between atoms: C_2  and  O_4
REMARK    3  A    between atoms: O_4  and  C_5
REMARK    4  A    between atoms: C_11  and  N_12
REMARK    5  A    between atoms: C_13  and  C_14
REMARK                            x       y       z     vdW  Elec       q    Type
REMARK                         _______ _______ _______ _____ _____    ______ ____
ROOT
ATOM      1  C   UNL     1       2.895   5.526  19.434  0.00  0.00    +0.000 A 
ATOM      2  C   UNL     1       1.850   5.829  20.334  0.00  0.00    +0.000 A 
ATOM      3  C   UNL     1       1.025   4.830  20.836  0.00  0.00    +0.000 A 
ATOM      4  C   UNL     1       1.216   3.500  20.468  0.00  0.00    +0.000 A 
ATOM      5  C   UNL     1       2.268   3.228  19.592  0.00  0.00    +0.000 A 
ATOM      6  O   UNL     1       2.570   1.988  19.133  0.00  0.00    +0.000 OA
ATOM      7  C   UNL     1       3.636   2.115  18.311  0.00  0.00    +0.000 A 
ATOM      8  C   UNL     1       4.061   3.433  18.257  0.00  0.00    +0.000 A 
ATOM      9  C   UNL     1       3.146   4.181  19.074  0.00  0.00    +0.000 A 
ENDROOT
BRANCH   8  10
ATOM     10  C   UNL     1       5.261   3.901  17.484  0.00  0.00    +0.000 A 
ATOM     11  C   UNL     1       5.408   3.797  16.117  0.00  0.00    +0.000 A 
ATOM     12  C   UNL     1       6.650   4.326  15.654  0.00  0.00    +0.000 A 
ATOM     13  C   UNL     1       7.412   4.821  16.686  0.00  0.00    +0.000 A 
ATOM     14  S   UNL     1       6.613   4.686  18.188  0.00  0.00    +0.000 S 
ENDBRANCH   8  10
BRANCH   7  15
ATOM     15  N   UNL     1       4.079   0.963  17.785  0.00  0.00    +0.000 N 
ATOM     16  H   UNL     1       5.060   0.892  17.539  0.00  0.00    +0.000 HD
ATOM     17  H   UNL     1       3.454   0.386  17.232  0.00  0.00    +0.000 HD
ENDBRANCH   7  15
BRANCH   1  18
ATOM     18  O   UNL     1       3.738   6.581  19.014  0.00  0.00    +0.000 OA
BRANCH  18  20
ATOM     19  C   UNL     1       2.288   8.055  17.893  0.00  0.00    +0.000 C 
ATOM     20  C   UNL     1       3.486   7.159  17.772  0.00  0.00    +0.000 C 
ATOM     21  O   UNL     1       4.090   6.954  16.729  0.00  0.00    +0.000 OA
ENDBRANCH  18  20
ENDBRANCH   1  18
TORSDOF 4
ENDMDL
MODEL 4
REMARK VINA RESULT:      -6.3      1.680      1.884
REMARK  Name = 
REMARK  5 active torsions:
REMARK  status: ('A' for Active; 'I' for Inactive)
REMARK    1  A    between atoms: C_1  and  C_2
REMARK    2  A    between atoms: C_2  and  O_4
REMARK    3  A    between atoms: O_4  and  C_5
REMARK    4  A    between atoms: C_11  and  N_12
REMARK    5  A    between atoms: C_13  and  C_14
REMARK                            x       y       z     vdW  Elec       q    Type
REMARK                         _______ _______ _______ _____ _____    ______ ____
ROOT
ATOM      1  C   UNL     1       2.463   5.099  19.655  0.00  0.00    +0.000 A 
ATOM      2  C   UNL     1       1.292   4.610  20.276  0.00  0.00    +0.000 A 
ATOM      3  C   UNL     1       0.777   3.361  19.950  0.00  0.00    +0.000 A 
ATOM      4  C   UNL     1       1.412   2.554  19.008  0.00  0.00    +0.000 A 
ATOM      5  C   UNL     1       2.578   3.056  18.426  0.00  0.00    +0.000 A 
ATOM      6  O   UNL     1       3.299   2.395  17.485  0.00  0.00    +0.000 OA
ATOM      7  C   UNL     1       4.346   3.185  17.158  0.00  0.00    +0.000 A 
ATOM      8  C   UNL     1       4.339   4.349  17.911  0.00  0.00    +0.000 A 
ATOM      9  C   UNL     1       3.158   4.288  18.727  0.00  0.00    +0.000 A 
ENDROOT
BRANCH   8  10
ATOM     10  C   UNL     1       5.401   5.408  17.835  0.00  0.00    +0.000 A 
ATOM     11  C   UNL     1       6.521   5.461  18.639  0.00  0.00    +0.000 A 
ATOM     12  C   UNL     1       7.359   6.578  18.343  0.00  0.00    +0.000 A 
ATOM     13  C   UNL     1       6.852   7.342  17.319  0.00  0.00    +0.000 A 
ATOM     14  S   UNL     1       5.404   6.689  16.695  0.00  0.00    +0.000 S 
ENDBRANCH   8  10
BRANCH   7  15
ATOM     15  N   UNL     1       5.179   2.662  16.246  0.00  0.00    +0.000 N 
ATOM     16  H   UNL     1       6.155   2.549  16.494  0.00  0.00    +0.000 HD
ATOM     17  H   UNL     1       5.001   2.806  15.257  0.00  0.00    +0.000 HD
ENDBRANCH   7  15
BRANCH   1  18
ATOM     18  O   UNL     1       2.969   6.350  20.081  0.00  0.00    +0.000 OA
BRANCH  18  20
ATOM     19  C   UNL     1       2.291   7.842  18.395  0.00  0.00    +0.000 C 
ATOM     20  C   UNL     1       2.188   7.478  19.847  0.00  0.00    +0.000 C 
ATOM     21  O   UNL     1       1.552   8.118  20.674  0.00  0.00    +0.000 OA
ENDBRANCH  18  20
ENDBRANCH   1  18
TORSDOF 4
ENDMDL
MODEL 5
REMARK VINA RESULT:      -6.3      2.639      5.682
REMARK  Name = 
REMARK  5 active torsions:
REMARK  status: ('A' for Active; 'I' for Inactive)
REMARK    1  A    between atoms: C_1  and  C_2
REMARK    2  A    between atoms: C_2  and  O_4
REMARK    3  A    between atoms: O_4  and  C_5
REMARK    4  A    between atoms: C_11  and  N_12
REMARK    5  A    between atoms: C_13  and  C_14
REMARK                            x       y       z     vdW  Elec       q    Type
REMARK                         _______ _______ _______ _____ _____    ______ ____
ROOT
ATOM      1  C   UNL     1       4.385   4.234  16.820  0.00  0.00    +0.000 A 
ATOM      2  C   UNL     1       5.367   4.439  15.826  0.00  0.00    +0.000 A 
ATOM      3  C   UNL     1       5.749   5.721  15.449  0.00  0.00    +0.000 A 
ATOM      4  C   UNL     1       5.176   6.839  16.053  0.00  0.00    +0.000 A 
ATOM      5  C   UNL     1       4.222   6.605  17.045  0.00  0.00    +0.000 A 
ATOM      6  O   UNL     1       3.568   7.589  17.712  0.00  0.00    +0.000 OA
ATOM      7  C   UNL     1       2.727   6.988  18.584  0.00  0.00    +0.000 A 
ATOM      8  C   UNL     1       2.854   5.609  18.520  0.00  0.00    +0.000 A 
ATOM      9  C   UNL     1       3.815   5.345  17.485  0.00  0.00    +0.000 A 
ENDROOT
BRANCH   8  10
ATOM     10  C   UNL     1       2.108   4.652  19.404  0.00  0.00    +0.000 A 
ATOM     11  C   UNL     1       1.129   3.780  18.974  0.00  0.00    +0.000 A 
ATOM     12  C   UNL     1       0.593   2.987  20.033  0.00  0.00    +0.000 A 
ATOM     13  C   UNL     1       1.183   3.278  21.240  0.00  0.00    +0.000 A 
ATOM     14  S   UNL     1       2.401   4.464  21.083  0.00  0.00    +0.000 S 
ENDBRANCH   8  10
BRANCH   7  15
ATOM     15  N   UNL     1       2.014   7.831  19.346  0.00  0.00    +0.000 N 
ATOM     16  H   UNL     1       1.700   7.510  20.255  0.00  0.00    +0.000 HD
ATOM     17  H   UNL     1       1.422   8.530  18.910  0.00  0.00    +0.000 HD
ENDBRANCH   7  15
BRANCH   1  18
ATOM     18  O   UNL     1       4.092   2.904  17.202  0.00  0.00    +0.000 OA
BRANCH  18  20
ATOM     19  C   UNL     1       3.724   1.242  18.824  0.00  0.00    +0.000 C 
ATOM     20  C   UNL     1       4.470   2.498  18.479  0.00  0.00    +0.000 C 
ATOM     21  O   UNL     1       5.240   3.072  19.236  0.00  0.00    +0.000 OA
ENDBRANCH  18  20
ENDBRANCH   1  18
TORSDOF 4
ENDMDL
MODEL 6
REMARK VINA RESULT:      -6.2      2.231      4.520
REMARK  Name = 
REMARK  5 active torsions:
REMARK  status: ('A' for Active; 'I' for Inactive)
REMARK    1  A    between atoms: C_1  and  C_2
REMARK    2  A    between atoms: C_2  and  O_4
REMARK    3  A    between atoms: O_4  and  C_5
REMARK    4  A    between atoms: C_11  and  N_12
REMARK    5  A    between atoms: C_13  and  C_14
REMARK                            x       y       z     vdW  Elec       q    Type
REMARK                         _______ _______ _______ _____ _____    ______ ____
ROOT
ATOM      1  C   UNL     1       4.106   6.513  17.743  0.00  0.00    +0.000 A 
ATOM      2  C   UNL     1       5.036   7.404  17.162  0.00  0.00    +0.000 A 
ATOM      3  C   UNL     1       6.396   7.115  17.156  0.00  0.00    +0.000 A 
ATOM      4  C   UNL     1       6.873   5.932  17.715  0.00  0.00    +0.000 A 
ATOM      5  C   UNL     1       5.928   5.063  18.264  0.00  0.00    +0.000 A 
ATOM      6  O   UNL     1       6.240   3.882  18.856  0.00  0.00    +0.000 OA
ATOM      7  C   UNL     1       5.079   3.324  19.268  0.00  0.00    +0.000 A 
ATOM      8  C   UNL     1       3.999   4.117  18.914  0.00  0.00    +0.000 A 
ATOM      9  C   UNL     1       4.550   5.282  18.280  0.00  0.00    +0.000 A 
ENDROOT
BRANCH   8  10
ATOM     10  C   UNL     1       2.565   3.751  19.169  0.00  0.00    +0.000 A 
ATOM     11  C   UNL     1       1.778   3.005  18.316  0.00  0.00    +0.000 A 
ATOM     12  C   UNL     1       0.455   2.810  18.816  0.00  0.00    +0.000 A 
ATOM     13  C   UNL     1       0.275   3.412  20.039  0.00  0.00    +0.000 A 
ATOM     14  S   UNL     1       1.704   4.165  20.593  0.00  0.00    +0.000 S 
ENDBRANCH   8  10
BRANCH   7  15
ATOM     15  N   UNL     1       5.212   2.128  19.860  0.00  0.00    +0.000 N 
ATOM     16  H   UNL     1       5.514   1.342  19.296  0.00  0.00    +0.000 HD
ATOM     17  H   UNL     1       4.624   1.887  20.652  0.00  0.00    +0.000 HD
ENDBRANCH   7  15
BRANCH   1  18
ATOM     18  O   UNL     1       2.731   6.838  17.656  0.00  0.00    +0.000 OA
BRANCH  18  20
ATOM     19  C   UNL     1       1.727   8.958  17.820  0.00  0.00    +0.000 C 
ATOM     20  C   UNL     1       2.223   7.757  18.570  0.00  0.00    +0.000 C 
ATOM     21  O   UNL     1       2.211   7.653  19.789  0.00  0.00    +0.000 OA
ENDBRANCH  18  20
ENDBRANCH   1  18
TORSDOF 4
ENDMDL
MODEL 7
REMARK VINA RESULT:      -6.0      2.667      5.487
REMARK  Name = 
REMARK  5 active torsions:
REMARK  status: ('A' for Active; 'I' for Inactive)
REMARK    1  A    between atoms: C_1  and  C_2
REMARK    2  A    between atoms: C_2  and  O_4
REMARK    3  A    between atoms: O_4  and  C_5
REMARK    4  A    between atoms: C_11  and  N_12
REMARK    5  A    between atoms: C_13  and  C_14
REMARK                            x       y       z     vdW  Elec       q    Type
REMARK                         _______ _______ _______ _____ _____    ______ ____
ROOT
ATOM      1  C   UNL     1       4.504   4.402  17.174  0.00  0.00    +0.000 A 
ATOM      2  C   UNL     1       5.333   4.722  16.076  0.00  0.00    +0.000 A 
ATOM      3  C   UNL     1       5.475   6.035  15.643  0.00  0.00    +0.000 A 
ATOM      4  C   UNL     1       4.807   7.072  16.292  0.00  0.00    +0.000 A 
ATOM      5  C   UNL     1       4.010   6.728  17.385  0.00  0.00    +0.000 A 
ATOM      6  O   UNL     1       3.289   7.623  18.107  0.00  0.00    +0.000 OA
ATOM      7  C   UNL     1       2.646   6.930  19.073  0.00  0.00    +0.000 A 
ATOM      8  C   UNL     1       2.972   5.583  19.013  0.00  0.00    +0.000 A 
ATOM      9  C   UNL     1       3.846   5.435  17.883  0.00  0.00    +0.000 A 
ENDROOT
BRANCH   8  10
ATOM     10  C   UNL     1       2.476   4.552  19.985  0.00  0.00    +0.000 A 
ATOM     11  C   UNL     1       3.245   3.954  20.962  0.00  0.00    +0.000 A 
ATOM     12  C   UNL     1       2.510   3.012  21.743  0.00  0.00    +0.000 A 
ATOM     13  C   UNL     1       1.199   2.923  21.337  0.00  0.00    +0.000 A 
ATOM     14  S   UNL     1       0.855   3.999  20.058  0.00  0.00    +0.000 S 
ENDBRANCH   8  10
BRANCH   7  15
ATOM     15  N   UNL     1       1.898   7.678  19.898  0.00  0.00    +0.000 N 
ATOM     16  H   UNL     1       2.040   8.682  19.897  0.00  0.00    +0.000 HD
ATOM     17  H   UNL     1       1.571   7.291  20.777  0.00  0.00    +0.000 HD
ENDBRANCH   7  15
BRANCH   1  18
ATOM     18  O   UNL     1       4.457   3.055  17.602  0.00  0.00    +0.000 OA
BRANCH  18  20
ATOM     19  C   UNL     1       3.278   1.232  18.505  0.00  0.00    +0.000 C 
ATOM     20  C   UNL     1       3.224   2.409  17.576  0.00  0.00    +0.000 C 
ATOM     21  O   UNL     1       2.255   2.699  16.887  0.00  0.00    +0.000 OA
ENDBRANCH  18  20
ENDBRANCH   1  18
TORSDOF 4
ENDMDL
MODEL 8
REMARK VINA RESULT:      -6.0      1.049      1.246
REMARK  Name = 
REMARK  5 active torsions:
REMARK  status: ('A' for Active; 'I' for Inactive)
REMARK    1  A    between atoms: C_1  and  C_2
REMARK    2  A    between atoms: C_2  and  O_4
REMARK    3  A    between atoms: O_4  and  C_5
REMARK    4  A    between atoms: C_11  and  N_12
REMARK    5  A    between atoms: C_13  and  C_14
REMARK                            x       y       z     vdW  Elec       q    Type
REMARK                         _______ _______ _______ _____ _____    ______ ____
ROOT
ATOM      1  C   UNL     1       2.583   5.160  19.534  0.00  0.00    +0.000 A 
ATOM      2  C   UNL     1       1.562   5.243  20.507  0.00  0.00    +0.000 A 
ATOM      3  C   UNL     1       0.917   4.101  20.968  0.00  0.00    +0.000 A 
ATOM      4  C   UNL     1       1.271   2.842  20.487  0.00  0.00    +0.000 A 
ATOM      5  C   UNL     1       2.297   2.790  19.541  0.00  0.00    +0.000 A 
ATOM      6  O   UNL     1       2.742   1.642  18.972  0.00  0.00    +0.000 OA
ATOM      7  C   UNL     1       3.728   1.981  18.110  0.00  0.00    +0.000 A 
ATOM      8  C   UNL     1       3.960   3.347  18.140  0.00  0.00    +0.000 A 
ATOM      9  C   UNL     1       2.998   3.894  19.057  0.00  0.00    +0.000 A 
ENDROOT
BRANCH   8  10
ATOM     10  C   UNL     1       5.032   4.038  17.348  0.00  0.00    +0.000 A 
ATOM     11  C   UNL     1       5.018   4.206  15.980  0.00  0.00    +0.000 A 
ATOM     12  C   UNL     1       6.167   4.902  15.497  0.00  0.00    +0.000 A 
ATOM     13  C   UNL     1       7.024   5.246  16.517  0.00  0.00    +0.000 A 
ATOM     14  S   UNL     1       6.419   4.771  18.041  0.00  0.00    +0.000 S 
ENDBRANCH   8  10
BRANCH   7  15
ATOM     15  N   UNL     1       4.297   0.946  17.474  0.00  0.00    +0.000 N 
ATOM     16  H   UNL     1       3.697   0.302  16.971  0.00  0.00    +0.000 HD
ATOM     17  H   UNL     1       5.157   0.543  17.831  0.00  0.00    +0.000 HD
ENDBRANCH   7  15
BRANCH   1  18
ATOM     18  O   UNL     1       3.242   6.354  19.158  0.00  0.00    +0.000 OA
BRANCH  18  20
ATOM     19  C   UNL     1       2.553   7.981  17.606  0.00  0.00    +0.000 C 
ATOM     20  C   UNL     1       2.471   7.506  19.028  0.00  0.00    +0.000 C 
ATOM     21  O   UNL     1       1.858   8.086  19.913  0.00  0.00    +0.000 OA
ENDBRANCH  18  20
ENDBRANCH   1  18
TORSDOF 4
ENDMDL
MODEL 9
REMARK VINA RESULT:      -6.0      2.197      3.974
REMARK  Name = 
REMARK  5 active torsions:
REMARK  status: ('A' for Active; 'I' for Inactive)
REMARK    1  A    between atoms: C_1  and  C_2
REMARK    2  A    between atoms: C_2  and  O_4
REMARK    3  A    between atoms: O_4  and  C_5
REMARK    4  A    between atoms: C_11  and  N_12
REMARK    5  A    between atoms: C_13  and  C_14
REMARK                            x       y       z     vdW  Elec       q    Type
REMARK                         _______ _______ _______ _____ _____    ______ ____
ROOT
ATOM      1  C   UNL     1       3.458   3.732  19.648  0.00  0.00    +0.000 A 
ATOM      2  C   UNL     1       2.623   3.338  20.718  0.00  0.00    +0.000 A 
ATOM      3  C   UNL     1       1.694   4.218  21.262  0.00  0.00    +0.000 A 
ATOM      4  C   UNL     1       1.557   5.509  20.756  0.00  0.00    +0.000 A 
ATOM      5  C   UNL     1       2.383   5.862  19.687  0.00  0.00    +0.000 A 
ATOM      6  O   UNL     1       2.376   7.085  19.099  0.00  0.00    +0.000 OA
ATOM      7  C   UNL     1       3.302   7.058  18.113  0.00  0.00    +0.000 A 
ATOM      8  C   UNL     1       3.892   5.807  18.026  0.00  0.00    +0.000 A 
ATOM      9  C   UNL     1       3.315   5.020  19.082  0.00  0.00    +0.000 A 
ENDROOT
BRANCH   8  10
ATOM     10  C   UNL     1       4.914   5.427  16.995  0.00  0.00    +0.000 A 
ATOM     11  C   UNL     1       4.702   4.536  15.964  0.00  0.00    +0.000 A 
ATOM     12  C   UNL     1       5.851   4.369  15.133  0.00  0.00    +0.000 A 
ATOM     13  C   UNL     1       6.906   5.142  15.557  0.00  0.00    +0.000 A 
ATOM     14  S   UNL     1       6.494   6.090  16.915  0.00  0.00    +0.000 S 
ENDBRANCH   8  10
BRANCH   7  15
ATOM     15  N   UNL     1       3.406   8.196  17.411  0.00  0.00    +0.000 N 
ATOM     16  H   UNL     1       4.099   8.878  17.699  0.00  0.00    +0.000 HD
ATOM     17  H   UNL     1       2.589   8.583  16.949  0.00  0.00    +0.000 HD
ENDBRANCH   7  15
BRANCH   1  18
ATOM     18  O   UNL     1       4.335   2.767  19.099  0.00  0.00    +0.000 OA
BRANCH  18  20
ATOM     19  C   UNL     1       2.654   2.073  17.608  0.00  0.00    +0.000 C 
ATOM     20  C   UNL     1       3.770   1.638  18.512  0.00  0.00    +0.000 C 
ATOM     21  O   UNL     1       4.077   0.471  18.715  0.00  0.00    +0.000 OA
ENDBRANCH  18  20
ENDBRANCH   1  18
TORSDOF 4
ENDMDL
