MODEL 1
REMARK VINA RESULT:      -7.6      0.000      0.000
REMARK  Name = 
REMARK  5 active torsions:
REMARK  status: ('A' for Active; 'I' for Inactive)
REMARK    1  A    between atoms: C_1  and  N_2
REMARK    2  A    between atoms: N_2  and  C_3
REMARK    3  A    between atoms: N_2  and  C_4
REMARK    4  A    between atoms: C_4  and  C_5
REMARK    5  A    between atoms: C_12  and  C_13
REMARK                            x       y       z     vdW  Elec       q    Type
REMARK                         _______ _______ _______ _____ _____    ______ ____
ROOT
ATOM      1  C   UNL     1       4.147   4.324  19.439  0.00  0.00    +0.000 C 
ATOM      2  C   UNL     1       4.128   3.058  18.524  0.00  0.00    +0.000 C 
ATOM      3  C   UNL     1       3.384   1.928  19.256  0.00  0.00    +0.000 C 
ATOM      4  C   UNL     1       1.974   2.382  19.640  0.00  0.00    +0.000 C 
ATOM      5  C   UNL     1       1.683   3.775  19.044  0.00  0.00    +0.000 C 
ATOM      6  C   UNL     1       1.910   3.682  17.521  0.00  0.00    +0.000 C 
ATOM      7  C   UNL     1       3.373   3.356  17.219  0.00  0.00    +0.000 C 
ATOM      8  C   UNL     1       2.659   4.816  19.694  0.00  0.00    +0.000 C 
ENDROOT
BRANCH   8   9
ATOM      9  C   UNL     1       2.294   6.292  19.472  0.00  0.00    +0.000 A 
ATOM     10  C   UNL     1       2.548   6.905  18.234  0.00  0.00    +0.000 A 
ATOM     11  C   UNL     1       2.198   8.239  17.984  0.00  0.00    +0.000 A 
ATOM     12  C   UNL     1       1.676   9.029  19.005  0.00  0.00    +0.000 A 
ATOM     13 CL   UNL     1       1.284  10.670  18.640  0.00  0.00    +0.000 Cl
ATOM     14  C   UNL     1       1.516   8.482  20.274  0.00  0.00    +0.000 A 
ATOM     15 CL   UNL     1       0.975   9.416  21.625  0.00  0.00    +0.000 Cl
ATOM     16  C   UNL     1       1.819   7.129  20.497  0.00  0.00    +0.000 A 
ENDBRANCH   8   9
BRANCH   1  17
ATOM     17  C   UNL     1       5.179   5.372  18.944  0.00  0.00    +0.000 C 
BRANCH  17  19
ATOM     18  C   UNL     1       6.931   4.973  17.347  0.00  0.00    +0.000 C 
ATOM     19  N   UNL     1       6.566   4.880  18.768  0.00  0.00    +0.000 NA
ATOM     20  C   UNL     1       7.533   5.655  19.554  0.00  0.00    +0.000 C 
ENDBRANCH  17  19
ENDBRANCH   1  17
TORSDOF 3
ENDMDL
MODEL 2
REMARK VINA RESULT:      -7.6      3.069      4.613
REMARK  Name = 
REMARK  5 active torsions:
REMARK  status: ('A' for Active; 'I' for Inactive)
REMARK    1  A    between atoms: C_1  and  N_2
REMARK    2  A    between atoms: N_2  and  C_3
REMARK    3  A    between atoms: N_2  and  C_4
REMARK    4  A    between atoms: C_4  and  C_5
REMARK    5  A    between atoms: C_12  and  C_13
REMARK                            x       y       z     vdW  Elec       q    Type
REMARK                         _______ _______ _______ _____ _____    ______ ____
ROOT
ATOM      1  C   UNL     1       1.818   4.983  19.528  0.00  0.00    +0.000 C 
ATOM      2  C   UNL     1       1.430   3.781  20.448  0.00  0.00    +0.000 C 
ATOM      3  C   UNL     1       0.724   2.712  19.596  0.00  0.00    +0.000 C 
ATOM      4  C   UNL     1       1.621   2.282  18.434  0.00  0.00    +0.000 C 
ATOM      5  C   UNL     1       3.010   2.939  18.560  0.00  0.00    +0.000 C 
ATOM      6  C   UNL     1       3.573   2.567  19.948  0.00  0.00    +0.000 C 
ATOM      7  C   UNL     1       2.692   3.147  21.055  0.00  0.00    +0.000 C 
ATOM      8  C   UNL     1       2.847   4.494  18.422  0.00  0.00    +0.000 C 
ENDROOT
BRANCH   8   9
ATOM      9  C   UNL     1       4.149   5.276  18.190  0.00  0.00    +0.000 A 
ATOM     10  C   UNL     1       4.292   6.090  17.055  0.00  0.00    +0.000 A 
ATOM     11  C   UNL     1       5.451   6.844  16.828  0.00  0.00    +0.000 A 
ATOM     12  C   UNL     1       6.544   6.724  17.682  0.00  0.00    +0.000 A 
ATOM     13 CL   UNL     1       7.950   7.664  17.337  0.00  0.00    +0.000 Cl
ATOM     14  C   UNL     1       6.473   5.841  18.755  0.00  0.00    +0.000 A 
ATOM     15 CL   UNL     1       7.817   5.550  19.805  0.00  0.00    +0.000 Cl
ATOM     16  C   UNL     1       5.287   5.132  19.003  0.00  0.00    +0.000 A 
ENDBRANCH   8   9
BRANCH   1  17
ATOM     17  C   UNL     1       2.193   6.240  20.356  0.00  0.00    +0.000 C 
BRANCH  17  19
ATOM     18  C   UNL     1       1.345   8.303  21.252  0.00  0.00    +0.000 C 
ATOM     19  N   UNL     1       1.428   7.471  20.044  0.00  0.00    +0.000 NA
ATOM     20  C   UNL     1       2.055   8.256  18.974  0.00  0.00    +0.000 C 
ENDBRANCH  17  19
ENDBRANCH   1  17
TORSDOF 3
ENDMDL
MODEL 3
REMARK VINA RESULT:      -7.4      1.559      3.846
REMARK  Name = 
REMARK  5 active torsions:
REMARK  status: ('A' for Active; 'I' for Inactive)
REMARK    1  A    between atoms: C_1  and  N_2
REMARK    2  A    between atoms: N_2  and  C_3
REMARK    3  A    between atoms: N_2  and  C_4
REMARK    4  A    between atoms: C_4  and  C_5
REMARK    5  A    between atoms: C_12  and  C_13
REMARK                            x       y       z     vdW  Elec       q    Type
REMARK                         _______ _______ _______ _____ _____    ______ ____
ROOT
ATOM      1  C   UNL     1       4.972   4.261  17.642  0.00  0.00    +0.000 C 
ATOM      2  C   UNL     1       6.478   4.292  17.227  0.00  0.00    +0.000 C 
ATOM      3  C   UNL     1       6.570   4.273  15.691  0.00  0.00    +0.000 C 
ATOM      4  C   UNL     1       5.785   5.445  15.098  0.00  0.00    +0.000 C 
ATOM      5  C   UNL     1       5.271   6.366  16.223  0.00  0.00    +0.000 C 
ATOM      6  C   UNL     1       6.492   6.800  17.060  0.00  0.00    +0.000 C 
ATOM      7  C   UNL     1       7.141   5.586  17.726  0.00  0.00    +0.000 C 
ATOM      8  C   UNL     1       4.246   5.567  17.102  0.00  0.00    +0.000 C 
ENDROOT
BRANCH   8   9
ATOM      9  C   UNL     1       3.390   6.414  18.055  0.00  0.00    +0.000 A 
ATOM     10  C   UNL     1       2.874   5.851  19.233  0.00  0.00    +0.000 A 
ATOM     11  C   UNL     1       2.118   6.602  20.143  0.00  0.00    +0.000 A 
ATOM     12  C   UNL     1       1.769   7.917  19.846  0.00  0.00    +0.000 A 
ATOM     13 CL   UNL     1       0.819   8.784  20.998  0.00  0.00    +0.000 Cl
ATOM     14  C   UNL     1       2.173   8.470  18.635  0.00  0.00    +0.000 A 
ATOM     15 CL   UNL     1       1.698  10.057  18.137  0.00  0.00    +0.000 Cl
ATOM     16  C   UNL     1       2.976   7.725  17.757  0.00  0.00    +0.000 A 
ENDBRANCH   8   9
BRANCH   1  17
ATOM     17  C   UNL     1       4.799   3.909  19.143  0.00  0.00    +0.000 C 
BRANCH  17  19
ATOM     18  C   UNL     1       3.475   2.582  20.649  0.00  0.00    +0.000 C 
ATOM     19  N   UNL     1       4.299   2.543  19.432  0.00  0.00    +0.000 NA
ATOM     20  C   UNL     1       3.490   2.005  18.332  0.00  0.00    +0.000 C 
ENDBRANCH  17  19
ENDBRANCH   1  17
TORSDOF 3
ENDMDL
MODEL 4
REMARK VINA RESULT:      -7.4      0.744      1.568
REMARK  Name = 
REMARK  5 active torsions:
REMARK  status: ('A' for Active; 'I' for Inactive)
REMARK    1  A    between atoms: C_1  and  N_2
REMARK    2  A    between atoms: N_2  and  C_3
REMARK    3  A    between atoms: N_2  and  C_4
REMARK    4  A    between atoms: C_4  and  C_5
REMARK    5  A    between atoms: C_12  and  C_13
REMARK                            x       y       z     vdW  Elec       q    Type
REMARK                         _______ _______ _______ _____ _____    ______ ____
ROOT
ATOM      1  C   UNL     1       4.097   4.135  19.415  0.00  0.00    +0.000 C 
ATOM      2  C   UNL     1       4.053   3.065  18.278  0.00  0.00    +0.000 C 
ATOM      3  C   UNL     1       3.364   1.799  18.814  0.00  0.00    +0.000 C 
ATOM      4  C   UNL     1       1.968   2.137  19.340  0.00  0.00    +0.000 C 
ATOM      5  C   UNL     1       1.625   3.609  19.035  0.00  0.00    +0.000 C 
ATOM      6  C   UNL     1       1.779   3.813  17.513  0.00  0.00    +0.000 C 
ATOM      7  C   UNL     1       3.230   3.586  17.089  0.00  0.00    +0.000 C 
ATOM      8  C   UNL     1       2.615   4.533  19.826  0.00  0.00    +0.000 C 
ENDROOT
BRANCH   8   9
ATOM      9  C   UNL     1       2.216   6.015  19.906  0.00  0.00    +0.000 A 
ATOM     10  C   UNL     1       1.535   6.505  21.032  0.00  0.00    +0.000 A 
ATOM     11  C   UNL     1       1.185   7.856  21.154  0.00  0.00    +0.000 A 
ATOM     12  C   UNL     1       1.417   8.738  20.101  0.00  0.00    +0.000 A 
ATOM     13 CL   UNL     1       0.945  10.386  20.306  0.00  0.00    +0.000 Cl
ATOM     14  C   UNL     1       1.990   8.259  18.928  0.00  0.00    +0.000 A 
ATOM     15 CL   UNL     1       2.218   9.257  17.533  0.00  0.00    +0.000 Cl
ATOM     16  C   UNL     1       2.386   6.915  18.838  0.00  0.00    +0.000 A 
ENDBRANCH   8   9
BRANCH   1  17
ATOM     17  C   UNL     1       5.086   5.284  19.083  0.00  0.00    +0.000 C 
BRANCH  17  19
ATOM     18  C   UNL     1       6.759   5.063  17.371  0.00  0.00    +0.000 C 
ATOM     19  N   UNL     1       6.482   4.873  18.801  0.00  0.00    +0.000 NA
ATOM     20  C   UNL     1       7.456   5.650  19.578  0.00  0.00    +0.000 C 
ENDBRANCH  17  19
ENDBRANCH   1  17
TORSDOF 3
ENDMDL
MODEL 5
REMARK VINA RESULT:      -7.2      1.664      3.824
REMARK  Name = 
REMARK  5 active torsions:
REMARK  status: ('A' for Active; 'I' for Inactive)
REMARK    1  A    between atoms: C_1  and  N_2
REMARK    2  A    between atoms: N_2  and  C_3
REMARK    3  A    between atoms: N_2  and  C_4
REMARK    4  A    between atoms: C_4  and  C_5
REMARK    5  A    between atoms: C_12  and  C_13
REMARK                            x       y       z     vdW  Elec       q    Type
REMARK                         _______ _______ _______ _____ _____    ______ ____
ROOT
ATOM      1  C   UNL     1       2.694   4.681  17.828  0.00  0.00    +0.000 C 
ATOM      2  C   UNL     1       3.984   3.807  17.935  0.00  0.00    +0.000 C 
ATOM      3  C   UNL     1       4.817   3.993  16.655  0.00  0.00    +0.000 C 
ATOM      4  C   UNL     1       5.140   5.473  16.442  0.00  0.00    +0.000 C 
ATOM      5  C   UNL     1       4.661   6.303  17.651  0.00  0.00    +0.000 C 
ATOM      6  C   UNL     1       5.316   5.701  18.912  0.00  0.00    +0.000 C 
ATOM      7  C   UNL     1       4.839   4.265  19.128  0.00  0.00    +0.000 C 
ATOM      8  C   UNL     1       3.097   6.214  17.737  0.00  0.00    +0.000 C 
ENDROOT
BRANCH   8   9
ATOM      9  C   UNL     1       2.428   7.237  18.668  0.00  0.00    +0.000 A 
ATOM     10  C   UNL     1       2.146   6.902  20.002  0.00  0.00    +0.000 A 
ATOM     11  C   UNL     1       1.567   7.819  20.888  0.00  0.00    +0.000 A 
ATOM     12  C   UNL     1       1.158   9.071  20.433  0.00  0.00    +0.000 A 
ATOM     13 CL   UNL     1       0.432  10.149  21.570  0.00  0.00    +0.000 Cl
ATOM     14  C   UNL     1       1.323   9.392  19.090  0.00  0.00    +0.000 A 
ATOM     15 CL   UNL     1       0.750  10.879  18.416  0.00  0.00    +0.000 Cl
ATOM     16  C   UNL     1       1.954   8.485  18.224  0.00  0.00    +0.000 A 
ENDBRANCH   8   9
BRANCH   1  17
ATOM     17  C   UNL     1       1.638   4.275  18.890  0.00  0.00    +0.000 C 
BRANCH  17  19
ATOM     18  C   UNL     1       1.533   2.831  20.810  0.00  0.00    +0.000 C 
ATOM     19  N   UNL     1       1.692   2.866  19.349  0.00  0.00    +0.000 NA
ATOM     20  C   UNL     1       0.638   2.045  18.741  0.00  0.00    +0.000 C 
ENDBRANCH  17  19
ENDBRANCH   1  17
TORSDOF 3
ENDMDL
MODEL 6
REMARK VINA RESULT:      -7.2      1.802      3.376
REMARK  Name = 
REMARK  5 active torsions:
REMARK  status: ('A' for Active; 'I' for Inactive)
REMARK    1  A    between atoms: C_1  and  N_2
REMARK    2  A    between atoms: N_2  and  C_3
REMARK    3  A    between atoms: N_2  and  C_4
REMARK    4  A    between atoms: C_4  and  C_5
REMARK    5  A    between atoms: C_12  and  C_13
REMARK                            x       y       z     vdW  Elec       q    Type
REMARK                         _______ _______ _______ _____ _____    ______ ____
ROOT
ATOM      1  C   UNL     1       2.964   4.588  18.869  0.00  0.00    +0.000 C 
ATOM      2  C   UNL     1       4.410   4.000  18.851  0.00  0.00    +0.000 C 
ATOM      3  C   UNL     1       4.751   3.564  17.416  0.00  0.00    +0.000 C 
ATOM      4  C   UNL     1       4.597   4.743  16.453  0.00  0.00    +0.000 C 
ATOM      5  C   UNL     1       4.295   6.036  17.237  0.00  0.00    +0.000 C 
ATOM      6  C   UNL     1       5.425   6.224  18.270  0.00  0.00    +0.000 C 
ATOM      7  C   UNL     1       5.426   5.072  19.276  0.00  0.00    +0.000 C 
ATOM      8  C   UNL     1       2.906   5.882  17.949  0.00  0.00    +0.000 C 
ENDROOT
BRANCH   8   9
ATOM      9  C   UNL     1       2.295   7.182  18.495  0.00  0.00    +0.000 A 
ATOM     10  C   UNL     1       2.090   8.279  17.644  0.00  0.00    +0.000 A 
ATOM     11  C   UNL     1       1.505   9.468  18.099  0.00  0.00    +0.000 A 
ATOM     12  C   UNL     1       1.202   9.629  19.449  0.00  0.00    +0.000 A 
ATOM     13 CL   UNL     1       0.502  11.125  19.951  0.00  0.00    +0.000 Cl
ATOM     14  C   UNL     1       1.496   8.600  20.337  0.00  0.00    +0.000 A 
ATOM     15 CL   UNL     1       1.252   8.750  22.044  0.00  0.00    +0.000 Cl
ATOM     16  C   UNL     1       2.032   7.392  19.861  0.00  0.00    +0.000 A 
ENDBRANCH   8   9
BRANCH   1  17
ATOM     17  C   UNL     1       2.411   4.707  20.314  0.00  0.00    +0.000 C 
BRANCH  17  19
ATOM     18  C   UNL     1       0.865   3.083  19.448  0.00  0.00    +0.000 C 
ATOM     19  N   UNL     1       1.312   3.775  20.664  0.00  0.00    +0.000 NA
ATOM     20  C   UNL     1       1.730   2.772  21.651  0.00  0.00    +0.000 C 
ENDBRANCH  17  19
ENDBRANCH   1  17
TORSDOF 3
ENDMDL
MODEL 7
REMARK VINA RESULT:      -7.1      1.737      3.618
REMARK  Name = 
REMARK  5 active torsions:
REMARK  status: ('A' for Active; 'I' for Inactive)
REMARK    1  A    between atoms: C_1  and  N_2
REMARK    2  A    between atoms: N_2  and  C_3
REMARK    3  A    between atoms: N_2  and  C_4
REMARK    4  A    between atoms: C_4  and  C_5
REMARK    5  A    between atoms: C_12  and  C_13
REMARK                            x       y       z     vdW  Elec       q    Type
REMARK                         _______ _______ _______ _____ _____    ______ ____
ROOT
ATOM      1  C   UNL     1       2.808   4.728  17.801  0.00  0.00    +0.000 C 
ATOM      2  C   UNL     1       4.084   3.892  18.138  0.00  0.00    +0.000 C 
ATOM      3  C   UNL     1       5.018   3.899  16.916  0.00  0.00    +0.000 C 
ATOM      4  C   UNL     1       5.360   5.336  16.517  0.00  0.00    +0.000 C 
ATOM      5  C   UNL     1       4.786   6.327  17.549  0.00  0.00    +0.000 C 
ATOM      6  C   UNL     1       5.335   5.922  18.933  0.00  0.00    +0.000 C 
ATOM      7  C   UNL     1       4.839   4.527  19.316  0.00  0.00    +0.000 C 
ATOM      8  C   UNL     1       3.220   6.236  17.521  0.00  0.00    +0.000 C 
ENDROOT
BRANCH   8   9
ATOM      9  C   UNL     1       2.479   7.376  18.235  0.00  0.00    +0.000 A 
ATOM     10  C   UNL     1       2.152   8.552  17.541  0.00  0.00    +0.000 A 
ATOM     11  C   UNL     1       1.447   9.599  18.150  0.00  0.00    +0.000 A 
ATOM     12  C   UNL     1       1.139   9.539  19.507  0.00  0.00    +0.000 A 
ATOM     13 CL   UNL     1       0.286  10.870  20.203  0.00  0.00    +0.000 Cl
ATOM     14  C   UNL     1       1.546   8.435  20.248  0.00  0.00    +0.000 A 
ATOM     15 CL   UNL     1       1.299   8.324  21.957  0.00  0.00    +0.000 Cl
ATOM     16  C   UNL     1       2.204   7.369  19.615  0.00  0.00    +0.000 A 
ENDBRANCH   8   9
BRANCH   1  17
ATOM     17  C   UNL     1       1.668   4.470  18.822  0.00  0.00    +0.000 C 
BRANCH  17  19
ATOM     18  C   UNL     1       1.270   3.259  20.861  0.00  0.00    +0.000 C 
ATOM     19  N   UNL     1       1.654   3.126  19.448  0.00  0.00    +0.000 NA
ATOM     20  C   UNL     1       0.710   2.217  18.787  0.00  0.00    +0.000 C 
ENDBRANCH  17  19
ENDBRANCH   1  17
TORSDOF 3
ENDMDL
MODEL 8
REMARK VINA RESULT:      -7.1      1.223      1.720
REMARK  Name = 
REMARK  5 active torsions:
REMARK  status: ('A' for Active; 'I' for Inactive)
REMARK    1  A    between atoms: C_1  and  N_2
REMARK    2  A    between atoms: N_2  and  C_3
REMARK    3  A    between atoms: N_2  and  C_4
REMARK    4  A    between atoms: C_4  and  C_5
REMARK    5  A    between atoms: C_12  and  C_13
REMARK                            x       y       z     vdW  Elec       q    Type
REMARK                         _______ _______ _______ _____ _____    ______ ____
ROOT
ATOM      1  C   UNL     1       3.546   4.436  18.991  0.00  0.00    +0.000 C 
ATOM      2  C   UNL     1       2.919   3.006  18.969  0.00  0.00    +0.000 C 
ATOM      3  C   UNL     1       3.163   2.336  20.331  0.00  0.00    +0.000 C 
ATOM      4  C   UNL     1       2.589   3.198  21.457  0.00  0.00    +0.000 C 
ATOM      5  C   UNL     1       1.814   4.395  20.870  0.00  0.00    +0.000 C 
ATOM      6  C   UNL     1       0.742   3.828  19.917  0.00  0.00    +0.000 C 
ATOM      7  C   UNL     1       1.401   3.095  18.748  0.00  0.00    +0.000 C 
ATOM      8  C   UNL     1       2.819   5.317  20.095  0.00  0.00    +0.000 C 
ENDROOT
BRANCH   8   9
ATOM      9  C   UNL     1       2.291   6.713  19.734  0.00  0.00    +0.000 A 
ATOM     10  C   UNL     1       2.567   7.269  18.474  0.00  0.00    +0.000 A 
ATOM     11  C   UNL     1       2.074   8.526  18.097  0.00  0.00    +0.000 A 
ATOM     12  C   UNL     1       1.374   9.308  19.012  0.00  0.00    +0.000 A 
ATOM     13 CL   UNL     1       0.810  10.855  18.493  0.00  0.00    +0.000 Cl
ATOM     14  C   UNL     1       1.180   8.831  20.304  0.00  0.00    +0.000 A 
ATOM     15 CL   UNL     1       0.416   9.775  21.536  0.00  0.00    +0.000 Cl
ATOM     16  C   UNL     1       1.632   7.548  20.654  0.00  0.00    +0.000 A 
ENDBRANCH   8   9
BRANCH   1  17
ATOM     17  C   UNL     1       3.670   5.030  17.563  0.00  0.00    +0.000 C 
BRANCH  17  19
ATOM     18  C   UNL     1       6.004   4.794  18.088  0.00  0.00    +0.000 C 
ATOM     19  N   UNL     1       5.048   5.144  17.028  0.00  0.00    +0.000 NA
ATOM     20  C   UNL     1       5.272   4.256  15.880  0.00  0.00    +0.000 C 
ENDBRANCH  17  19
ENDBRANCH   1  17
TORSDOF 3
ENDMDL
MODEL 9
REMARK VINA RESULT:      -7.0      0.925      1.823
REMARK  Name = 
REMARK  5 active torsions:
REMARK  status: ('A' for Active; 'I' for Inactive)
REMARK    1  A    between atoms: C_1  and  N_2
REMARK    2  A    between atoms: N_2  and  C_3
REMARK    3  A    between atoms: N_2  and  C_4
REMARK    4  A    between atoms: C_4  and  C_5
REMARK    5  A    between atoms: C_12  and  C_13
REMARK                            x       y       z     vdW  Elec       q    Type
REMARK                         _______ _______ _______ _____ _____    ______ ____
ROOT
ATOM      1  C   UNL     1       4.173   4.686  18.788  0.00  0.00    +0.000 C 
ATOM      2  C   UNL     1       3.859   3.455  17.879  0.00  0.00    +0.000 C 
ATOM      3  C   UNL     1       3.682   2.213  18.769  0.00  0.00    +0.000 C 
ATOM      4  C   UNL     1       2.585   2.457  19.808  0.00  0.00    +0.000 C 
ATOM      5  C   UNL     1       1.895   3.811  19.547  0.00  0.00    +0.000 C 
ATOM      6  C   UNL     1       1.378   3.794  18.093  0.00  0.00    +0.000 C 
ATOM      7  C   UNL     1       2.546   3.682  17.113  0.00  0.00    +0.000 C 
ATOM      8  C   UNL     1       2.942   4.960  19.754  0.00  0.00    +0.000 C 
ENDROOT
BRANCH   8   9
ATOM      9  C   UNL     1       2.357   6.377  19.862  0.00  0.00    +0.000 A 
ATOM     10  C   UNL     1       1.604   6.747  20.988  0.00  0.00    +0.000 A 
ATOM     11  C   UNL     1       1.083   8.039  21.137  0.00  0.00    +0.000 A 
ATOM     12  C   UNL     1       1.216   8.971  20.110  0.00  0.00    +0.000 A 
ATOM     13 CL   UNL     1       0.535  10.540  20.347  0.00  0.00    +0.000 Cl
ATOM     14  C   UNL     1       1.862   8.599  18.936  0.00  0.00    +0.000 A 
ATOM     15 CL   UNL     1       1.982   9.655  17.570  0.00  0.00    +0.000 Cl
ATOM     16  C   UNL     1       2.427   7.319  18.820  0.00  0.00    +0.000 A 
ENDBRANCH   8   9
BRANCH   1  17
ATOM     17  C   UNL     1       4.723   5.881  17.964  0.00  0.00    +0.000 C 
BRANCH  17  19
ATOM     18  C   UNL     1       6.711   5.482  19.257  0.00  0.00    +0.000 C 
ATOM     19  N   UNL     1       6.191   6.083  18.021  0.00  0.00    +0.000 NA
ATOM     20  C   UNL     1       6.879   5.474  16.876  0.00  0.00    +0.000 C 
ENDBRANCH  17  19
ENDBRANCH   1  17
TORSDOF 3
ENDMDL
