MODEL 1
REMARK VINA RESULT:      -8.7      0.000      0.000
REMARK  Name = 
REMARK  7 active torsions:
REMARK  status: ('A' for Active; 'I' for Inactive)
REMARK    1  A    between atoms: C_1  and  O_2
REMARK    2  A    between atoms: O_2  and  C_3
REMARK    3  A    between atoms: C_8  and  N_9
REMARK    4  A    between atoms: N_12  and  C_13
REMARK    5  A    between atoms: C_13  and  C_14
REMARK    6  A    between atoms: C_17  and  C_18
REMARK    7  A    between atoms: C_29  and  C_30
REMARK                            x       y       z     vdW  Elec       q    Type
REMARK                         _______ _______ _______ _____ _____    ______ ____
ROOT
ATOM      1  C   UNL     1       8.497   8.627  18.636  0.00  0.00    +0.000 A 
ATOM      2  C   UNL     1       8.546   7.360  19.230  0.00  0.00    +0.000 A 
ATOM      3  C   UNL     1       7.806   6.278  18.698  0.00  0.00    +0.000 A 
ATOM      4  C   UNL     1       6.975   6.428  17.571  0.00  0.00    +0.000 A 
ATOM      5  C   UNL     1       6.863   7.722  17.051  0.00  0.00    +0.000 A 
ATOM      6  C   UNL     1       7.640   8.786  17.542  0.00  0.00    +0.000 A 
ENDROOT
BRANCH   4   7
ATOM      7  C   UNL     1       6.350   5.166  16.969  0.00  0.00    +0.000 C 
ATOM      8  O   UNL     1       6.730   4.810  15.853  0.00  0.00    +0.000 OA
ATOM      9  N   UNL     1       5.260   4.507  17.575  0.00  0.00    +0.000 N 
ATOM     10  C   UNL     1       4.483   3.473  16.832  0.00  0.00    +0.000 C 
ATOM     11  C   UNL     1       3.259   3.054  17.640  0.00  0.00    +0.000 A 
ATOM     12  C   UNL     1       1.950   3.457  17.364  0.00  0.00    +0.000 A 
ATOM     13  C   UNL     1       0.944   3.274  18.326  0.00  0.00    +0.000 A 
ATOM     14  C   UNL     1       1.208   2.590  19.516  0.00  0.00    +0.000 A 
ATOM     15  C   UNL     1       2.512   2.219  19.826  0.00  0.00    +0.000 A 
ATOM     16  C   UNL     1       3.531   2.595  18.946  0.00  0.00    +0.000 A 
ATOM     17  C   UNL     1       4.830   3.210  19.505  0.00  0.00    +0.000 C 
ATOM     18  C   UNL     1       4.862   4.737  18.991  0.00  0.00    +0.000 C 
BRANCH  18  19
ATOM     19  C   UNL     1       3.997   6.082  18.631  0.00  0.00    +0.000 C 
ATOM     20  N   UNL     1       3.432   6.834  19.633  0.00  0.00    +0.000 N 
ATOM     21  O   UNL     1       3.875   6.480  17.476  0.00  0.00    +0.000 OA
ATOM     22  H   UNL     1       3.193   6.390  20.515  0.00  0.00    +0.000 HD
ATOM     23  H   UNL     1       2.858   7.616  19.359  0.00  0.00    +0.000 HD
ENDBRANCH  18  19
ENDBRANCH   4   7
BRANCH   1  24
ATOM     24  C   UNL     1       9.235   9.846  19.178  0.00  0.00    +0.000 C 
BRANCH  24  28
ATOM     25  N   UNL     1      10.249  13.431  19.560  0.00  0.00    +0.000 N 
ATOM     26  C   UNL     1       8.858  13.029  19.309  0.00  0.00    +0.000 C 
ATOM     27  C   UNL     1       8.797  12.035  18.118  0.00  0.00    +0.000 C 
ATOM     28  N   UNL     1       9.679  10.843  18.188  0.00  0.00    +0.000 NA
ATOM     29  C   UNL     1      11.055  11.328  18.507  0.00  0.00    +0.000 C 
ATOM     30  C   UNL     1      11.183  12.303  19.712  0.00  0.00    +0.000 C 
BRANCH  25  36
ATOM     31  C   UNL     1      10.932  15.761  18.942  0.00  0.00    +0.000 A 
ATOM     32  C   UNL     1      11.376  17.026  19.372  0.00  0.00    +0.000 A 
ATOM     33  C   UNL     1      11.473  17.330  20.726  0.00  0.00    +0.000 A 
ATOM     34  C   UNL     1      11.123  16.377  21.655  0.00  0.00    +0.000 A 
ATOM     35  C   UNL     1      10.708  15.103  21.239  0.00  0.00    +0.000 A 
ATOM     36  C   UNL     1      10.603  14.745  19.877  0.00  0.00    +0.000 A 
BRANCH  31  38
ATOM     37  C   UNL     1      10.817  16.547  16.682  0.00  0.00    +0.000 C 
ATOM     38  O   UNL     1      10.784  15.465  17.602  0.00  0.00    +0.000 OA
ENDBRANCH  31  38
ENDBRANCH  25  36
ENDBRANCH  24  28
ENDBRANCH   1  24
TORSDOF 6
ENDMDL
MODEL 2
REMARK VINA RESULT:      -8.5      0.892      1.550
REMARK  Name = 
REMARK  7 active torsions:
REMARK  status: ('A' for Active; 'I' for Inactive)
REMARK    1  A    between atoms: C_1  and  O_2
REMARK    2  A    between atoms: O_2  and  C_3
REMARK    3  A    between atoms: C_8  and  N_9
REMARK    4  A    between atoms: N_12  and  C_13
REMARK    5  A    between atoms: C_13  and  C_14
REMARK    6  A    between atoms: C_17  and  C_18
REMARK    7  A    between atoms: C_29  and  C_30
REMARK                            x       y       z     vdW  Elec       q    Type
REMARK                         _______ _______ _______ _____ _____    ______ ____
ROOT
ATOM      1  C   UNL     1       8.454   8.676  18.565  0.00  0.00    +0.000 A 
ATOM      2  C   UNL     1       8.548   7.430  19.196  0.00  0.00    +0.000 A 
ATOM      3  C   UNL     1       7.832   6.311  18.710  0.00  0.00    +0.000 A 
ATOM      4  C   UNL     1       6.979   6.402  17.593  0.00  0.00    +0.000 A 
ATOM      5  C   UNL     1       6.822   7.676  17.035  0.00  0.00    +0.000 A 
ATOM      6  C   UNL     1       7.576   8.776  17.481  0.00  0.00    +0.000 A 
ENDROOT
BRANCH   4   7
ATOM      7  C   UNL     1       6.383   5.105  17.040  0.00  0.00    +0.000 C 
ATOM      8  O   UNL     1       6.796   4.696  15.955  0.00  0.00    +0.000 OA
ATOM      9  N   UNL     1       5.282   4.467  17.649  0.00  0.00    +0.000 N 
ATOM     10  C   UNL     1       4.535   3.389  16.940  0.00  0.00    +0.000 C 
ATOM     11  C   UNL     1       3.293   3.000  17.736  0.00  0.00    +0.000 A 
ATOM     12  C   UNL     1       1.988   3.375  17.404  0.00  0.00    +0.000 A 
ATOM     13  C   UNL     1       0.958   3.230  18.346  0.00  0.00    +0.000 A 
ATOM     14  C   UNL     1       1.195   2.611  19.577  0.00  0.00    +0.000 A 
ATOM     15  C   UNL     1       2.493   2.270  19.940  0.00  0.00    +0.000 A 
ATOM     16  C   UNL     1       3.533   2.611  19.070  0.00  0.00    +0.000 A 
ATOM     17  C   UNL     1       4.810   3.266  19.631  0.00  0.00    +0.000 C 
ATOM     18  C   UNL     1       4.843   4.765  19.040  0.00  0.00    +0.000 C 
BRANCH  18  19
ATOM     19  C   UNL     1       3.977   6.081  18.588  0.00  0.00    +0.000 C 
ATOM     20  N   UNL     1       3.417   6.905  19.536  0.00  0.00    +0.000 N 
ATOM     21  O   UNL     1       3.849   6.395  17.408  0.00  0.00    +0.000 OA
ATOM     22  H   UNL     1       3.182   6.525  20.449  0.00  0.00    +0.000 HD
ATOM     23  H   UNL     1       2.842   7.664  19.208  0.00  0.00    +0.000 HD
ENDBRANCH  18  19
ENDBRANCH   4   7
BRANCH   1  24
ATOM     24  C   UNL     1       9.164   9.932  19.057  0.00  0.00    +0.000 C 
BRANCH  24  28
ATOM     25  N   UNL     1      10.522  13.412  19.324  0.00  0.00    +0.000 N 
ATOM     26  C   UNL     1       9.084  13.136  19.193  0.00  0.00    +0.000 C 
ATOM     27  C   UNL     1       8.836  12.151  18.020  0.00  0.00    +0.000 C 
ATOM     28  N   UNL     1       9.611  10.885  18.025  0.00  0.00    +0.000 NA
ATOM     29  C   UNL     1      11.046  11.245  18.225  0.00  0.00    +0.000 C 
ATOM     30  C   UNL     1      11.361  12.205  19.407  0.00  0.00    +0.000 C 
BRANCH  25  36
ATOM     31  C   UNL     1      10.890  15.375  20.837  0.00  0.00    +0.000 A 
ATOM     32  C   UNL     1      11.337  16.702  20.980  0.00  0.00    +0.000 A 
ATOM     33  C   UNL     1      11.949  17.370  19.923  0.00  0.00    +0.000 A 
ATOM     34  C   UNL     1      12.120  16.717  18.724  0.00  0.00    +0.000 A 
ATOM     35  C   UNL     1      11.653  15.404  18.562  0.00  0.00    +0.000 A 
ATOM     36  C   UNL     1      11.017  14.689  19.601  0.00  0.00    +0.000 A 
BRANCH  31  38
ATOM     37  C   UNL     1       9.663  15.444  22.893  0.00  0.00    +0.000 C 
ATOM     38  O   UNL     1      10.328  14.685  21.893  0.00  0.00    +0.000 OA
ENDBRANCH  31  38
ENDBRANCH  25  36
ENDBRANCH  24  28
ENDBRANCH   1  24
TORSDOF 6
ENDMDL
MODEL 3
REMARK VINA RESULT:      -8.4      0.634      1.013
REMARK  Name = 
REMARK  7 active torsions:
REMARK  status: ('A' for Active; 'I' for Inactive)
REMARK    1  A    between atoms: C_1  and  O_2
REMARK    2  A    between atoms: O_2  and  C_3
REMARK    3  A    between atoms: C_8  and  N_9
REMARK    4  A    between atoms: N_12  and  C_13
REMARK    5  A    between atoms: C_13  and  C_14
REMARK    6  A    between atoms: C_17  and  C_18
REMARK    7  A    between atoms: C_29  and  C_30
REMARK                            x       y       z     vdW  Elec       q    Type
REMARK                         _______ _______ _______ _____ _____    ______ ____
ROOT
ATOM      1  C   UNL     1       8.322   8.536  18.554  0.00  0.00    +0.000 A 
ATOM      2  C   UNL     1       7.698   8.485  17.301  0.00  0.00    +0.000 A 
ATOM      3  C   UNL     1       7.179   7.270  16.796  0.00  0.00    +0.000 A 
ATOM      4  C   UNL     1       7.286   6.061  17.511  0.00  0.00    +0.000 A 
ATOM      5  C   UNL     1       7.999   6.113  18.714  0.00  0.00    +0.000 A 
ATOM      6  C   UNL     1       8.465   7.328  19.245  0.00  0.00    +0.000 A 
ENDROOT
BRANCH   4   7
ATOM      7  C   UNL     1       6.547   4.837  16.962  0.00  0.00    +0.000 C 
ATOM      8  O   UNL     1       6.897   4.394  15.867  0.00  0.00    +0.000 OA
ATOM      9  N   UNL     1       5.396   4.314  17.586  0.00  0.00    +0.000 N 
ATOM     10  C   UNL     1       4.528   3.325  16.884  0.00  0.00    +0.000 C 
ATOM     11  C   UNL     1       3.265   3.064  17.699  0.00  0.00    +0.000 A 
ATOM     12  C   UNL     1       2.002   3.576  17.391  0.00  0.00    +0.000 A 
ATOM     13  C   UNL     1       0.978   3.535  18.350  0.00  0.00    +0.000 A 
ATOM     14  C   UNL     1       1.169   2.885  19.574  0.00  0.00    +0.000 A 
ATOM     15  C   UNL     1       2.429   2.407  19.913  0.00  0.00    +0.000 A 
ATOM     16  C   UNL     1       3.484   2.643  19.027  0.00  0.00    +0.000 A 
ATOM     17  C   UNL     1       4.833   3.156  19.569  0.00  0.00    +0.000 C 
ATOM     18  C   UNL     1       5.014   4.647  18.986  0.00  0.00    +0.000 C 
BRANCH  18  19
ATOM     19  C   UNL     1       4.283   6.050  18.556  0.00  0.00    +0.000 C 
ATOM     20  N   UNL     1       4.128   6.376  17.230  0.00  0.00    +0.000 N 
ATOM     21  O   UNL     1       3.813   6.815  19.393  0.00  0.00    +0.000 OA
ATOM     22  H   UNL     1       4.778   6.000  16.545  0.00  0.00    +0.000 HD
ATOM     23  H   UNL     1       3.729   7.276  17.017  0.00  0.00    +0.000 HD
ENDBRANCH  18  19
ENDBRANCH   4   7
BRANCH   1  24
ATOM     24  C   UNL     1       8.939   9.800  19.143  0.00  0.00    +0.000 C 
BRANCH  24  28
ATOM     25  N   UNL     1      10.281  13.269  19.576  0.00  0.00    +0.000 N 
ATOM     26  C   UNL     1       8.897  13.008  19.156  0.00  0.00    +0.000 C 
ATOM     27  C   UNL     1       8.880  11.984  17.989  0.00  0.00    +0.000 C 
ATOM     28  N   UNL     1       9.610  10.709  18.197  0.00  0.00    +0.000 NA
ATOM     29  C   UNL     1      10.979  11.057  18.682  0.00  0.00    +0.000 C 
ATOM     30  C   UNL     1      11.060  12.055  19.871  0.00  0.00    +0.000 C 
BRANCH  25  36
ATOM     31  C   UNL     1      11.404  15.441  19.031  0.00  0.00    +0.000 A 
ATOM     32  C   UNL     1      11.911  16.670  19.496  0.00  0.00    +0.000 A 
ATOM     33  C   UNL     1      11.741  17.062  20.820  0.00  0.00    +0.000 A 
ATOM     34  C   UNL     1      11.061  16.233  21.684  0.00  0.00    +0.000 A 
ATOM     35  C   UNL     1      10.578  14.993  21.240  0.00  0.00    +0.000 A 
ATOM     36  C   UNL     1      10.734  14.548  19.908  0.00  0.00    +0.000 A 
BRANCH  31  38
ATOM     37  C   UNL     1      11.075  15.985  16.722  0.00  0.00    +0.000 C 
ATOM     38  O   UNL     1      11.522  15.066  17.708  0.00  0.00    +0.000 OA
ENDBRANCH  31  38
ENDBRANCH  25  36
ENDBRANCH  24  28
ENDBRANCH   1  24
TORSDOF 6
ENDMDL
MODEL 4
REMARK VINA RESULT:      -7.8      1.095      1.310
REMARK  Name = 
REMARK  7 active torsions:
REMARK  status: ('A' for Active; 'I' for Inactive)
REMARK    1  A    between atoms: C_1  and  O_2
REMARK    2  A    between atoms: O_2  and  C_3
REMARK    3  A    between atoms: C_8  and  N_9
REMARK    4  A    between atoms: N_12  and  C_13
REMARK    5  A    between atoms: C_13  and  C_14
REMARK    6  A    between atoms: C_17  and  C_18
REMARK    7  A    between atoms: C_29  and  C_30
REMARK                            x       y       z     vdW  Elec       q    Type
REMARK                         _______ _______ _______ _____ _____    ______ ____
ROOT
ATOM      1  C   UNL     1       8.043   8.954  17.980  0.00  0.00    +0.000 A 
ATOM      2  C   UNL     1       8.517   7.942  18.825  0.00  0.00    +0.000 A 
ATOM      3  C   UNL     1       7.984   6.632  18.761  0.00  0.00    +0.000 A 
ATOM      4  C   UNL     1       6.946   6.294  17.871  0.00  0.00    +0.000 A 
ATOM      5  C   UNL     1       6.420   7.341  17.106  0.00  0.00    +0.000 A 
ATOM      6  C   UNL     1       6.985   8.628  17.126  0.00  0.00    +0.000 A 
ENDROOT
BRANCH   4   7
ATOM      7  C   UNL     1       6.556   4.818  17.756  0.00  0.00    +0.000 C 
ATOM      8  O   UNL     1       7.251   4.091  17.046  0.00  0.00    +0.000 OA
ATOM      9  N   UNL     1       5.355   4.316  18.298  0.00  0.00    +0.000 N 
ATOM     10  C   UNL     1       4.853   2.962  17.923  0.00  0.00    +0.000 C 
ATOM     11  C   UNL     1       3.459   2.740  18.501  0.00  0.00    +0.000 A 
ATOM     12  C   UNL     1       2.276   2.789  17.759  0.00  0.00    +0.000 A 
ATOM     13  C   UNL     1       1.040   2.874  18.419  0.00  0.00    +0.000 A 
ATOM     14  C   UNL     1       0.967   2.797  19.813  0.00  0.00    +0.000 A 
ATOM     15  C   UNL     1       2.134   2.790  20.568  0.00  0.00    +0.000 A 
ATOM     16  C   UNL     1       3.354   2.913  19.896  0.00  0.00    +0.000 A 
ATOM     17  C   UNL     1       4.419   3.893  20.428  0.00  0.00    +0.000 C 
ATOM     18  C   UNL     1       4.558   5.052  19.318  0.00  0.00    +0.000 C 
BRANCH  18  19
ATOM     19  C   UNL     1       3.800   5.978  18.198  0.00  0.00    +0.000 C 
ATOM     20  N   UNL     1       3.177   7.146  18.567  0.00  0.00    +0.000 N 
ATOM     21  O   UNL     1       3.811   5.686  17.006  0.00  0.00    +0.000 OA
ATOM     22  H   UNL     1       2.831   7.247  19.518  0.00  0.00    +0.000 HD
ATOM     23  H   UNL     1       2.671   7.648  17.854  0.00  0.00    +0.000 HD
ENDBRANCH  18  19
ENDBRANCH   4   7
BRANCH   1  24
ATOM     24  C   UNL     1       8.541  10.394  18.021  0.00  0.00    +0.000 C 
BRANCH  24  28
ATOM     25  N   UNL     1      10.175  13.614  19.016  0.00  0.00    +0.000 N 
ATOM     26  C   UNL     1      10.604  12.845  17.839  0.00  0.00    +0.000 C 
ATOM     27  C   UNL     1      10.809  11.354  18.223  0.00  0.00    +0.000 C 
ATOM     28  N   UNL     1       9.683  10.673  18.910  0.00  0.00    +0.000 NA
ATOM     29  C   UNL     1       9.266  11.543  20.048  0.00  0.00    +0.000 C 
ATOM     30  C   UNL     1       9.015  13.042  19.718  0.00  0.00    +0.000 C 
BRANCH  25  36
ATOM     31  C   UNL     1      10.200  16.098  18.689  0.00  0.00    +0.000 A 
ATOM     32  C   UNL     1      10.827  17.329  18.960  0.00  0.00    +0.000 A 
ATOM     33  C   UNL     1      11.892  17.410  19.852  0.00  0.00    +0.000 A 
ATOM     34  C   UNL     1      12.333  16.267  20.478  0.00  0.00    +0.000 A 
ATOM     35  C   UNL     1      11.736  15.030  20.193  0.00  0.00    +0.000 A 
ATOM     36  C   UNL     1      10.659  14.896  19.289  0.00  0.00    +0.000 A 
BRANCH  31  38
ATOM     37  C   UNL     1       7.860  16.468  18.342  0.00  0.00    +0.000 C 
ATOM     38  O   UNL     1       9.111  16.012  17.846  0.00  0.00    +0.000 OA
ENDBRANCH  31  38
ENDBRANCH  25  36
ENDBRANCH  24  28
ENDBRANCH   1  24
TORSDOF 6
ENDMDL
MODEL 5
REMARK VINA RESULT:      -7.7      1.332      2.045
REMARK  Name = 
REMARK  7 active torsions:
REMARK  status: ('A' for Active; 'I' for Inactive)
REMARK    1  A    between atoms: C_1  and  O_2
REMARK    2  A    between atoms: O_2  and  C_3
REMARK    3  A    between atoms: C_8  and  N_9
REMARK    4  A    between atoms: N_12  and  C_13
REMARK    5  A    between atoms: C_13  and  C_14
REMARK    6  A    between atoms: C_17  and  C_18
REMARK    7  A    between atoms: C_29  and  C_30
REMARK                            x       y       z     vdW  Elec       q    Type
REMARK                         _______ _______ _______ _____ _____    ______ ____
ROOT
ATOM      1  C   UNL     1       8.205   8.849  18.189  0.00  0.00    +0.000 A 
ATOM      2  C   UNL     1       8.541   7.710  18.931  0.00  0.00    +0.000 A 
ATOM      3  C   UNL     1       7.921   6.465  18.673  0.00  0.00    +0.000 A 
ATOM      4  C   UNL     1       6.927   6.319  17.686  0.00  0.00    +0.000 A 
ATOM      5  C   UNL     1       6.535   7.488  17.024  0.00  0.00    +0.000 A 
ATOM      6  C   UNL     1       7.190   8.714  17.237  0.00  0.00    +0.000 A 
ENDROOT
BRANCH   4   7
ATOM      7  C   UNL     1       6.439   4.903  17.365  0.00  0.00    +0.000 C 
ATOM      8  O   UNL     1       6.989   4.298  16.445  0.00  0.00    +0.000 OA
ATOM      9  N   UNL     1       5.294   4.349  17.975  0.00  0.00    +0.000 N 
ATOM     10  C   UNL     1       4.669   3.106  17.439  0.00  0.00    +0.000 C 
ATOM     11  C   UNL     1       3.354   2.827  18.161  0.00  0.00    +0.000 A 
ATOM     12  C   UNL     1       2.087   3.051  17.616  0.00  0.00    +0.000 A 
ATOM     13  C   UNL     1       0.958   3.053  18.450  0.00  0.00    +0.000 A 
ATOM     14  C   UNL     1       1.068   2.722  19.804  0.00  0.00    +0.000 A 
ATOM     15  C   UNL     1       2.324   2.537  20.371  0.00  0.00    +0.000 A 
ATOM     16  C   UNL     1       3.447   2.742  19.565  0.00  0.00    +0.000 A 
ATOM     17  C   UNL     1       4.630   3.571  20.107  0.00  0.00    +0.000 C 
ATOM     18  C   UNL     1       4.687   4.910  19.213  0.00  0.00    +0.000 C 
BRANCH  18  19
ATOM     19  C   UNL     1       3.840   6.052  18.396  0.00  0.00    +0.000 C 
ATOM     20  N   UNL     1       3.267   7.106  19.067  0.00  0.00    +0.000 N 
ATOM     21  O   UNL     1       3.739   6.027  17.173  0.00  0.00    +0.000 OA
ATOM     22  H   UNL     1       3.011   6.994  20.044  0.00  0.00    +0.000 HD
ATOM     23  H   UNL     1       2.705   7.747  18.530  0.00  0.00    +0.000 HD
ENDBRANCH  18  19
ENDBRANCH   4   7
BRANCH   1  24
ATOM     24  C   UNL     1       8.803  10.229  18.439  0.00  0.00    +0.000 C 
BRANCH  24  28
ATOM     25  N   UNL     1      10.194  13.245  20.171  0.00  0.00    +0.000 N 
ATOM     26  C   UNL     1      10.876  12.604  19.038  0.00  0.00    +0.000 C 
ATOM     27  C   UNL     1      10.972  11.072  19.271  0.00  0.00    +0.000 C 
ATOM     28  N   UNL     1       9.711  10.357  19.592  0.00  0.00    +0.000 NA
ATOM     29  C   UNL     1       9.050  11.102  20.704  0.00  0.00    +0.000 C 
ATOM     30  C   UNL     1       8.896  12.638  20.513  0.00  0.00    +0.000 C 
BRANCH  25  36
ATOM     31  C   UNL     1      10.222  14.996  21.962  0.00  0.00    +0.000 A 
ATOM     32  C   UNL     1      10.623  16.285  22.361  0.00  0.00    +0.000 A 
ATOM     33  C   UNL     1      11.444  17.065  21.552  0.00  0.00    +0.000 A 
ATOM     34  C   UNL     1      11.870  16.560  20.344  0.00  0.00    +0.000 A 
ATOM     35  C   UNL     1      11.454  15.289  19.922  0.00  0.00    +0.000 A 
ATOM     36  C   UNL     1      10.614  14.466  20.705  0.00  0.00    +0.000 A 
BRANCH  31  38
ATOM     37  C   UNL     1       8.740  14.824  23.835  0.00  0.00    +0.000 C 
ATOM     38  O   UNL     1       9.451  14.194  22.779  0.00  0.00    +0.000 OA
ENDBRANCH  31  38
ENDBRANCH  25  36
ENDBRANCH  24  28
ENDBRANCH   1  24
TORSDOF 6
ENDMDL
MODEL 6
REMARK VINA RESULT:      -7.7      1.279      2.090
REMARK  Name = 
REMARK  7 active torsions:
REMARK  status: ('A' for Active; 'I' for Inactive)
REMARK    1  A    between atoms: C_1  and  O_2
REMARK    2  A    between atoms: O_2  and  C_3
REMARK    3  A    between atoms: C_8  and  N_9
REMARK    4  A    between atoms: N_12  and  C_13
REMARK    5  A    between atoms: C_13  and  C_14
REMARK    6  A    between atoms: C_17  and  C_18
REMARK    7  A    between atoms: C_29  and  C_30
REMARK                            x       y       z     vdW  Elec       q    Type
REMARK                         _______ _______ _______ _____ _____    ______ ____
ROOT
ATOM      1  C   UNL     1       8.278   7.865  18.302  0.00  0.00    +0.000 A 
ATOM      2  C   UNL     1       7.510   7.887  17.131  0.00  0.00    +0.000 A 
ATOM      3  C   UNL     1       6.763   6.755  16.730  0.00  0.00    +0.000 A 
ATOM      4  C   UNL     1       6.775   5.555  17.468  0.00  0.00    +0.000 A 
ATOM      5  C   UNL     1       7.624   5.520  18.580  0.00  0.00    +0.000 A 
ATOM      6  C   UNL     1       8.323   6.661  19.013  0.00  0.00    +0.000 A 
ENDROOT
BRANCH   4   7
ATOM      7  C   UNL     1       5.805   4.447  17.049  0.00  0.00    +0.000 C 
ATOM      8  O   UNL     1       5.860   4.041  15.888  0.00  0.00    +0.000 OA
ATOM      9  N   UNL     1       4.766   4.002  17.892  0.00  0.00    +0.000 N 
ATOM     10  C   UNL     1       3.663   3.149  17.361  0.00  0.00    +0.000 C 
ATOM     11  C   UNL     1       2.585   2.963  18.424  0.00  0.00    +0.000 A 
ATOM     12  C   UNL     1       1.349   3.616  18.424  0.00  0.00    +0.000 A 
ATOM     13  C   UNL     1       0.558   3.616  19.583  0.00  0.00    +0.000 A 
ATOM     14  C   UNL     1       0.936   2.876  20.708  0.00  0.00    +0.000 A 
ATOM     15  C   UNL     1       2.180   2.256  20.741  0.00  0.00    +0.000 A 
ATOM     16  C   UNL     1       3.038   2.441  19.653  0.00  0.00    +0.000 A 
ATOM     17  C   UNL     1       4.520   2.784  19.904  0.00  0.00    +0.000 C 
ATOM     18  C   UNL     1       4.734   4.284  19.354  0.00  0.00    +0.000 C 
BRANCH  18  19
ATOM     19  C   UNL     1       4.086   5.776  19.151  0.00  0.00    +0.000 C 
ATOM     20  N   UNL     1       3.279   6.322  20.120  0.00  0.00    +0.000 N 
ATOM     21  O   UNL     1       4.342   6.461  18.164  0.00  0.00    +0.000 OA
ATOM     22  H   UNL     1       2.761   5.707  20.741  0.00  0.00    +0.000 HD
ATOM     23  H   UNL     1       2.855   7.214  19.922  0.00  0.00    +0.000 HD
ENDBRANCH  18  19
ENDBRANCH   4   7
BRANCH   1  24
ATOM     24  C   UNL     1       9.138   9.032  18.774  0.00  0.00    +0.000 C 
BRANCH  24  28
ATOM     25  N   UNL     1      10.389  12.544  19.136  0.00  0.00    +0.000 N 
ATOM     26  C   UNL     1      10.315  11.614  20.272  0.00  0.00    +0.000 C 
ATOM     27  C   UNL     1       8.915  10.945  20.322  0.00  0.00    +0.000 C 
ATOM     28  N   UNL     1       8.434  10.290  19.080  0.00  0.00    +0.000 NA
ATOM     29  C   UNL     1       8.601  11.272  17.968  0.00  0.00    +0.000 C 
ATOM     30  C   UNL     1       9.994  11.952  17.847  0.00  0.00    +0.000 C 
BRANCH  25  36
ATOM     31  C   UNL     1      10.968  14.658  20.349  0.00  0.00    +0.000 A 
ATOM     32  C   UNL     1      11.551  15.938  20.300  0.00  0.00    +0.000 A 
ATOM     33  C   UNL     1      12.223  16.378  19.163  0.00  0.00    +0.000 A 
ATOM     34  C   UNL     1      12.318  15.541  18.074  0.00  0.00    +0.000 A 
ATOM     35  C   UNL     1      11.716  14.275  18.101  0.00  0.00    +0.000 A 
ATOM     36  C   UNL     1      11.016  13.789  19.228  0.00  0.00    +0.000 A 
BRANCH  31  38
ATOM     37  C   UNL     1       9.686  15.143  22.313  0.00  0.00    +0.000 C 
ATOM     38  O   UNL     1      10.345  14.192  21.489  0.00  0.00    +0.000 OA
ENDBRANCH  31  38
ENDBRANCH  25  36
ENDBRANCH  24  28
ENDBRANCH   1  24
TORSDOF 6
ENDMDL
MODEL 7
REMARK VINA RESULT:      -7.6      1.110      1.414
REMARK  Name = 
REMARK  7 active torsions:
REMARK  status: ('A' for Active; 'I' for Inactive)
REMARK    1  A    between atoms: C_1  and  O_2
REMARK    2  A    between atoms: O_2  and  C_3
REMARK    3  A    between atoms: C_8  and  N_9
REMARK    4  A    between atoms: N_12  and  C_13
REMARK    5  A    between atoms: C_13  and  C_14
REMARK    6  A    between atoms: C_17  and  C_18
REMARK    7  A    between atoms: C_29  and  C_30
REMARK                            x       y       z     vdW  Elec       q    Type
REMARK                         _______ _______ _______ _____ _____    ______ ____
ROOT
ATOM      1  C   UNL     1       8.193   8.408  18.064  0.00  0.00    +0.000 A 
ATOM      2  C   UNL     1       8.395   7.212  18.763  0.00  0.00    +0.000 A 
ATOM      3  C   UNL     1       7.624   6.061  18.474  0.00  0.00    +0.000 A 
ATOM      4  C   UNL     1       6.610   6.072  17.496  0.00  0.00    +0.000 A 
ATOM      5  C   UNL     1       6.357   7.301  16.878  0.00  0.00    +0.000 A 
ATOM      6  C   UNL     1       7.159   8.430  17.122  0.00  0.00    +0.000 A 
ENDROOT
BRANCH   4   7
ATOM      7  C   UNL     1       5.949   4.738  17.137  0.00  0.00    +0.000 C 
ATOM      8  O   UNL     1       6.270   4.202  16.075  0.00  0.00    +0.000 OA
ATOM      9  N   UNL     1       4.888   4.199  17.893  0.00  0.00    +0.000 N 
ATOM     10  C   UNL     1       4.069   3.070  17.365  0.00  0.00    +0.000 C 
ATOM     11  C   UNL     1       2.885   2.803  18.290  0.00  0.00    +0.000 A 
ATOM     12  C   UNL     1       1.566   3.174  18.017  0.00  0.00    +0.000 A 
ATOM     13  C   UNL     1       0.609   3.161  19.043  0.00  0.00    +0.000 A 
ATOM     14  C   UNL     1       0.930   2.673  20.314  0.00  0.00    +0.000 A 
ATOM     15  C   UNL     1       2.245   2.340  20.615  0.00  0.00    +0.000 A 
ATOM     16  C   UNL     1       3.220   2.556  19.637  0.00  0.00    +0.000 A 
ATOM     17  C   UNL     1       4.549   3.235  20.025  0.00  0.00    +0.000 C 
ATOM     18  C   UNL     1       4.563   4.659  19.271  0.00  0.00    +0.000 C 
BRANCH  18  19
ATOM     19  C   UNL     1       3.688   5.940  18.743  0.00  0.00    +0.000 C 
ATOM     20  N   UNL     1       3.061   6.772  19.639  0.00  0.00    +0.000 N 
ATOM     21  O   UNL     1       3.613   6.221  17.550  0.00  0.00    +0.000 OA
ATOM     22  H   UNL     1       2.789   6.409  20.549  0.00  0.00    +0.000 HD
ATOM     23  H   UNL     1       2.485   7.508  19.264  0.00  0.00    +0.000 HD
ENDBRANCH  18  19
ENDBRANCH   4   7
BRANCH   1  24
ATOM     24  C   UNL     1       8.958   9.696  18.350  0.00  0.00    +0.000 C 
BRANCH  24  28
ATOM     25  N   UNL     1       9.913  13.281  18.860  0.00  0.00    +0.000 N 
ATOM     26  C   UNL     1       9.914  12.303  19.957  0.00  0.00    +0.000 C 
ATOM     27  C   UNL     1       8.574  11.520  19.973  0.00  0.00    +0.000 C 
ATOM     28  N   UNL     1       8.151  10.878  18.703  0.00  0.00    +0.000 NA
ATOM     29  C   UNL     1       8.237  11.915  17.633  0.00  0.00    +0.000 C 
ATOM     30  C   UNL     1       9.570  12.712  17.546  0.00  0.00    +0.000 C 
BRANCH  25  36
ATOM     31  C   UNL     1       9.828  15.764  18.534  0.00  0.00    +0.000 A 
ATOM     32  C   UNL     1      10.488  17.003  18.641  0.00  0.00    +0.000 A 
ATOM     33  C   UNL     1      11.739  17.100  19.244  0.00  0.00    +0.000 A 
ATOM     34  C   UNL     1      12.333  15.964  19.744  0.00  0.00    +0.000 A 
ATOM     35  C   UNL     1      11.699  14.719  19.616  0.00  0.00    +0.000 A 
ATOM     36  C   UNL     1      10.434  14.570  19.005  0.00  0.00    +0.000 A 
BRANCH  31  38
ATOM     37  C   UNL     1       7.457  15.759  18.866  0.00  0.00    +0.000 C 
ATOM     38  O   UNL     1       8.566  15.663  17.984  0.00  0.00    +0.000 OA
ENDBRANCH  31  38
ENDBRANCH  25  36
ENDBRANCH  24  28
ENDBRANCH   1  24
TORSDOF 6
ENDMDL
MODEL 8
REMARK VINA RESULT:      -7.4      1.374      1.737
REMARK  Name = 
REMARK  7 active torsions:
REMARK  status: ('A' for Active; 'I' for Inactive)
REMARK    1  A    between atoms: C_1  and  O_2
REMARK    2  A    between atoms: O_2  and  C_3
REMARK    3  A    between atoms: C_8  and  N_9
REMARK    4  A    between atoms: N_12  and  C_13
REMARK    5  A    between atoms: C_13  and  C_14
REMARK    6  A    between atoms: C_17  and  C_18
REMARK    7  A    between atoms: C_29  and  C_30
REMARK                            x       y       z     vdW  Elec       q    Type
REMARK                         _______ _______ _______ _____ _____    ______ ____
ROOT
ATOM      1  C   UNL     1       8.347   8.452  18.680  0.00  0.00    +0.000 A 
ATOM      2  C   UNL     1       7.695   8.431  17.441  0.00  0.00    +0.000 A 
ATOM      3  C   UNL     1       7.180   7.224  16.910  0.00  0.00    +0.000 A 
ATOM      4  C   UNL     1       7.318   5.996  17.585  0.00  0.00    +0.000 A 
ATOM      5  C   UNL     1       8.057   6.021  18.774  0.00  0.00    +0.000 A 
ATOM      6  C   UNL     1       8.520   7.226  19.331  0.00  0.00    +0.000 A 
ENDROOT
BRANCH   4   7
ATOM      7  C   UNL     1       6.582   4.780  17.016  0.00  0.00    +0.000 C 
ATOM      8  O   UNL     1       6.954   4.337  15.929  0.00  0.00    +0.000 OA
ATOM      9  N   UNL     1       5.412   4.266  17.612  0.00  0.00    +0.000 N 
ATOM     10  C   UNL     1       4.552   3.286  16.887  0.00  0.00    +0.000 C 
ATOM     11  C   UNL     1       3.269   3.033  17.671  0.00  0.00    +0.000 A 
ATOM     12  C   UNL     1       2.017   3.557  17.335  0.00  0.00    +0.000 A 
ATOM     13  C   UNL     1       0.971   3.522  18.270  0.00  0.00    +0.000 A 
ATOM     14  C   UNL     1       1.127   2.868  19.496  0.00  0.00    +0.000 A 
ATOM     15  C   UNL     1       2.375   2.378  19.863  0.00  0.00    +0.000 A 
ATOM     16  C   UNL     1       3.453   2.607  19.003  0.00  0.00    +0.000 A 
ATOM     17  C   UNL     1       4.793   3.108  19.578  0.00  0.00    +0.000 C 
ATOM     18  C   UNL     1       5.000   4.599  19.003  0.00  0.00    +0.000 C 
BRANCH  18  19
ATOM     19  C   UNL     1       4.292   6.009  18.560  0.00  0.00    +0.000 C 
ATOM     20  N   UNL     1       3.992   6.253  17.241  0.00  0.00    +0.000 N 
ATOM     21  O   UNL     1       3.964   6.854  19.388  0.00  0.00    +0.000 OA
ATOM     22  H   UNL     1       4.536   5.795  16.514  0.00  0.00    +0.000 HD
ATOM     23  H   UNL     1       3.615   7.158  17.010  0.00  0.00    +0.000 HD
ENDBRANCH  18  19
ENDBRANCH   4   7
BRANCH   1  24
ATOM     24  C   UNL     1       8.961   9.706  19.294  0.00  0.00    +0.000 C 
BRANCH  24  28
ATOM     25  N   UNL     1       9.052  13.386  18.607  0.00  0.00    +0.000 N 
ATOM     26  C   UNL     1       8.230  12.458  17.817  0.00  0.00    +0.000 C 
ATOM     27  C   UNL     1       9.084  11.244  17.364  0.00  0.00    +0.000 C 
ATOM     28  N   UNL     1       9.830  10.511  18.417  0.00  0.00    +0.000 NA
ATOM     29  C   UNL     1      10.585  11.525  19.211  0.00  0.00    +0.000 C 
ATOM     30  C   UNL     1       9.775  12.750  19.721  0.00  0.00    +0.000 C 
BRANCH  25  36
ATOM     31  C   UNL     1       9.959  15.623  17.936  0.00  0.00    +0.000 A 
ATOM     32  C   UNL     1       9.802  17.022  17.939  0.00  0.00    +0.000 A 
ATOM     33  C   UNL     1       8.644  17.613  18.435  0.00  0.00    +0.000 A 
ATOM     34  C   UNL     1       7.638  16.811  18.925  0.00  0.00    +0.000 A 
ATOM     35  C   UNL     1       7.796  15.418  18.954  0.00  0.00    +0.000 A 
ATOM     36  C   UNL     1       8.956  14.773  18.472  0.00  0.00    +0.000 A 
BRANCH  31  38
ATOM     37  C   UNL     1      12.333  15.313  18.006  0.00  0.00    +0.000 C 
ATOM     38  O   UNL     1      11.081  15.023  17.400  0.00  0.00    +0.000 OA
ENDBRANCH  31  38
ENDBRANCH  25  36
ENDBRANCH  24  28
ENDBRANCH   1  24
TORSDOF 6
ENDMDL
MODEL 9
REMARK VINA RESULT:      -7.2      1.385      2.183
REMARK  Name = 
REMARK  7 active torsions:
REMARK  status: ('A' for Active; 'I' for Inactive)
REMARK    1  A    between atoms: C_1  and  O_2
REMARK    2  A    between atoms: O_2  and  C_3
REMARK    3  A    between atoms: C_8  and  N_9
REMARK    4  A    between atoms: N_12  and  C_13
REMARK    5  A    between atoms: C_13  and  C_14
REMARK    6  A    between atoms: C_17  and  C_18
REMARK    7  A    between atoms: C_29  and  C_30
REMARK                            x       y       z     vdW  Elec       q    Type
REMARK                         _______ _______ _______ _____ _____    ______ ____
ROOT
ATOM      1  C   UNL     1       7.593   8.494  17.871  0.00  0.00    +0.000 A 
ATOM      2  C   UNL     1       6.591   8.237  16.927  0.00  0.00    +0.000 A 
ATOM      3  C   UNL     1       6.124   6.920  16.703  0.00  0.00    +0.000 A 
ATOM      4  C   UNL     1       6.656   5.814  17.393  0.00  0.00    +0.000 A 
ATOM      5  C   UNL     1       7.723   6.079  18.259  0.00  0.00    +0.000 A 
ATOM      6  C   UNL     1       8.151   7.392  18.526  0.00  0.00    +0.000 A 
ENDROOT
BRANCH   4   7
ATOM      7  C   UNL     1       5.971   4.457  17.208  0.00  0.00    +0.000 C 
ATOM      8  O   UNL     1       6.248   3.804  16.201  0.00  0.00    +0.000 OA
ATOM      9  N   UNL     1       4.933   4.019  18.056  0.00  0.00    +0.000 N 
ATOM     10  C   UNL     1       4.086   2.849  17.686  0.00  0.00    +0.000 C 
ATOM     11  C   UNL     1       2.935   2.700  18.676  0.00  0.00    +0.000 A 
ATOM     12  C   UNL     1       1.609   3.055  18.410  0.00  0.00    +0.000 A 
ATOM     13  C   UNL     1       0.691   3.167  19.466  0.00  0.00    +0.000 A 
ATOM     14  C   UNL     1       1.054   2.818  20.770  0.00  0.00    +0.000 A 
ATOM     15  C   UNL     1       2.377   2.504  21.059  0.00  0.00    +0.000 A 
ATOM     16  C   UNL     1       3.317   2.599  20.029  0.00  0.00    +0.000 A 
ATOM     17  C   UNL     1       4.665   3.300  20.293  0.00  0.00    +0.000 C 
ATOM     18  C   UNL     1       4.663   4.632  19.386  0.00  0.00    +0.000 C 
BRANCH  18  19
ATOM     19  C   UNL     1       3.781   5.858  18.750  0.00  0.00    +0.000 C 
ATOM     20  N   UNL     1       3.516   6.983  19.493  0.00  0.00    +0.000 N 
ATOM     21  O   UNL     1       3.381   5.830  17.590  0.00  0.00    +0.000 OA
ATOM     22  H   UNL     1       3.495   6.916  20.507  0.00  0.00    +0.000 HD
ATOM     23  H   UNL     1       2.918   7.681  19.081  0.00  0.00    +0.000 HD
ENDBRANCH  18  19
ENDBRANCH   4   7
BRANCH   1  24
ATOM     24  C   UNL     1       8.173   9.879  18.135  0.00  0.00    +0.000 C 
BRANCH  24  28
ATOM     25  N   UNL     1       9.996  12.763  19.681  0.00  0.00    +0.000 N 
ATOM     26  C   UNL     1      10.266  12.305  18.311  0.00  0.00    +0.000 C 
ATOM     27  C   UNL     1      10.474  10.766  18.295  0.00  0.00    +0.000 C 
ATOM     28  N   UNL     1       9.417   9.935  18.923  0.00  0.00    +0.000 NA
ATOM     29  C   UNL     1       9.157  10.500  20.280  0.00  0.00    +0.000 C 
ATOM     30  C   UNL     1       8.909  12.034  20.356  0.00  0.00    +0.000 C 
BRANCH  25  36
ATOM     31  C   UNL     1      10.251  14.496  21.472  0.00  0.00    +0.000 A 
ATOM     32  C   UNL     1      10.779  15.743  21.856  0.00  0.00    +0.000 A 
ATOM     33  C   UNL     1      11.630  16.453  21.014  0.00  0.00    +0.000 A 
ATOM     34  C   UNL     1      11.960  15.919  19.789  0.00  0.00    +0.000 A 
ATOM     35  C   UNL     1      11.417  14.691  19.383  0.00  0.00    +0.000 A 
ATOM     36  C   UNL     1      10.542  13.940  20.198  0.00  0.00    +0.000 A 
BRANCH  31  38
ATOM     37  C   UNL     1       8.556  14.474  23.164  0.00  0.00    +0.000 C 
ATOM     38  O   UNL     1       9.448  13.760  22.319  0.00  0.00    +0.000 OA
ENDBRANCH  31  38
ENDBRANCH  25  36
ENDBRANCH  24  28
ENDBRANCH   1  24
TORSDOF 6
ENDMDL
