MODEL 1
REMARK VINA RESULT:      -9.2      0.000      0.000
REMARK  Name = 
REMARK  10 active torsions:
REMARK  status: ('A' for Active; 'I' for Inactive)
REMARK    1  A    between atoms: C_1  and  N_2
REMARK    2  A    between atoms: N_2  and  C_3
REMARK    3  A    between atoms: C_4  and  C_6
REMARK    4  A    between atoms: C_9  and  C_10
REMARK    5  A    between atoms: C_15  and  C_16
REMARK    6  A    between atoms: C_16  and  C_17
REMARK    7  A    between atoms: C_16  and  C_19
REMARK    8  A    between atoms: N_21  and  C_22
REMARK    9  A    between atoms: C_22  and  C_23
REMARK   10  A    between atoms: N_25  and  C_26
REMARK                            x       y       z     vdW  Elec       q    Type
REMARK                         _______ _______ _______ _____ _____    ______ ____
ROOT
ATOM      1  C   UNL     1       0.803   8.897  20.555  0.00  0.00    +0.000 A 
ATOM      2  C   UNL     1       1.398   9.190  19.314  0.00  0.00    +0.000 A 
ATOM      3  C   UNL     1       2.175   8.261  18.619  0.00  0.00    +0.000 A 
ATOM      4  C   UNL     1       2.396   6.992  19.177  0.00  0.00    +0.000 A 
ATOM      5  N   UNL     1       3.134   5.970  18.604  0.00  0.00    +0.000 NA
ATOM      6  C   UNL     1       3.166   4.929  19.409  0.00  0.00    +0.000 A 
ATOM      7  S   UNL     1       2.277   5.104  20.874  0.00  0.00    +0.000 S 
ATOM      8  C   UNL     1       1.836   6.702  20.418  0.00  0.00    +0.000 A 
ATOM      9  C   UNL     1       1.040   7.630  21.116  0.00  0.00    +0.000 A 
ENDROOT
BRANCH   1  13
ATOM     10  C   UNL     1      -1.851  11.762  22.424  0.00  0.00    +0.000 A 
ATOM     11  C   UNL     1      -1.175  10.809  23.211  0.00  0.00    +0.000 A 
ATOM     12  C   UNL     1      -0.289   9.898  22.618  0.00  0.00    +0.000 A 
ATOM     13  C   UNL     1      -0.079   9.878  21.228  0.00  0.00    +0.000 A 
ATOM     14  C   UNL     1      -0.743  10.860  20.475  0.00  0.00    +0.000 A 
ATOM     15  C   UNL     1      -1.553  11.819  21.078  0.00  0.00    +0.000 A 
ATOM     16  F   UNL     1      -1.986  12.813  20.297  0.00  0.00    +0.000 F 
BRANCH  10  20
ATOM     17  C   UNL     1      -3.393  14.698  24.315  0.00  0.00    +0.000 C 
ATOM     18  N   UNL     1      -2.371  13.879  23.689  0.00  0.00    +0.000 N 
ATOM     19  C   UNL     1      -1.032  14.449  23.614  0.00  0.00    +0.000 C 
ATOM     20  C   UNL     1      -2.801  12.685  23.095  0.00  0.00    +0.000 C 
ATOM     21  O   UNL     1      -3.994  12.372  23.066  0.00  0.00    +0.000 OA
ENDBRANCH  10  20
ENDBRANCH   1  13
BRANCH   6  22
ATOM     22  C   UNL     1       3.921   3.679  19.094  0.00  0.00    +0.000 C 
BRANCH  22  23
ATOM     23  C   UNL     1       5.269   4.010  18.434  0.00  0.00    +0.000 C 
ATOM     24  O   UNL     1       6.265   4.342  19.081  0.00  0.00    +0.000 OA
ATOM     25  N   UNL     1       5.335   3.968  17.060  0.00  0.00    +0.000 N 
ATOM     26  H   UNL     1       4.540   3.707  16.481  0.00  0.00    +0.000 HD
BRANCH  25  27
ATOM     27  C   UNL     1       6.595   4.233  16.378  0.00  0.00    +0.000 C 
BRANCH  27  28
ATOM     28  C   UNL     1       6.359   4.623  14.924  0.00  0.00    +0.000 C 
ATOM     29  O   UNL     1       6.202   5.793  14.587  0.00  0.00    +0.000 OA
ATOM     30  N   UNL     1       6.349   3.555  14.045  0.00  0.00    +0.000 N 
ATOM     31  H   UNL     1       6.453   2.614  14.403  0.00  0.00    +0.000 HD
BRANCH  30  32
ATOM     32  C   UNL     1       6.117   3.733  12.645  0.00  0.00    +0.000 C 
ATOM     33  C   UNL     1       6.887   2.927  11.636  0.00  0.00    +0.000 C 
ATOM     34  C   UNL     1       5.422   2.670  11.837  0.00  0.00    +0.000 C 
ENDBRANCH  30  32
ENDBRANCH  27  28
ENDBRANCH  25  27
ENDBRANCH  22  23
BRANCH  22  35
ATOM     35  C   UNL     1       3.119   2.825  18.125  0.00  0.00    +0.000 C 
ATOM     36  N   UNL     1       2.454   2.117  17.322  0.00  0.00    +0.000 NA
ENDBRANCH  22  35
ENDBRANCH   6  22
TORSDOF 8
ENDMDL
MODEL 2
REMARK VINA RESULT:      -8.9      1.301      1.714
REMARK  Name = 
REMARK  10 active torsions:
REMARK  status: ('A' for Active; 'I' for Inactive)
REMARK    1  A    between atoms: C_1  and  N_2
REMARK    2  A    between atoms: N_2  and  C_3
REMARK    3  A    between atoms: C_4  and  C_6
REMARK    4  A    between atoms: C_9  and  C_10
REMARK    5  A    between atoms: C_15  and  C_16
REMARK    6  A    between atoms: C_16  and  C_17
REMARK    7  A    between atoms: C_16  and  C_19
REMARK    8  A    between atoms: N_21  and  C_22
REMARK    9  A    between atoms: C_22  and  C_23
REMARK   10  A    between atoms: N_25  and  C_26
REMARK                            x       y       z     vdW  Elec       q    Type
REMARK                         _______ _______ _______ _____ _____    ______ ____
ROOT
ATOM      1  C   UNL     1       1.041   9.476  19.634  0.00  0.00    +0.000 A 
ATOM      2  C   UNL     1       1.621   9.585  18.356  0.00  0.00    +0.000 A 
ATOM      3  C   UNL     1       2.349   8.546  17.774  0.00  0.00    +0.000 A 
ATOM      4  C   UNL     1       2.536   7.351  18.486  0.00  0.00    +0.000 A 
ATOM      5  N   UNL     1       3.224   6.237  18.038  0.00  0.00    +0.000 NA
ATOM      6  C   UNL     1       3.235   5.307  18.970  0.00  0.00    +0.000 A 
ATOM      7  S   UNL     1       2.384   5.702  20.413  0.00  0.00    +0.000 S 
ATOM      8  C   UNL     1       1.991   7.243  19.763  0.00  0.00    +0.000 A 
ATOM      9  C   UNL     1       1.243   8.283  20.349  0.00  0.00    +0.000 A 
ENDROOT
BRANCH   1  13
ATOM     10  C   UNL     1      -1.318  12.676  21.349  0.00  0.00    +0.000 A 
ATOM     11  C   UNL     1      -1.166  12.583  19.951  0.00  0.00    +0.000 A 
ATOM     12  C   UNL     1      -0.430  11.530  19.386  0.00  0.00    +0.000 A 
ATOM     13  C   UNL     1       0.208  10.568  20.188  0.00  0.00    +0.000 A 
ATOM     14  C   UNL     1       0.012  10.671  21.575  0.00  0.00    +0.000 A 
ATOM     15  C   UNL     1      -0.792  11.665  22.127  0.00  0.00    +0.000 A 
ATOM     16  F   UNL     1      -1.060  11.561  23.431  0.00  0.00    +0.000 F 
BRANCH  10  20
ATOM     17  C   UNL     1      -4.115  15.022  22.463  0.00  0.00    +0.000 C 
ATOM     18  N   UNL     1      -3.482  13.845  21.898  0.00  0.00    +0.000 N 
ATOM     19  C   UNL     1      -4.363  12.746  21.522  0.00  0.00    +0.000 C 
ATOM     20  C   UNL     1      -2.081  13.824  21.900  0.00  0.00    +0.000 C 
ATOM     21  O   UNL     1      -1.424  14.741  22.400  0.00  0.00    +0.000 OA
ENDBRANCH  10  20
ENDBRANCH   1  13
BRANCH   6  22
ATOM     22  C   UNL     1       3.938   3.999  18.805  0.00  0.00    +0.000 C 
BRANCH  22  23
ATOM     23  C   UNL     1       5.341   4.206  18.213  0.00  0.00    +0.000 C 
ATOM     24  O   UNL     1       6.302   4.583  18.888  0.00  0.00    +0.000 OA
ATOM     25  N   UNL     1       5.501   3.996  16.863  0.00  0.00    +0.000 N 
ATOM     26  H   UNL     1       4.738   3.692  16.261  0.00  0.00    +0.000 HD
BRANCH  25  27
ATOM     27  C   UNL     1       6.814   4.138  16.248  0.00  0.00    +0.000 C 
BRANCH  27  28
ATOM     28  C   UNL     1       6.694   4.478  14.768  0.00  0.00    +0.000 C 
ATOM     29  O   UNL     1       6.936   5.605  14.343  0.00  0.00    +0.000 OA
ATOM     30  N   UNL     1       6.303   3.418  13.972  0.00  0.00    +0.000 N 
ATOM     31  H   UNL     1       6.090   2.525  14.400  0.00  0.00    +0.000 HD
BRANCH  30  32
ATOM     32  C   UNL     1       6.116   3.562  12.562  0.00  0.00    +0.000 C 
ATOM     33  C   UNL     1       5.955   2.350  11.686  0.00  0.00    +0.000 C 
ATOM     34  C   UNL     1       4.785   3.259  11.926  0.00  0.00    +0.000 C 
ENDBRANCH  30  32
ENDBRANCH  27  28
ENDBRANCH  25  27
ENDBRANCH  22  23
BRANCH  22  35
ATOM     35  C   UNL     1       3.152   3.108  17.857  0.00  0.00    +0.000 C 
ATOM     36  N   UNL     1       2.499   2.370  17.071  0.00  0.00    +0.000 NA
ENDBRANCH  22  35
ENDBRANCH   6  22
TORSDOF 8
ENDMDL
MODEL 3
REMARK VINA RESULT:      -8.7      1.210      1.409
REMARK  Name = 
REMARK  10 active torsions:
REMARK  status: ('A' for Active; 'I' for Inactive)
REMARK    1  A    between atoms: C_1  and  N_2
REMARK    2  A    between atoms: N_2  and  C_3
REMARK    3  A    between atoms: C_4  and  C_6
REMARK    4  A    between atoms: C_9  and  C_10
REMARK    5  A    between atoms: C_15  and  C_16
REMARK    6  A    between atoms: C_16  and  C_17
REMARK    7  A    between atoms: C_16  and  C_19
REMARK    8  A    between atoms: N_21  and  C_22
REMARK    9  A    between atoms: C_22  and  C_23
REMARK   10  A    between atoms: N_25  and  C_26
REMARK                            x       y       z     vdW  Elec       q    Type
REMARK                         _______ _______ _______ _____ _____    ______ ____
ROOT
ATOM      1  C   UNL     1       1.025   9.488  19.763  0.00  0.00    +0.000 A 
ATOM      2  C   UNL     1       1.480   9.557  18.433  0.00  0.00    +0.000 A 
ATOM      3  C   UNL     1       2.148   8.497  17.815  0.00  0.00    +0.000 A 
ATOM      4  C   UNL     1       2.400   7.323  18.542  0.00  0.00    +0.000 A 
ATOM      5  N   UNL     1       3.040   6.194  18.064  0.00  0.00    +0.000 NA
ATOM      6  C   UNL     1       3.138   5.291  19.018  0.00  0.00    +0.000 A 
ATOM      7  S   UNL     1       2.429   5.732  20.523  0.00  0.00    +0.000 S 
ATOM      8  C   UNL     1       1.978   7.256  19.868  0.00  0.00    +0.000 A 
ATOM      9  C   UNL     1       1.292   8.315  20.491  0.00  0.00    +0.000 A 
ENDROOT
BRANCH   1  13
ATOM     10  C   UNL     1      -1.298  12.752  21.406  0.00  0.00    +0.000 A 
ATOM     11  C   UNL     1      -0.938  11.662  22.223  0.00  0.00    +0.000 A 
ATOM     12  C   UNL     1      -0.158  10.616  21.707  0.00  0.00    +0.000 A 
ATOM     13  C   UNL     1       0.250  10.600  20.361  0.00  0.00    +0.000 A 
ATOM     14  C   UNL     1      -0.098  11.715  19.582  0.00  0.00    +0.000 A 
ATOM     15  C   UNL     1      -0.796  12.793  20.121  0.00  0.00    +0.000 A 
ATOM     16  F   UNL     1      -0.913  13.876  19.348  0.00  0.00    +0.000 F 
BRANCH  10  20
ATOM     17  C   UNL     1      -4.267  14.900  22.476  0.00  0.00    +0.000 C 
ATOM     18  N   UNL     1      -3.544  13.802  21.862  0.00  0.00    +0.000 N 
ATOM     19  C   UNL     1      -4.347  12.721  21.304  0.00  0.00    +0.000 C 
ATOM     20  C   UNL     1      -2.148  13.819  21.991  0.00  0.00    +0.000 C 
ATOM     21  O   UNL     1      -1.571  14.700  22.634  0.00  0.00    +0.000 OA
ENDBRANCH  10  20
ENDBRANCH   1  13
BRANCH   6  22
ATOM     22  C   UNL     1       3.820   3.976  18.826  0.00  0.00    +0.000 C 
BRANCH  22  23
ATOM     23  C   UNL     1       5.282   4.179  18.398  0.00  0.00    +0.000 C 
ATOM     24  O   UNL     1       6.196   4.360  19.207  0.00  0.00    +0.000 OA
ATOM     25  N   UNL     1       5.556   4.196  17.050  0.00  0.00    +0.000 N 
ATOM     26  H   UNL     1       4.837   4.058  16.342  0.00  0.00    +0.000 HD
BRANCH  25  27
ATOM     27  C   UNL     1       6.928   4.344  16.582  0.00  0.00    +0.000 C 
BRANCH  27  28
ATOM     28  C   UNL     1       6.969   4.629  15.085  0.00  0.00    +0.000 C 
ATOM     29  O   UNL     1       7.626   5.558  14.623  0.00  0.00    +0.000 OA
ATOM     30  N   UNL     1       6.219   3.755  14.320  0.00  0.00    +0.000 N 
ATOM     31  H   UNL     1       5.677   3.032  14.777  0.00  0.00    +0.000 HD
BRANCH  30  32
ATOM     32  C   UNL     1       6.123   3.888  12.900  0.00  0.00    +0.000 C 
ATOM     33  C   UNL     1       6.521   2.752  11.999  0.00  0.00    +0.000 C 
ATOM     34  C   UNL     1       5.075   3.135  12.124  0.00  0.00    +0.000 C 
ENDBRANCH  30  32
ENDBRANCH  27  28
ENDBRANCH  25  27
ENDBRANCH  22  23
BRANCH  22  35
ATOM     35  C   UNL     1       3.115   3.185  17.736  0.00  0.00    +0.000 C 
ATOM     36  N   UNL     1       2.529   2.530  16.833  0.00  0.00    +0.000 NA
ENDBRANCH  22  35
ENDBRANCH   6  22
TORSDOF 8
ENDMDL
MODEL 4
REMARK VINA RESULT:      -8.5      1.664      1.902
REMARK  Name = 
REMARK  10 active torsions:
REMARK  status: ('A' for Active; 'I' for Inactive)
REMARK    1  A    between atoms: C_1  and  N_2
REMARK    2  A    between atoms: N_2  and  C_3
REMARK    3  A    between atoms: C_4  and  C_6
REMARK    4  A    between atoms: C_9  and  C_10
REMARK    5  A    between atoms: C_15  and  C_16
REMARK    6  A    between atoms: C_16  and  C_17
REMARK    7  A    between atoms: C_16  and  C_19
REMARK    8  A    between atoms: N_21  and  C_22
REMARK    9  A    between atoms: C_22  and  C_23
REMARK   10  A    between atoms: N_25  and  C_26
REMARK                            x       y       z     vdW  Elec       q    Type
REMARK                         _______ _______ _______ _____ _____    ______ ____
ROOT
ATOM      1  C   UNL     1       1.042   9.738  19.432  0.00  0.00    +0.000 A 
ATOM      2  C   UNL     1       1.676   9.761  18.176  0.00  0.00    +0.000 A 
ATOM      3  C   UNL     1       2.402   8.673  17.685  0.00  0.00    +0.000 A 
ATOM      4  C   UNL     1       2.529   7.518  18.472  0.00  0.00    +0.000 A 
ATOM      5  N   UNL     1       3.208   6.365  18.117  0.00  0.00    +0.000 NA
ATOM      6  C   UNL     1       3.157   5.489  19.100  0.00  0.00    +0.000 A 
ATOM      7  S   UNL     1       2.257   5.986  20.480  0.00  0.00    +0.000 S 
ATOM      8  C   UNL     1       1.929   7.496  19.728  0.00  0.00    +0.000 A 
ATOM      9  C   UNL     1       1.184   8.584  20.221  0.00  0.00    +0.000 A 
ENDROOT
BRANCH   1  13
ATOM     10  C   UNL     1      -1.279  13.145  20.757  0.00  0.00    +0.000 A 
ATOM     11  C   UNL     1      -1.864  12.176  19.918  0.00  0.00    +0.000 A 
ATOM     12  C   UNL     1      -1.129  11.053  19.510  0.00  0.00    +0.000 A 
ATOM     13  C   UNL     1       0.214  10.879  19.887  0.00  0.00    +0.000 A 
ATOM     14  C   UNL     1       0.758  11.845  20.749  0.00  0.00    +0.000 A 
ATOM     15  C   UNL     1      -0.001  12.912  21.223  0.00  0.00    +0.000 A 
ATOM     16  F   UNL     1       0.554  13.663  22.177  0.00  0.00    +0.000 F 
BRANCH  10  20
ATOM     17  C   UNL     1      -2.686  16.681  21.055  0.00  0.00    +0.000 C 
ATOM     18  N   UNL     1      -1.827  15.601  20.608  0.00  0.00    +0.000 N 
ATOM     19  C   UNL     1      -0.877  15.917  19.548  0.00  0.00    +0.000 C 
ATOM     20  C   UNL     1      -2.089  14.330  21.137  0.00  0.00    +0.000 C 
ATOM     21  O   UNL     1      -3.033  14.134  21.906  0.00  0.00    +0.000 OA
ENDBRANCH  10  20
ENDBRANCH   1  13
BRANCH   6  22
ATOM     22  C   UNL     1       3.833   4.159  19.040  0.00  0.00    +0.000 C 
BRANCH  22  23
ATOM     23  C   UNL     1       5.276   4.305  18.530  0.00  0.00    +0.000 C 
ATOM     24  O   UNL     1       6.205   4.676  19.252  0.00  0.00    +0.000 OA
ATOM     25  N   UNL     1       5.512   4.043  17.200  0.00  0.00    +0.000 N 
ATOM     26  H   UNL     1       4.779   3.741  16.562  0.00  0.00    +0.000 HD
BRANCH  25  27
ATOM     27  C   UNL     1       6.865   4.126  16.666  0.00  0.00    +0.000 C 
BRANCH  27  28
ATOM     28  C   UNL     1       6.855   4.590  15.214  0.00  0.00    +0.000 C 
ATOM     29  O   UNL     1       7.336   5.668  14.878  0.00  0.00    +0.000 OA
ATOM     30  N   UNL     1       6.271   3.695  14.336  0.00  0.00    +0.000 N 
ATOM     31  H   UNL     1       5.866   2.839  14.694  0.00  0.00    +0.000 HD
BRANCH  30  32
ATOM     32  C   UNL     1       6.152   3.977  12.940  0.00  0.00    +0.000 C 
ATOM     33  C   UNL     1       6.725   3.034  11.920  0.00  0.00    +0.000 C 
ATOM     34  C   UNL     1       5.238   3.164  12.064  0.00  0.00    +0.000 C 
ENDBRANCH  30  32
ENDBRANCH  27  28
ENDBRANCH  25  27
ENDBRANCH  22  23
BRANCH  22  35
ATOM     35  C   UNL     1       3.085   3.244  18.084  0.00  0.00    +0.000 C 
ATOM     36  N   UNL     1       2.464   2.486  17.291  0.00  0.00    +0.000 NA
ENDBRANCH  22  35
ENDBRANCH   6  22
TORSDOF 8
ENDMDL
MODEL 5
REMARK VINA RESULT:      -8.5      3.125     10.898
REMARK  Name = 
REMARK  10 active torsions:
REMARK  status: ('A' for Active; 'I' for Inactive)
REMARK    1  A    between atoms: C_1  and  N_2
REMARK    2  A    between atoms: N_2  and  C_3
REMARK    3  A    between atoms: C_4  and  C_6
REMARK    4  A    between atoms: C_9  and  C_10
REMARK    5  A    between atoms: C_15  and  C_16
REMARK    6  A    between atoms: C_16  and  C_17
REMARK    7  A    between atoms: C_16  and  C_19
REMARK    8  A    between atoms: N_21  and  C_22
REMARK    9  A    between atoms: C_22  and  C_23
REMARK   10  A    between atoms: N_25  and  C_26
REMARK                            x       y       z     vdW  Elec       q    Type
REMARK                         _______ _______ _______ _____ _____    ______ ____
ROOT
ATOM      1  C   UNL     1       1.422   8.834  19.463  0.00  0.00    +0.000 A 
ATOM      2  C   UNL     1       0.927   9.850  18.624  0.00  0.00    +0.000 A 
ATOM      3  C   UNL     1       0.083  10.860  19.092  0.00  0.00    +0.000 A 
ATOM      4  C   UNL     1      -0.310  10.862  20.439  0.00  0.00    +0.000 A 
ATOM      5  N   UNL     1      -1.131  11.797  21.044  0.00  0.00    +0.000 NA
ATOM      6  C   UNL     1      -1.322  11.482  22.308  0.00  0.00    +0.000 A 
ATOM      7  S   UNL     1      -0.494  10.072  22.847  0.00  0.00    +0.000 S 
ATOM      8  C   UNL     1       0.152   9.845  21.270  0.00  0.00    +0.000 A 
ATOM      9  C   UNL     1       1.014   8.832  20.807  0.00  0.00    +0.000 A 
ENDROOT
BRANCH   1  13
ATOM     10  C   UNL     1       4.285   5.971  17.928  0.00  0.00    +0.000 A 
ATOM     11  C   UNL     1       3.598   5.707  19.129  0.00  0.00    +0.000 A 
ATOM     12  C   UNL     1       2.645   6.614  19.617  0.00  0.00    +0.000 A 
ATOM     13  C   UNL     1       2.377   7.823  18.952  0.00  0.00    +0.000 A 
ATOM     14  C   UNL     1       3.055   8.043  17.742  0.00  0.00    +0.000 A 
ATOM     15  C   UNL     1       3.934   7.100  17.216  0.00  0.00    +0.000 A 
ATOM     16  F   UNL     1       4.380   7.324  15.977  0.00  0.00    +0.000 F 
BRANCH  10  20
ATOM     17  C   UNL     1       7.567   4.280  16.958  0.00  0.00    +0.000 C 
ATOM     18  N   UNL     1       6.667   5.319  17.425  0.00  0.00    +0.000 N 
ATOM     19  C   UNL     1       7.283   6.537  17.936  0.00  0.00    +0.000 C 
ATOM     20  C   UNL     1       5.305   4.994  17.470  0.00  0.00    +0.000 C 
ATOM     21  O   UNL     1       4.901   3.867  17.172  0.00  0.00    +0.000 OA
ENDBRANCH  10  20
ENDBRANCH   1  13
BRANCH   6  22
ATOM     22  C   UNL     1      -2.200  12.274  23.221  0.00  0.00    +0.000 C 
BRANCH  22  23
ATOM     23  C   UNL     1      -3.548  12.579  22.550  0.00  0.00    +0.000 C 
ATOM     24  O   UNL     1      -4.630  12.266  23.053  0.00  0.00    +0.000 OA
ATOM     25  N   UNL     1      -3.524  13.191  21.318  0.00  0.00    +0.000 N 
ATOM     26  H   UNL     1      -2.658  13.463  20.858  0.00  0.00    +0.000 HD
BRANCH  25  27
ATOM     27  C   UNL     1      -4.769  13.543  20.648  0.00  0.00    +0.000 C 
BRANCH  27  28
ATOM     28  C   UNL     1      -4.994  12.674  19.417  0.00  0.00    +0.000 C 
ATOM     29  O   UNL     1      -6.117  12.483  18.958  0.00  0.00    +0.000 OA
ATOM     30  N   UNL     1      -3.837  12.142  18.878  0.00  0.00    +0.000 N 
ATOM     31  H   UNL     1      -2.949  12.317  19.333  0.00  0.00    +0.000 HD
BRANCH  30  32
ATOM     32  C   UNL     1      -3.862  11.283  17.736  0.00  0.00    +0.000 C 
ATOM     33  C   UNL     1      -2.646  11.137  16.864  0.00  0.00    +0.000 C 
ATOM     34  C   UNL     1      -3.089   9.991  17.725  0.00  0.00    +0.000 C 
ENDBRANCH  30  32
ENDBRANCH  27  28
ENDBRANCH  25  27
ENDBRANCH  22  23
BRANCH  22  35
ATOM     35  C   UNL     1      -1.530  13.597  23.558  0.00  0.00    +0.000 C 
ATOM     36  N   UNL     1      -0.974  14.693  23.837  0.00  0.00    +0.000 NA
ENDBRANCH  22  35
ENDBRANCH   6  22
TORSDOF 8
ENDMDL
MODEL 6
REMARK VINA RESULT:      -8.3      3.573     10.877
REMARK  Name = 
REMARK  10 active torsions:
REMARK  status: ('A' for Active; 'I' for Inactive)
REMARK    1  A    between atoms: C_1  and  N_2
REMARK    2  A    between atoms: N_2  and  C_3
REMARK    3  A    between atoms: C_4  and  C_6
REMARK    4  A    between atoms: C_9  and  C_10
REMARK    5  A    between atoms: C_15  and  C_16
REMARK    6  A    between atoms: C_16  and  C_17
REMARK    7  A    between atoms: C_16  and  C_19
REMARK    8  A    between atoms: N_21  and  C_22
REMARK    9  A    between atoms: C_22  and  C_23
REMARK   10  A    between atoms: N_25  and  C_26
REMARK                            x       y       z     vdW  Elec       q    Type
REMARK                         _______ _______ _______ _____ _____    ______ ____
ROOT
ATOM      1  C   UNL     1       1.152   8.769  20.140  0.00  0.00    +0.000 A 
ATOM      2  C   UNL     1       1.167   9.871  19.265  0.00  0.00    +0.000 A 
ATOM      3  C   UNL     1       0.592  11.100  19.599  0.00  0.00    +0.000 A 
ATOM      4  C   UNL     1      -0.045  11.248  20.840  0.00  0.00    +0.000 A 
ATOM      5  N   UNL     1      -0.649  12.401  21.311  0.00  0.00    +0.000 NA
ATOM      6  C   UNL     1      -1.178  12.183  22.497  0.00  0.00    +0.000 A 
ATOM      7  S   UNL     1      -0.940  10.599  23.128  0.00  0.00    +0.000 S 
ATOM      8  C   UNL     1      -0.090  10.155  21.702  0.00  0.00    +0.000 A 
ATOM      9  C   UNL     1       0.500   8.919  21.376  0.00  0.00    +0.000 A 
ENDROOT
BRANCH   1  13
ATOM     10  C   UNL     1       3.071   5.015  19.157  0.00  0.00    +0.000 A 
ATOM     11  C   UNL     1       3.155   6.104  18.267  0.00  0.00    +0.000 A 
ATOM     12  C   UNL     1       2.563   7.334  18.593  0.00  0.00    +0.000 A 
ATOM     13  C   UNL     1       1.839   7.506  19.786  0.00  0.00    +0.000 A 
ATOM     14  C   UNL     1       1.801   6.412  20.665  0.00  0.00    +0.000 A 
ATOM     15  C   UNL     1       2.464   5.221  20.379  0.00  0.00    +0.000 A 
ATOM     16  F   UNL     1       2.518   4.317  21.360  0.00  0.00    +0.000 F 
BRANCH  10  20
ATOM     17  C   UNL     1       3.638   1.373  18.164  0.00  0.00    +0.000 C 
ATOM     18  N   UNL     1       2.920   2.572  18.556  0.00  0.00    +0.000 N 
ATOM     19  C   UNL     1       1.465   2.490  18.562  0.00  0.00    +0.000 C 
ATOM     20  C   UNL     1       3.689   3.726  18.754  0.00  0.00    +0.000 C 
ATOM     21  O   UNL     1       4.907   3.731  18.557  0.00  0.00    +0.000 OA
ENDBRANCH  10  20
ENDBRANCH   1  13
BRANCH   6  22
ATOM     22  C   UNL     1      -1.940  13.224  23.251  0.00  0.00    +0.000 C 
BRANCH  22  23
ATOM     23  C   UNL     1      -3.180  13.669  22.461  0.00  0.00    +0.000 C 
ATOM     24  O   UNL     1      -3.775  14.724  22.691  0.00  0.00    +0.000 OA
ATOM     25  N   UNL     1      -3.654  12.820  21.487  0.00  0.00    +0.000 N 
ATOM     26  H   UNL     1      -3.204  11.935  21.264  0.00  0.00    +0.000 HD
BRANCH  25  27
ATOM     27  C   UNL     1      -4.803  13.203  20.676  0.00  0.00    +0.000 C 
BRANCH  27  28
ATOM     28  C   UNL     1      -4.827  12.435  19.360  0.00  0.00    +0.000 C 
ATOM     29  O   UNL     1      -5.878  12.191  18.774  0.00  0.00    +0.000 OA
ATOM     30  N   UNL     1      -3.579  12.056  18.902  0.00  0.00    +0.000 N 
ATOM     31  H   UNL     1      -2.759  12.265  19.458  0.00  0.00    +0.000 HD
BRANCH  30  32
ATOM     32  C   UNL     1      -3.414  11.306  17.696  0.00  0.00    +0.000 C 
ATOM     33  C   UNL     1      -2.046  11.095  17.110  0.00  0.00    +0.000 C 
ATOM     34  C   UNL     1      -2.784   9.939  17.718  0.00  0.00    +0.000 C 
ENDBRANCH  30  32
ENDBRANCH  27  28
ENDBRANCH  25  27
ENDBRANCH  22  23
BRANCH  22  35
ATOM     35  C   UNL     1      -1.060  14.443  23.476  0.00  0.00    +0.000 C 
ATOM     36  N   UNL     1      -0.331  15.454  23.661  0.00  0.00    +0.000 NA
ENDBRANCH  22  35
ENDBRANCH   6  22
TORSDOF 8
ENDMDL
MODEL 7
REMARK VINA RESULT:      -8.3      1.398      1.699
REMARK  Name = 
REMARK  10 active torsions:
REMARK  status: ('A' for Active; 'I' for Inactive)
REMARK    1  A    between atoms: C_1  and  N_2
REMARK    2  A    between atoms: N_2  and  C_3
REMARK    3  A    between atoms: C_4  and  C_6
REMARK    4  A    between atoms: C_9  and  C_10
REMARK    5  A    between atoms: C_15  and  C_16
REMARK    6  A    between atoms: C_16  and  C_17
REMARK    7  A    between atoms: C_16  and  C_19
REMARK    8  A    between atoms: N_21  and  C_22
REMARK    9  A    between atoms: C_22  and  C_23
REMARK   10  A    between atoms: N_25  and  C_26
REMARK                            x       y       z     vdW  Elec       q    Type
REMARK                         _______ _______ _______ _____ _____    ______ ____
ROOT
ATOM      1  C   UNL     1       1.248   9.122  20.001  0.00  0.00    +0.000 A 
ATOM      2  C   UNL     1       1.684   9.263  18.670  0.00  0.00    +0.000 A 
ATOM      3  C   UNL     1       2.304   8.225  17.972  0.00  0.00    +0.000 A 
ATOM      4  C   UNL     1       2.526   6.997  18.615  0.00  0.00    +0.000 A 
ATOM      5  N   UNL     1       3.118   5.881  18.052  0.00  0.00    +0.000 NA
ATOM      6  C   UNL     1       3.200   4.914  18.942  0.00  0.00    +0.000 A 
ATOM      7  S   UNL     1       2.531   5.278  20.486  0.00  0.00    +0.000 S 
ATOM      8  C   UNL     1       2.124   6.856  19.941  0.00  0.00    +0.000 A 
ATOM      9  C   UNL     1       1.485   7.895  20.645  0.00  0.00    +0.000 A 
ENDROOT
BRANCH   1  13
ATOM     10  C   UNL     1      -0.835  12.279  22.108  0.00  0.00    +0.000 A 
ATOM     11  C   UNL     1      -0.209  12.548  20.875  0.00  0.00    +0.000 A 
ATOM     12  C   UNL     1       0.440  11.523  20.170  0.00  0.00    +0.000 A 
ATOM     13  C   UNL     1       0.523  10.218  20.685  0.00  0.00    +0.000 A 
ATOM     14  C   UNL     1      -0.137   9.975  21.900  0.00  0.00    +0.000 A 
ATOM     15  C   UNL     1      -0.856  10.973  22.553  0.00  0.00    +0.000 A 
ATOM     16  F   UNL     1      -1.596  10.591  23.597  0.00  0.00    +0.000 F 
BRANCH  10  20
ATOM     17  C   UNL     1      -3.360  14.829  23.410  0.00  0.00    +0.000 C 
ATOM     18  N   UNL     1      -2.840  13.707  22.651  0.00  0.00    +0.000 N 
ATOM     19  C   UNL     1      -3.810  12.922  21.897  0.00  0.00    +0.000 C 
ATOM     20  C   UNL     1      -1.484  13.404  22.829  0.00  0.00    +0.000 C 
ATOM     21  O   UNL     1      -0.782  14.031  23.626  0.00  0.00    +0.000 OA
ENDBRANCH  10  20
ENDBRANCH   1  13
BRANCH   6  22
ATOM     22  C   UNL     1       3.832   3.591  18.652  0.00  0.00    +0.000 C 
BRANCH  22  23
ATOM     23  C   UNL     1       4.956   3.742  17.615  0.00  0.00    +0.000 C 
ATOM     24  O   UNL     1       4.903   3.231  16.494  0.00  0.00    +0.000 OA
ATOM     25  N   UNL     1       6.077   4.447  17.988  0.00  0.00    +0.000 N 
ATOM     26  H   UNL     1       6.173   4.882  18.903  0.00  0.00    +0.000 HD
BRANCH  25  27
ATOM     27  C   UNL     1       7.160   4.659  17.037  0.00  0.00    +0.000 C 
BRANCH  27  28
ATOM     28  C   UNL     1       6.624   5.121  15.687  0.00  0.00    +0.000 C 
ATOM     29  O   UNL     1       6.099   6.222  15.545  0.00  0.00    +0.000 OA
ATOM     30  N   UNL     1       6.788   4.204  14.666  0.00  0.00    +0.000 N 
ATOM     31  H   UNL     1       7.201   3.301  14.869  0.00  0.00    +0.000 HD
BRANCH  30  32
ATOM     32  C   UNL     1       6.322   4.460  13.340  0.00  0.00    +0.000 C 
ATOM     33  C   UNL     1       7.119   4.005  12.149  0.00  0.00    +0.000 C 
ATOM     34  C   UNL     1       5.813   3.340  12.471  0.00  0.00    +0.000 C 
ENDBRANCH  30  32
ENDBRANCH  27  28
ENDBRANCH  25  27
ENDBRANCH  22  23
BRANCH  22  35
ATOM     35  C   UNL     1       2.792   2.638  18.086  0.00  0.00    +0.000 C 
ATOM     36  N   UNL     1       1.930   1.847  17.617  0.00  0.00    +0.000 NA
ENDBRANCH  22  35
ENDBRANCH   6  22
TORSDOF 8
ENDMDL
MODEL 8
REMARK VINA RESULT:      -8.3      1.336      1.463
REMARK  Name = 
REMARK  10 active torsions:
REMARK  status: ('A' for Active; 'I' for Inactive)
REMARK    1  A    between atoms: C_1  and  N_2
REMARK    2  A    between atoms: N_2  and  C_3
REMARK    3  A    between atoms: C_4  and  C_6
REMARK    4  A    between atoms: C_9  and  C_10
REMARK    5  A    between atoms: C_15  and  C_16
REMARK    6  A    between atoms: C_16  and  C_17
REMARK    7  A    between atoms: C_16  and  C_19
REMARK    8  A    between atoms: N_21  and  C_22
REMARK    9  A    between atoms: C_22  and  C_23
REMARK   10  A    between atoms: N_25  and  C_26
REMARK                            x       y       z     vdW  Elec       q    Type
REMARK                         _______ _______ _______ _____ _____    ______ ____
ROOT
ATOM      1  C   UNL     1       0.699   9.976  19.743  0.00  0.00    +0.000 A 
ATOM      2  C   UNL     1       1.128  10.085  18.407  0.00  0.00    +0.000 A 
ATOM      3  C   UNL     1       1.851   9.074  17.769  0.00  0.00    +0.000 A 
ATOM      4  C   UNL     1       2.187   7.912  18.481  0.00  0.00    +0.000 A 
ATOM      5  N   UNL     1       2.890   6.829  17.982  0.00  0.00    +0.000 NA
ATOM      6  C   UNL     1       3.059   5.926  18.926  0.00  0.00    +0.000 A 
ATOM      7  S   UNL     1       2.348   6.309  20.446  0.00  0.00    +0.000 S 
ATOM      8  C   UNL     1       1.792   7.807  19.812  0.00  0.00    +0.000 A 
ATOM      9  C   UNL     1       1.050   8.816  20.455  0.00  0.00    +0.000 A 
ENDROOT
BRANCH   1  13
ATOM     10  C   UNL     1      -1.835  12.998  21.530  0.00  0.00    +0.000 A 
ATOM     11  C   UNL     1      -0.569  12.721  22.083  0.00  0.00    +0.000 A 
ATOM     12  C   UNL     1       0.271  11.767  21.491  0.00  0.00    +0.000 A 
ATOM     13  C   UNL     1      -0.134  11.032  20.363  0.00  0.00    +0.000 A 
ATOM     14  C   UNL     1      -1.387  11.353  19.817  0.00  0.00    +0.000 A 
ATOM     15  C   UNL     1      -2.181  12.363  20.354  0.00  0.00    +0.000 A 
ATOM     16  F   UNL     1      -3.262  12.711  19.652  0.00  0.00    +0.000 F 
BRANCH  10  20
ATOM     17  C   UNL     1      -4.371  14.693  23.825  0.00  0.00    +0.000 C 
ATOM     18  N   UNL     1      -3.578  13.629  23.238  0.00  0.00    +0.000 N 
ATOM     19  C   UNL     1      -3.669  12.320  23.872  0.00  0.00    +0.000 C 
ATOM     20  C   UNL     1      -2.699  13.996  22.210  0.00  0.00    +0.000 C 
ATOM     21  O   UNL     1      -2.573  15.172  21.858  0.00  0.00    +0.000 OA
ENDBRANCH  10  20
ENDBRANCH   1  13
BRANCH   6  22
ATOM     22  C   UNL     1       3.819   4.658  18.711  0.00  0.00    +0.000 C 
BRANCH  22  23
ATOM     23  C   UNL     1       5.196   4.947  18.094  0.00  0.00    +0.000 C 
ATOM     24  O   UNL     1       5.808   6.000  18.291  0.00  0.00    +0.000 OA
ATOM     25  N   UNL     1       5.734   3.995  17.258  0.00  0.00    +0.000 N 
ATOM     26  H   UNL     1       5.265   3.114  17.058  0.00  0.00    +0.000 HD
BRANCH  25  27
ATOM     27  C   UNL     1       7.054   4.193  16.674  0.00  0.00    +0.000 C 
BRANCH  27  28
ATOM     28  C   UNL     1       6.950   4.614  15.213  0.00  0.00    +0.000 C 
ATOM     29  O   UNL     1       7.483   5.639  14.797  0.00  0.00    +0.000 OA
ATOM     30  N   UNL     1       6.220   3.745  14.422  0.00  0.00    +0.000 N 
ATOM     31  H   UNL     1       5.782   2.936  14.845  0.00  0.00    +0.000 HD
BRANCH  30  32
ATOM     32  C   UNL     1       5.999   3.996  13.033  0.00  0.00    +0.000 C 
ATOM     33  C   UNL     1       7.002   3.546  12.007  0.00  0.00    +0.000 C 
ATOM     34  C   UNL     1       5.665   2.871  12.090  0.00  0.00    +0.000 C 
ENDBRANCH  30  32
ENDBRANCH  27  28
ENDBRANCH  25  27
ENDBRANCH  22  23
BRANCH  22  35
ATOM     35  C   UNL     1       3.054   3.755  17.757  0.00  0.00    +0.000 C 
ATOM     36  N   UNL     1       2.420   3.007  16.965  0.00  0.00    +0.000 NA
ENDBRANCH  22  35
ENDBRANCH   6  22
TORSDOF 8
ENDMDL
MODEL 9
REMARK VINA RESULT:      -8.3      3.723     10.990
REMARK  Name = 
REMARK  10 active torsions:
REMARK  status: ('A' for Active; 'I' for Inactive)
REMARK    1  A    between atoms: C_1  and  N_2
REMARK    2  A    between atoms: N_2  and  C_3
REMARK    3  A    between atoms: C_4  and  C_6
REMARK    4  A    between atoms: C_9  and  C_10
REMARK    5  A    between atoms: C_15  and  C_16
REMARK    6  A    between atoms: C_16  and  C_17
REMARK    7  A    between atoms: C_16  and  C_19
REMARK    8  A    between atoms: N_21  and  C_22
REMARK    9  A    between atoms: C_22  and  C_23
REMARK   10  A    between atoms: N_25  and  C_26
REMARK                            x       y       z     vdW  Elec       q    Type
REMARK                         _______ _______ _______ _____ _____    ______ ____
ROOT
ATOM      1  C   UNL     1       1.339   8.690  20.033  0.00  0.00    +0.000 A 
ATOM      2  C   UNL     1       1.050   8.433  21.386  0.00  0.00    +0.000 A 
ATOM      3  C   UNL     1       0.161   9.219  22.123  0.00  0.00    +0.000 A 
ATOM      4  C   UNL     1      -0.458  10.319  21.510  0.00  0.00    +0.000 A 
ATOM      5  N   UNL     1      -1.362  11.179  22.108  0.00  0.00    +0.000 NA
ATOM      6  C   UNL     1      -1.720  12.121  21.260  0.00  0.00    +0.000 A 
ATOM      7  S   UNL     1      -1.025  11.999  19.690  0.00  0.00    +0.000 S 
ATOM      8  C   UNL     1      -0.157  10.599  20.180  0.00  0.00    +0.000 A 
ATOM      9  C   UNL     1       0.728   9.802  19.429  0.00  0.00    +0.000 A 
ENDROOT
BRANCH   1  13
ATOM     10  C   UNL     1       3.871   5.964  17.819  0.00  0.00    +0.000 A 
ATOM     11  C   UNL     1       3.513   7.206  17.259  0.00  0.00    +0.000 A 
ATOM     12  C   UNL     1       2.719   8.109  17.983  0.00  0.00    +0.000 A 
ATOM     13  C   UNL     1       2.226   7.790  19.260  0.00  0.00    +0.000 A 
ATOM     14  C   UNL     1       2.627   6.559  19.803  0.00  0.00    +0.000 A 
ATOM     15  C   UNL     1       3.487   5.704  19.118  0.00  0.00    +0.000 A 
ATOM     16  F   UNL     1       3.950   4.652  19.798  0.00  0.00    +0.000 F 
BRANCH  10  20
ATOM     17  C   UNL     1       6.748   4.266  15.971  0.00  0.00    +0.000 C 
ATOM     18  N   UNL     1       6.057   5.246  16.788  0.00  0.00    +0.000 N 
ATOM     19  C   UNL     1       6.881   6.268  17.421  0.00  0.00    +0.000 C 
ATOM     20  C   UNL     1       4.688   5.032  17.001  0.00  0.00    +0.000 C 
ATOM     21  O   UNL     1       4.115   4.035  16.555  0.00  0.00    +0.000 OA
ENDBRANCH  10  20
ENDBRANCH   1  13
BRANCH   6  22
ATOM     22  C   UNL     1      -2.656  13.228  21.621  0.00  0.00    +0.000 C 
BRANCH  22  23
ATOM     23  C   UNL     1      -4.074  12.929  21.112  0.00  0.00    +0.000 C 
ATOM     24  O   UNL     1      -4.906  12.309  21.778  0.00  0.00    +0.000 OA
ATOM     25  N   UNL     1      -4.396  13.345  19.840  0.00  0.00    +0.000 N 
ATOM     26  H   UNL     1      -3.744  13.854  19.248  0.00  0.00    +0.000 HD
BRANCH  25  27
ATOM     27  C   UNL     1      -5.738  13.126  19.315  0.00  0.00    +0.000 C 
BRANCH  27  28
ATOM     28  C   UNL     1      -5.724  12.108  18.180  0.00  0.00    +0.000 C 
ATOM     29  O   UNL     1      -6.722  11.456  17.886  0.00  0.00    +0.000 OA
ATOM     30  N   UNL     1      -4.509  12.001  17.529  0.00  0.00    +0.000 N 
ATOM     31  H   UNL     1      -3.721  12.550  17.851  0.00  0.00    +0.000 HD
BRANCH  30  32
ATOM     32  C   UNL     1      -4.307  11.078  16.456  0.00  0.00    +0.000 C 
ATOM     33  C   UNL     1      -3.031  11.100  15.662  0.00  0.00    +0.000 C 
ATOM     34  C   UNL     1      -3.317   9.952  16.584  0.00  0.00    +0.000 C 
ENDBRANCH  30  32
ENDBRANCH  27  28
ENDBRANCH  25  27
ENDBRANCH  22  23
BRANCH  22  35
ATOM     35  C   UNL     1      -2.188  14.526  20.982  0.00  0.00    +0.000 C 
ATOM     36  N   UNL     1      -1.800  15.601  20.452  0.00  0.00    +0.000 NA
ENDBRANCH  22  35
ENDBRANCH   6  22
TORSDOF 8
ENDMDL
