MODEL 1
REMARK VINA RESULT:      -8.4      0.000      0.000
REMARK  Name = 
REMARK  8 active torsions:
REMARK  status: ('A' for Active; 'I' for Inactive)
REMARK    1  A    between atoms: C_1  and  C_2
REMARK    2  A    between atoms: C_7  and  N_8
REMARK    3  A    between atoms: N_8  and  C_9
REMARK    4  A    between atoms: C_9  and  C_10
REMARK    5  A    between atoms: C_14  and  C_15
REMARK    6  A    between atoms: N_22  and  C_23
REMARK    7  A    between atoms: C_23  and  C_24
REMARK    8  A    between atoms: C_24  and  N_25
REMARK                            x       y       z     vdW  Elec       q    Type
REMARK                         _______ _______ _______ _____ _____    ______ ____
ROOT
ATOM      1  C   UNL     1       3.536   1.439  18.309  0.00  0.00    +0.000 C 
ATOM      2  C   UNL     1       3.268   2.911  18.465  0.00  0.00    +0.000 A 
ATOM      3  N   UNL     1       2.455   3.325  19.382  0.00  0.00    +0.000 NA
ATOM      4  C   UNL     1       2.255   4.708  19.502  0.00  0.00    +0.000 A 
ATOM      5  C   UNL     1       1.470   5.145  20.574  0.00  0.00    +0.000 A 
ATOM      6  C   UNL     1       1.236   6.503  20.778  0.00  0.00    +0.000 A 
ATOM      7  C   UNL     1       1.743   7.449  19.889  0.00  0.00    +0.000 A 
ATOM      8  C   UNL     1       2.567   7.009  18.846  0.00  0.00    +0.000 A 
ATOM      9  C   UNL     1       2.826   5.647  18.624  0.00  0.00    +0.000 A 
ATOM     10  N   UNL     1       3.674   5.185  17.558  0.00  0.00    +0.000 N 
ATOM     11  C   UNL     1       4.010   3.834  17.517  0.00  0.00    +0.000 A 
ATOM     12  O   UNL     1       4.853   3.326  16.786  0.00  0.00    +0.000 OA
ENDROOT
BRANCH   7  13
ATOM     13  N   UNL     1       1.487   8.802  20.146  0.00  0.00    +0.000 N 
ATOM     14  H   UNL     1       2.116   9.150  20.869  0.00  0.00    +0.000 HD
BRANCH  13  15
ATOM     15  C   UNL     1       1.443   9.715  19.004  0.00  0.00    +0.000 C 
BRANCH  15  16
ATOM     16  C   UNL     1       0.070  10.338  18.930  0.00  0.00    +0.000 A 
ATOM     17  C   UNL     1      -0.437  11.104  19.985  0.00  0.00    +0.000 A 
ATOM     18  C   UNL     1      -1.704  11.682  19.892  0.00  0.00    +0.000 A 
ATOM     19  C   UNL     1      -2.480  11.493  18.746  0.00  0.00    +0.000 A 
ATOM     20  C   UNL     1      -1.994  10.728  17.676  0.00  0.00    +0.000 A 
ATOM     21  C   UNL     1      -0.710  10.173  17.774  0.00  0.00    +0.000 A 
BRANCH  20  22
ATOM     22  C   UNL     1      -2.824  10.474  16.444  0.00  0.00    +0.000 C 
ATOM     23  F   UNL     1      -2.683  11.436  15.487  0.00  0.00    +0.000 F 
ATOM     24  F   UNL     1      -2.515   9.295  15.835  0.00  0.00    +0.000 F 
ATOM     25  F   UNL     1      -4.158  10.418  16.715  0.00  0.00    +0.000 F 
ENDBRANCH  20  22
ENDBRANCH  15  16
ENDBRANCH  13  15
ENDBRANCH   7  13
BRANCH  10  26
ATOM     26  C   UNL     1       4.391   6.148  16.702  0.00  0.00    +0.000 C 
BRANCH  26  27
ATOM     27  C   UNL     1       5.641   6.823  17.300  0.00  0.00    +0.000 C 
BRANCH  27  28
ATOM     28  N   UNL     1       6.641   5.877  17.783  0.00  0.00    +0.000 N 
ATOM     29  C   UNL     1       7.415   5.149  16.933  0.00  0.00    +0.000 C 
ATOM     30  N   UNL     1       8.091   4.162  17.573  0.00  0.00    +0.000 N 
ATOM     31  O   UNL     1       7.512   5.324  15.728  0.00  0.00    +0.000 OA
ATOM     32  H   UNL     1       6.438   5.432  18.667  0.00  0.00    +0.000 HD
ATOM     33  H   UNL     1       8.318   4.267  18.551  0.00  0.00    +0.000 HD
ATOM     34  H   UNL     1       8.766   3.669  17.005  0.00  0.00    +0.000 HD
ENDBRANCH  27  28
ENDBRANCH  26  27
ENDBRANCH  10  26
TORSDOF 7
ENDMDL
MODEL 2
REMARK VINA RESULT:      -8.3      1.386      1.694
REMARK  Name = 
REMARK  8 active torsions:
REMARK  status: ('A' for Active; 'I' for Inactive)
REMARK    1  A    between atoms: C_1  and  C_2
REMARK    2  A    between atoms: C_7  and  N_8
REMARK    3  A    between atoms: N_8  and  C_9
REMARK    4  A    between atoms: C_9  and  C_10
REMARK    5  A    between atoms: C_14  and  C_15
REMARK    6  A    between atoms: N_22  and  C_23
REMARK    7  A    between atoms: C_23  and  C_24
REMARK    8  A    between atoms: C_24  and  N_25
REMARK                            x       y       z     vdW  Elec       q    Type
REMARK                         _______ _______ _______ _____ _____    ______ ____
ROOT
ATOM      1  C   UNL     1       2.782   2.427  21.556  0.00  0.00    +0.000 C 
ATOM      2  C   UNL     1       2.701   3.617  20.641  0.00  0.00    +0.000 A 
ATOM      3  N   UNL     1       2.197   4.729  21.070  0.00  0.00    +0.000 NA
ATOM      4  C   UNL     1       2.165   5.817  20.186  0.00  0.00    +0.000 A 
ATOM      5  C   UNL     1       1.731   7.041  20.703  0.00  0.00    +0.000 A 
ATOM      6  C   UNL     1       1.685   8.177  19.898  0.00  0.00    +0.000 A 
ATOM      7  C   UNL     1       2.028   8.103  18.549  0.00  0.00    +0.000 A 
ATOM      8  C   UNL     1       2.507   6.885  18.050  0.00  0.00    +0.000 A 
ATOM      9  C   UNL     1       2.572   5.728  18.842  0.00  0.00    +0.000 A 
ATOM     10  N   UNL     1       3.066   4.475  18.340  0.00  0.00    +0.000 N 
ATOM     11  C   UNL     1       3.253   3.428  19.241  0.00  0.00    +0.000 A 
ATOM     12  O   UNL     1       3.826   2.370  19.002  0.00  0.00    +0.000 OA
ENDROOT
BRANCH   7  13
ATOM     13  N   UNL     1       1.974   9.276  17.787  0.00  0.00    +0.000 N 
ATOM     14  H   UNL     1       1.240   9.208  17.084  0.00  0.00    +0.000 HD
BRANCH  13  15
ATOM     15  C   UNL     1       1.901  10.550  18.502  0.00  0.00    +0.000 C 
BRANCH  15  16
ATOM     16  C   UNL     1       0.449  10.914  18.704  0.00  0.00    +0.000 A 
ATOM     17  C   UNL     1       0.064  11.850  19.669  0.00  0.00    +0.000 A 
ATOM     18  C   UNL     1      -1.282  12.182  19.831  0.00  0.00    +0.000 A 
ATOM     19  C   UNL     1      -2.257  11.575  19.035  0.00  0.00    +0.000 A 
ATOM     20  C   UNL     1      -1.894  10.633  18.062  0.00  0.00    +0.000 A 
ATOM     21  C   UNL     1      -0.536  10.327  17.894  0.00  0.00    +0.000 A 
BRANCH  20  22
ATOM     22  C   UNL     1      -2.926   9.933  17.215  0.00  0.00    +0.000 C 
ATOM     23  F   UNL     1      -3.912  10.762  16.764  0.00  0.00    +0.000 F 
ATOM     24  F   UNL     1      -2.391   9.354  16.105  0.00  0.00    +0.000 F 
ATOM     25  F   UNL     1      -3.564   8.936  17.888  0.00  0.00    +0.000 F 
ENDBRANCH  20  22
ENDBRANCH  15  16
ENDBRANCH  13  15
ENDBRANCH   7  13
BRANCH  10  26
ATOM     26  C   UNL     1       3.622   4.381  16.978  0.00  0.00    +0.000 C 
BRANCH  26  27
ATOM     27  C   UNL     1       5.153   4.261  16.852  0.00  0.00    +0.000 C 
BRANCH  27  28
ATOM     28  N   UNL     1       5.882   4.972  17.896  0.00  0.00    +0.000 N 
ATOM     29  C   UNL     1       7.233   4.866  18.032  0.00  0.00    +0.000 C 
ATOM     30  N   UNL     1       7.674   5.396  19.200  0.00  0.00    +0.000 N 
ATOM     31  O   UNL     1       7.994   4.356  17.225  0.00  0.00    +0.000 OA
ATOM     32  H   UNL     1       5.376   5.137  18.754  0.00  0.00    +0.000 HD
ATOM     33  H   UNL     1       7.144   6.132  19.644  0.00  0.00    +0.000 HD
ATOM     34  H   UNL     1       8.679   5.446  19.294  0.00  0.00    +0.000 HD
ENDBRANCH  27  28
ENDBRANCH  26  27
ENDBRANCH  10  26
TORSDOF 7
ENDMDL
MODEL 3
REMARK VINA RESULT:      -8.2      1.788      3.629
REMARK  Name = 
REMARK  8 active torsions:
REMARK  status: ('A' for Active; 'I' for Inactive)
REMARK    1  A    between atoms: C_1  and  C_2
REMARK    2  A    between atoms: C_7  and  N_8
REMARK    3  A    between atoms: N_8  and  C_9
REMARK    4  A    between atoms: C_9  and  C_10
REMARK    5  A    between atoms: C_14  and  C_15
REMARK    6  A    between atoms: N_22  and  C_23
REMARK    7  A    between atoms: C_23  and  C_24
REMARK    8  A    between atoms: C_24  and  N_25
REMARK                            x       y       z     vdW  Elec       q    Type
REMARK                         _______ _______ _______ _____ _____    ______ ____
ROOT
ATOM      1  C   UNL     1       5.699   4.370  16.814  0.00  0.00    +0.000 C 
ATOM      2  C   UNL     1       4.718   5.159  17.636  0.00  0.00    +0.000 A 
ATOM      3  N   UNL     1       4.346   6.335  17.244  0.00  0.00    +0.000 NA
ATOM      4  C   UNL     1       3.413   7.023  18.032  0.00  0.00    +0.000 A 
ATOM      5  C   UNL     1       2.931   8.236  17.531  0.00  0.00    +0.000 A 
ATOM      6  C   UNL     1       1.988   8.975  18.242  0.00  0.00    +0.000 A 
ATOM      7  C   UNL     1       1.541   8.540  19.489  0.00  0.00    +0.000 A 
ATOM      8  C   UNL     1       1.992   7.301  19.963  0.00  0.00    +0.000 A 
ATOM      9  C   UNL     1       2.935   6.533  19.262  0.00  0.00    +0.000 A 
ATOM     10  N   UNL     1       3.400   5.258  19.737  0.00  0.00    +0.000 N 
ATOM     11  C   UNL     1       4.204   4.490  18.897  0.00  0.00    +0.000 A 
ATOM     12  O   UNL     1       4.530   3.324  19.085  0.00  0.00    +0.000 OA
ENDROOT
BRANCH   7  13
ATOM     13  N   UNL     1       0.586   9.315  20.157  0.00  0.00    +0.000 N 
ATOM     14  H   UNL     1       0.624   9.136  21.160  0.00  0.00    +0.000 HD
BRANCH  13  15
ATOM     15  C   UNL     1       0.559  10.751  19.880  0.00  0.00    +0.000 C 
BRANCH  15  16
ATOM     16  C   UNL     1      -0.815  11.126  19.379  0.00  0.00    +0.000 A 
ATOM     17  C   UNL     1      -1.676  11.919  20.145  0.00  0.00    +0.000 A 
ATOM     18  C   UNL     1      -2.937  12.265  19.658  0.00  0.00    +0.000 A 
ATOM     19  C   UNL     1      -3.353  11.815  18.403  0.00  0.00    +0.000 A 
ATOM     20  C   UNL     1      -2.509  11.018  17.618  0.00  0.00    +0.000 A 
ATOM     21  C   UNL     1      -1.236  10.698  18.109  0.00  0.00    +0.000 A 
BRANCH  20  22
ATOM     22  C   UNL     1      -2.946  10.485  16.277  0.00  0.00    +0.000 C 
ATOM     23  F   UNL     1      -2.451   9.246  15.997  0.00  0.00    +0.000 F 
ATOM     24  F   UNL     1      -4.300  10.377  16.169  0.00  0.00    +0.000 F 
ATOM     25  F   UNL     1      -2.551  11.281  15.245  0.00  0.00    +0.000 F 
ENDBRANCH  20  22
ENDBRANCH  15  16
ENDBRANCH  13  15
ENDBRANCH   7  13
BRANCH  10  26
ATOM     26  C   UNL     1       2.824   4.657  20.954  0.00  0.00    +0.000 C 
BRANCH  26  27
ATOM     27  C   UNL     1       1.392   4.097  20.847  0.00  0.00    +0.000 C 
BRANCH  27  28
ATOM     28  N   UNL     1       1.316   2.816  20.154  0.00  0.00    +0.000 N 
ATOM     29  C   UNL     1       1.000   2.729  18.833  0.00  0.00    +0.000 C 
ATOM     30  N   UNL     1       0.739   1.454  18.450  0.00  0.00    +0.000 N 
ATOM     31  O   UNL     1       0.939   3.665  18.050  0.00  0.00    +0.000 OA
ATOM     32  H   UNL     1       1.035   2.025  20.715  0.00  0.00    +0.000 HD
ATOM     33  H   UNL     1       1.160   0.687  18.954  0.00  0.00    +0.000 HD
ATOM     34  H   UNL     1       0.613   1.323  17.456  0.00  0.00    +0.000 HD
ENDBRANCH  27  28
ENDBRANCH  26  27
ENDBRANCH  10  26
TORSDOF 7
ENDMDL
MODEL 4
REMARK VINA RESULT:      -8.2      5.238      9.257
REMARK  Name = 
REMARK  8 active torsions:
REMARK  status: ('A' for Active; 'I' for Inactive)
REMARK    1  A    between atoms: C_1  and  C_2
REMARK    2  A    between atoms: C_7  and  N_8
REMARK    3  A    between atoms: N_8  and  C_9
REMARK    4  A    between atoms: C_9  and  C_10
REMARK    5  A    between atoms: C_14  and  C_15
REMARK    6  A    between atoms: N_22  and  C_23
REMARK    7  A    between atoms: C_23  and  C_24
REMARK    8  A    between atoms: C_24  and  N_25
REMARK                            x       y       z     vdW  Elec       q    Type
REMARK                         _______ _______ _______ _____ _____    ______ ____
ROOT
ATOM      1  C   UNL     1      -3.082  13.210  23.716  0.00  0.00    +0.000 C 
ATOM      2  C   UNL     1      -2.207  12.371  22.826  0.00  0.00    +0.000 A 
ATOM      3  N   UNL     1      -1.472  11.437  23.338  0.00  0.00    +0.000 NA
ATOM      4  C   UNL     1      -0.691  10.667  22.465  0.00  0.00    +0.000 A 
ATOM      5  C   UNL     1       0.001   9.585  23.019  0.00  0.00    +0.000 A 
ATOM      6  C   UNL     1       0.786   8.757  22.219  0.00  0.00    +0.000 A 
ATOM      7  C   UNL     1       0.932   9.020  20.859  0.00  0.00    +0.000 A 
ATOM      8  C   UNL     1       0.199  10.076  20.302  0.00  0.00    +0.000 A 
ATOM      9  C   UNL     1      -0.606  10.919  21.083  0.00  0.00    +0.000 A 
ATOM     10  N   UNL     1      -1.366  12.002  20.520  0.00  0.00    +0.000 N 
ATOM     11  C   UNL     1      -2.266  12.678  21.342  0.00  0.00    +0.000 A 
ATOM     12  O   UNL     1      -3.102  13.495  20.971  0.00  0.00    +0.000 OA
ENDROOT
BRANCH   7  13
ATOM     13  N   UNL     1       1.725   8.152  20.099  0.00  0.00    +0.000 N 
ATOM     14  H   UNL     1       2.650   8.553  19.952  0.00  0.00    +0.000 HD
BRANCH  13  15
ATOM     15  C   UNL     1       1.820   6.759  20.535  0.00  0.00    +0.000 C 
BRANCH  15  16
ATOM     16  C   UNL     1       2.465   5.947  19.438  0.00  0.00    +0.000 A 
ATOM     17  C   UNL     1       3.234   6.556  18.441  0.00  0.00    +0.000 A 
ATOM     18  C   UNL     1       3.833   5.785  17.443  0.00  0.00    +0.000 A 
ATOM     19  C   UNL     1       3.662   4.399  17.428  0.00  0.00    +0.000 A 
ATOM     20  C   UNL     1       2.894   3.767  18.415  0.00  0.00    +0.000 A 
ATOM     21  C   UNL     1       2.318   4.550  19.426  0.00  0.00    +0.000 A 
BRANCH  20  22
ATOM     22  C   UNL     1       2.660   2.277  18.402  0.00  0.00    +0.000 C 
ATOM     23  F   UNL     1       3.722   1.556  18.862  0.00  0.00    +0.000 F 
ATOM     24  F   UNL     1       1.597   1.905  19.170  0.00  0.00    +0.000 F 
ATOM     25  F   UNL     1       2.404   1.801  17.152  0.00  0.00    +0.000 F 
ENDBRANCH  20  22
ENDBRANCH  15  16
ENDBRANCH  13  15
ENDBRANCH   7  13
BRANCH  10  26
ATOM     26  C   UNL     1      -1.401  12.212  19.062  0.00  0.00    +0.000 C 
BRANCH  26  27
ATOM     27  C   UNL     1      -2.599  11.615  18.296  0.00  0.00    +0.000 C 
BRANCH  27  28
ATOM     28  N   UNL     1      -2.309  11.317  16.899  0.00  0.00    +0.000 N 
ATOM     29  C   UNL     1      -3.284  10.953  16.022  0.00  0.00    +0.000 C 
ATOM     30  N   UNL     1      -2.775  10.483  14.855  0.00  0.00    +0.000 N 
ATOM     31  O   UNL     1      -4.487  11.018  16.223  0.00  0.00    +0.000 OA
ATOM     32  H   UNL     1      -1.395  10.931  16.709  0.00  0.00    +0.000 HD
ATOM     33  H   UNL     1      -1.864  10.791  14.549  0.00  0.00    +0.000 HD
ATOM     34  H   UNL     1      -3.458  10.308  14.130  0.00  0.00    +0.000 HD
ENDBRANCH  27  28
ENDBRANCH  26  27
ENDBRANCH  10  26
TORSDOF 7
ENDMDL
MODEL 5
REMARK VINA RESULT:      -8.1      5.171      9.316
REMARK  Name = 
REMARK  8 active torsions:
REMARK  status: ('A' for Active; 'I' for Inactive)
REMARK    1  A    between atoms: C_1  and  C_2
REMARK    2  A    between atoms: C_7  and  N_8
REMARK    3  A    between atoms: N_8  and  C_9
REMARK    4  A    between atoms: C_9  and  C_10
REMARK    5  A    between atoms: C_14  and  C_15
REMARK    6  A    between atoms: N_22  and  C_23
REMARK    7  A    between atoms: C_23  and  C_24
REMARK    8  A    between atoms: C_24  and  N_25
REMARK                            x       y       z     vdW  Elec       q    Type
REMARK                         _______ _______ _______ _____ _____    ______ ____
ROOT
ATOM      1  C   UNL     1      -1.654  12.058  23.233  0.00  0.00    +0.000 C 
ATOM      2  C   UNL     1      -0.945  11.373  22.098  0.00  0.00    +0.000 A 
ATOM      3  N   UNL     1      -0.187  10.350  22.333  0.00  0.00    +0.000 NA
ATOM      4  C   UNL     1       0.435   9.732  21.240  0.00  0.00    +0.000 A 
ATOM      5  C   UNL     1       1.149   8.558  21.497  0.00  0.00    +0.000 A 
ATOM      6  C   UNL     1       1.783   7.869  20.464  0.00  0.00    +0.000 A 
ATOM      7  C   UNL     1       1.754   8.364  19.162  0.00  0.00    +0.000 A 
ATOM      8  C   UNL     1       0.998   9.514  18.903  0.00  0.00    +0.000 A 
ATOM      9  C   UNL     1       0.342  10.221  19.924  0.00  0.00    +0.000 A 
ATOM     10  N   UNL     1      -0.441  11.400  19.667  0.00  0.00    +0.000 N 
ATOM     11  C   UNL     1      -1.192  11.937  20.711  0.00  0.00    +0.000 A 
ATOM     12  O   UNL     1      -2.035  12.821  20.608  0.00  0.00    +0.000 OA
ENDROOT
BRANCH   7  13
ATOM     13  N   UNL     1       2.399   7.629  18.160  0.00  0.00    +0.000 N 
ATOM     14  H   UNL     1       3.346   7.977  18.019  0.00  0.00    +0.000 HD
BRANCH  13  15
ATOM     15  C   UNL     1       2.386   6.171  18.271  0.00  0.00    +0.000 C 
BRANCH  15  16
ATOM     16  C   UNL     1       3.806   5.663  18.198  0.00  0.00    +0.000 A 
ATOM     17  C   UNL     1       4.601   5.563  19.345  0.00  0.00    +0.000 A 
ATOM     18  C   UNL     1       5.907   5.079  19.257  0.00  0.00    +0.000 A 
ATOM     19  C   UNL     1       6.434   4.698  18.022  0.00  0.00    +0.000 A 
ATOM     20  C   UNL     1       5.657   4.791  16.858  0.00  0.00    +0.000 A 
ATOM     21  C   UNL     1       4.339   5.256  16.964  0.00  0.00    +0.000 A 
BRANCH  20  22
ATOM     22  C   UNL     1       6.212   4.424  15.505  0.00  0.00    +0.000 C 
ATOM     23  F   UNL     1       5.982   3.126  15.157  0.00  0.00    +0.000 F 
ATOM     24  F   UNL     1       5.686   5.177  14.499  0.00  0.00    +0.000 F 
ATOM     25  F   UNL     1       7.562   4.592  15.432  0.00  0.00    +0.000 F 
ENDBRANCH  20  22
ENDBRANCH  15  16
ENDBRANCH  13  15
ENDBRANCH   7  13
BRANCH  10  26
ATOM     26  C   UNL     1      -0.665  11.864  18.286  0.00  0.00    +0.000 C 
BRANCH  26  27
ATOM     27  C   UNL     1      -1.848  11.239  17.520  0.00  0.00    +0.000 C 
BRANCH  27  28
ATOM     28  N   UNL     1      -3.100  11.967  17.684  0.00  0.00    +0.000 N 
ATOM     29  C   UNL     1      -4.220  11.643  16.982  0.00  0.00    +0.000 C 
ATOM     30  N   UNL     1      -5.187  12.588  17.093  0.00  0.00    +0.000 N 
ATOM     31  O   UNL     1      -4.376  10.633  16.312  0.00  0.00    +0.000 OA
ATOM     32  H   UNL     1      -3.015  12.943  17.928  0.00  0.00    +0.000 HD
ATOM     33  H   UNL     1      -5.218  13.175  17.913  0.00  0.00    +0.000 HD
ATOM     34  H   UNL     1      -6.078  12.338  16.685  0.00  0.00    +0.000 HD
ENDBRANCH  27  28
ENDBRANCH  26  27
ENDBRANCH  10  26
TORSDOF 7
ENDMDL
MODEL 6
REMARK VINA RESULT:      -8.1      1.315      1.828
REMARK  Name = 
REMARK  8 active torsions:
REMARK  status: ('A' for Active; 'I' for Inactive)
REMARK    1  A    between atoms: C_1  and  C_2
REMARK    2  A    between atoms: C_7  and  N_8
REMARK    3  A    between atoms: N_8  and  C_9
REMARK    4  A    between atoms: C_9  and  C_10
REMARK    5  A    between atoms: C_14  and  C_15
REMARK    6  A    between atoms: N_22  and  C_23
REMARK    7  A    between atoms: C_23  and  C_24
REMARK    8  A    between atoms: C_24  and  N_25
REMARK                            x       y       z     vdW  Elec       q    Type
REMARK                         _______ _______ _______ _____ _____    ______ ____
ROOT
ATOM      1  C   UNL     1       2.414   2.547  21.744  0.00  0.00    +0.000 C 
ATOM      2  C   UNL     1       2.412   3.742  20.832  0.00  0.00    +0.000 A 
ATOM      3  N   UNL     1       1.905   4.861  21.236  0.00  0.00    +0.000 NA
ATOM      4  C   UNL     1       1.947   5.953  20.357  0.00  0.00    +0.000 A 
ATOM      5  C   UNL     1       1.506   7.184  20.853  0.00  0.00    +0.000 A 
ATOM      6  C   UNL     1       1.532   8.324  20.053  0.00  0.00    +0.000 A 
ATOM      7  C   UNL     1       1.955   8.249  18.727  0.00  0.00    +0.000 A 
ATOM      8  C   UNL     1       2.439   7.023  18.251  0.00  0.00    +0.000 A 
ATOM      9  C   UNL     1       2.434   5.862  19.040  0.00  0.00    +0.000 A 
ATOM     10  N   UNL     1       2.933   4.601  18.563  0.00  0.00    +0.000 N 
ATOM     11  C   UNL     1       3.045   3.547  19.467  0.00  0.00    +0.000 A 
ATOM     12  O   UNL     1       3.610   2.479  19.258  0.00  0.00    +0.000 OA
ENDROOT
BRANCH   7  13
ATOM     13  N   UNL     1       1.970   9.426  17.969  0.00  0.00    +0.000 N 
ATOM     14  H   UNL     1       1.352   9.336  17.163  0.00  0.00    +0.000 HD
BRANCH  13  15
ATOM     15  C   UNL     1       1.740  10.689  18.669  0.00  0.00    +0.000 C 
BRANCH  15  16
ATOM     16  C   UNL     1       0.254  10.952  18.727  0.00  0.00    +0.000 A 
ATOM     17  C   UNL     1      -0.336  11.529  19.857  0.00  0.00    +0.000 A 
ATOM     18  C   UNL     1      -1.710  11.775  19.886  0.00  0.00    +0.000 A 
ATOM     19  C   UNL     1      -2.507  11.440  18.789  0.00  0.00    +0.000 A 
ATOM     20  C   UNL     1      -1.938  10.859  17.647  0.00  0.00    +0.000 A 
ATOM     21  C   UNL     1      -0.554  10.639  17.622  0.00  0.00    +0.000 A 
BRANCH  20  22
ATOM     22  C   UNL     1      -2.779  10.451  16.464  0.00  0.00    +0.000 C 
ATOM     23  F   UNL     1      -2.556   9.169  16.055  0.00  0.00    +0.000 F 
ATOM     24  F   UNL     1      -4.116  10.533  16.715  0.00  0.00    +0.000 F 
ATOM     25  F   UNL     1      -2.555  11.231  15.371  0.00  0.00    +0.000 F 
ENDBRANCH  20  22
ENDBRANCH  15  16
ENDBRANCH  13  15
ENDBRANCH   7  13
BRANCH  10  26
ATOM     26  C   UNL     1       3.568   4.502  17.236  0.00  0.00    +0.000 C 
BRANCH  26  27
ATOM     27  C   UNL     1       5.102   4.352  17.202  0.00  0.00    +0.000 C 
BRANCH  27  28
ATOM     28  N   UNL     1       5.803   5.588  16.877  0.00  0.00    +0.000 N 
ATOM     29  C   UNL     1       7.125   5.604  16.552  0.00  0.00    +0.000 C 
ATOM     30  N   UNL     1       7.634   6.861  16.532  0.00  0.00    +0.000 N 
ATOM     31  O   UNL     1       7.811   4.624  16.305  0.00  0.00    +0.000 OA
ATOM     32  H   UNL     1       5.464   6.422  17.335  0.00  0.00    +0.000 HD
ATOM     33  H   UNL     1       7.023   7.642  16.342  0.00  0.00    +0.000 HD
ATOM     34  H   UNL     1       8.580   6.934  16.184  0.00  0.00    +0.000 HD
ENDBRANCH  27  28
ENDBRANCH  26  27
ENDBRANCH  10  26
TORSDOF 7
ENDMDL
MODEL 7
REMARK VINA RESULT:      -8.0      4.975      9.189
REMARK  Name = 
REMARK  8 active torsions:
REMARK  status: ('A' for Active; 'I' for Inactive)
REMARK    1  A    between atoms: C_1  and  C_2
REMARK    2  A    between atoms: C_7  and  N_8
REMARK    3  A    between atoms: N_8  and  C_9
REMARK    4  A    between atoms: C_9  and  C_10
REMARK    5  A    between atoms: C_14  and  C_15
REMARK    6  A    between atoms: N_22  and  C_23
REMARK    7  A    between atoms: C_23  and  C_24
REMARK    8  A    between atoms: C_24  and  N_25
REMARK                            x       y       z     vdW  Elec       q    Type
REMARK                         _______ _______ _______ _____ _____    ______ ____
ROOT
ATOM      1  C   UNL     1      -3.227  13.118  22.820  0.00  0.00    +0.000 C 
ATOM      2  C   UNL     1      -2.258  12.219  22.104  0.00  0.00    +0.000 A 
ATOM      3  N   UNL     1      -1.497  11.420  22.780  0.00  0.00    +0.000 NA
ATOM      4  C   UNL     1      -0.627  10.585  22.067  0.00  0.00    +0.000 A 
ATOM      5  C   UNL     1       0.097   9.644  22.804  0.00  0.00    +0.000 A 
ATOM      6  C   UNL     1       0.972   8.762  22.171  0.00  0.00    +0.000 A 
ATOM      7  C   UNL     1       1.175   8.834  20.795  0.00  0.00    +0.000 A 
ATOM      8  C   UNL     1       0.411   9.747  20.056  0.00  0.00    +0.000 A 
ATOM      9  C   UNL     1      -0.483  10.639  20.668  0.00  0.00    +0.000 A 
ATOM     10  N   UNL     1      -1.274  11.576  19.917  0.00  0.00    +0.000 N 
ATOM     11  C   UNL     1      -2.256  12.303  20.589  0.00  0.00    +0.000 A 
ATOM     12  O   UNL     1      -3.118  13.000  20.065  0.00  0.00    +0.000 OA
ENDROOT
BRANCH   7  13
ATOM     13  N   UNL     1       2.056   7.919  20.207  0.00  0.00    +0.000 N 
ATOM     14  H   UNL     1       2.104   7.067  20.764  0.00  0.00    +0.000 HD
BRANCH  13  15
ATOM     15  C   UNL     1       1.873   7.610  18.790  0.00  0.00    +0.000 C 
BRANCH  15  16
ATOM     16  C   UNL     1       2.676   6.378  18.450  0.00  0.00    +0.000 A 
ATOM     17  C   UNL     1       4.014   6.471  18.052  0.00  0.00    +0.000 A 
ATOM     18  C   UNL     1       4.742   5.319  17.753  0.00  0.00    +0.000 A 
ATOM     19  C   UNL     1       4.138   4.063  17.843  0.00  0.00    +0.000 A 
ATOM     20  C   UNL     1       2.799   3.945  18.239  0.00  0.00    +0.000 A 
ATOM     21  C   UNL     1       2.085   5.109  18.558  0.00  0.00    +0.000 A 
BRANCH  20  22
ATOM     22  C   UNL     1       2.109   2.606  18.307  0.00  0.00    +0.000 C 
ATOM     23  F   UNL     1       2.508   1.842  19.364  0.00  0.00    +0.000 F 
ATOM     24  F   UNL     1       0.756   2.716  18.418  0.00  0.00    +0.000 F 
ATOM     25  F   UNL     1       2.333   1.846  17.198  0.00  0.00    +0.000 F 
ENDBRANCH  20  22
ENDBRANCH  15  16
ENDBRANCH  13  15
ENDBRANCH   7  13
BRANCH  10  26
ATOM     26  C   UNL     1      -1.245  11.570  18.444  0.00  0.00    +0.000 C 
BRANCH  26  27
ATOM     27  C   UNL     1      -2.149  10.547  17.729  0.00  0.00    +0.000 C 
BRANCH  27  28
ATOM     28  N   UNL     1      -3.563  10.904  17.748  0.00  0.00    +0.000 N 
ATOM     29  C   UNL     1      -4.248  11.200  16.609  0.00  0.00    +0.000 C 
ATOM     30  N   UNL     1      -5.464  11.742  16.867  0.00  0.00    +0.000 N 
ATOM     31  O   UNL     1      -3.848  11.022  15.469  0.00  0.00    +0.000 OA
ATOM     32  H   UNL     1      -3.888  11.376  18.579  0.00  0.00    +0.000 HD
ATOM     33  H   UNL     1      -5.931  11.525  17.736  0.00  0.00    +0.000 HD
ATOM     34  H   UNL     1      -6.055  11.872  16.058  0.00  0.00    +0.000 HD
ENDBRANCH  27  28
ENDBRANCH  26  27
ENDBRANCH  10  26
TORSDOF 7
ENDMDL
MODEL 8
REMARK VINA RESULT:      -8.0      1.876      2.461
REMARK  Name = 
REMARK  8 active torsions:
REMARK  status: ('A' for Active; 'I' for Inactive)
REMARK    1  A    between atoms: C_1  and  C_2
REMARK    2  A    between atoms: C_7  and  N_8
REMARK    3  A    between atoms: N_8  and  C_9
REMARK    4  A    between atoms: C_9  and  C_10
REMARK    5  A    between atoms: C_14  and  C_15
REMARK    6  A    between atoms: N_22  and  C_23
REMARK    7  A    between atoms: C_23  and  C_24
REMARK    8  A    between atoms: C_24  and  N_25
REMARK                            x       y       z     vdW  Elec       q    Type
REMARK                         _______ _______ _______ _____ _____    ______ ____
ROOT
ATOM      1  C   UNL     1       2.734   3.030  21.243  0.00  0.00    +0.000 C 
ATOM      2  C   UNL     1       2.581   4.364  20.566  0.00  0.00    +0.000 A 
ATOM      3  N   UNL     1       1.849   5.283  21.107  0.00  0.00    +0.000 NA
ATOM      4  C   UNL     1       1.756   6.517  20.450  0.00  0.00    +0.000 A 
ATOM      5  C   UNL     1       1.062   7.537  21.108  0.00  0.00    +0.000 A 
ATOM      6  C   UNL     1       0.938   8.800  20.533  0.00  0.00    +0.000 A 
ATOM      7  C   UNL     1       1.465   9.057  19.270  0.00  0.00    +0.000 A 
ATOM      8  C   UNL     1       2.200   8.047  18.636  0.00  0.00    +0.000 A 
ATOM      9  C   UNL     1       2.348   6.768  19.198  0.00  0.00    +0.000 A 
ATOM     10  N   UNL     1       3.104   5.727  18.558  0.00  0.00    +0.000 N 
ATOM     11  C   UNL     1       3.339   4.548  19.264  0.00  0.00    +0.000 A 
ATOM     12  O   UNL     1       4.104   3.651  18.929  0.00  0.00    +0.000 OA
ENDROOT
BRANCH   7  13
ATOM     13  N   UNL     1       1.321  10.346  18.742  0.00  0.00    +0.000 N 
ATOM     14  H   UNL     1       1.288  10.310  17.724  0.00  0.00    +0.000 HD
BRANCH  13  15
ATOM     15  C   UNL     1       0.247  11.183  19.274  0.00  0.00    +0.000 C 
BRANCH  15  16
ATOM     16  C   UNL     1      -1.024  10.887  18.515  0.00  0.00    +0.000 A 
ATOM     17  C   UNL     1      -1.029  10.016  17.421  0.00  0.00    +0.000 A 
ATOM     18  C   UNL     1      -2.218   9.746  16.741  0.00  0.00    +0.000 A 
ATOM     19  C   UNL     1      -3.411  10.350  17.143  0.00  0.00    +0.000 A 
ATOM     20  C   UNL     1      -3.430  11.227  18.236  0.00  0.00    +0.000 A 
ATOM     21  C   UNL     1      -2.234  11.471  18.925  0.00  0.00    +0.000 A 
BRANCH  20  22
ATOM     22  C   UNL     1      -4.695  11.924  18.669  0.00  0.00    +0.000 C 
ATOM     23  F   UNL     1      -4.507  12.806  19.693  0.00  0.00    +0.000 F 
ATOM     24  F   UNL     1      -5.273  12.640  17.664  0.00  0.00    +0.000 F 
ATOM     25  F   UNL     1      -5.648  11.053  19.104  0.00  0.00    +0.000 F 
ENDBRANCH  20  22
ENDBRANCH  15  16
ENDBRANCH  13  15
ENDBRANCH   7  13
BRANCH  10  26
ATOM     26  C   UNL     1       3.844   5.996  17.312  0.00  0.00    +0.000 C 
BRANCH  26  27
ATOM     27  C   UNL     1       5.331   6.379  17.448  0.00  0.00    +0.000 C 
BRANCH  27  28
ATOM     28  N   UNL     1       6.235   5.235  17.410  0.00  0.00    +0.000 N 
ATOM     29  C   UNL     1       7.392   5.206  18.126  0.00  0.00    +0.000 C 
ATOM     30  N   UNL     1       8.197   4.178  17.759  0.00  0.00    +0.000 N 
ATOM     31  O   UNL     1       7.711   5.998  18.999  0.00  0.00    +0.000 OA
ATOM     32  H   UNL     1       6.252   4.715  16.544  0.00  0.00    +0.000 HD
ATOM     33  H   UNL     1       7.790   3.344  17.361  0.00  0.00    +0.000 HD
ATOM     34  H   UNL     1       9.014   4.046  18.340  0.00  0.00    +0.000 HD
ENDBRANCH  27  28
ENDBRANCH  26  27
ENDBRANCH  10  26
TORSDOF 7
ENDMDL
MODEL 9
REMARK VINA RESULT:      -8.0      4.898      9.096
REMARK  Name = 
REMARK  8 active torsions:
REMARK  status: ('A' for Active; 'I' for Inactive)
REMARK    1  A    between atoms: C_1  and  C_2
REMARK    2  A    between atoms: C_7  and  N_8
REMARK    3  A    between atoms: N_8  and  C_9
REMARK    4  A    between atoms: C_9  and  C_10
REMARK    5  A    between atoms: C_14  and  C_15
REMARK    6  A    between atoms: N_22  and  C_23
REMARK    7  A    between atoms: C_23  and  C_24
REMARK    8  A    between atoms: C_24  and  N_25
REMARK                            x       y       z     vdW  Elec       q    Type
REMARK                         _______ _______ _______ _____ _____    ______ ____
ROOT
ATOM      1  C   UNL     1      -1.606  11.502  23.350  0.00  0.00    +0.000 C 
ATOM      2  C   UNL     1      -0.897  10.997  22.124  0.00  0.00    +0.000 A 
ATOM      3  N   UNL     1      -0.117   9.968  22.207  0.00  0.00    +0.000 NA
ATOM      4  C   UNL     1       0.504   9.521  21.032  0.00  0.00    +0.000 A 
ATOM      5  C   UNL     1       1.245   8.339  21.115  0.00  0.00    +0.000 A 
ATOM      6  C   UNL     1       1.879   7.815  19.991  0.00  0.00    +0.000 A 
ATOM      7  C   UNL     1       1.824   8.485  18.771  0.00  0.00    +0.000 A 
ATOM      8  C   UNL     1       1.041   9.644  18.682  0.00  0.00    +0.000 A 
ATOM      9  C   UNL     1       0.384  10.187  19.798  0.00  0.00    +0.000 A 
ATOM     10  N   UNL     1      -0.425  11.372  19.716  0.00  0.00    +0.000 N 
ATOM     11  C   UNL     1      -1.174  11.742  20.832  0.00  0.00    +0.000 A 
ATOM     12  O   UNL     1      -2.036  12.614  20.861  0.00  0.00    +0.000 OA
ENDROOT
BRANCH   7  13
ATOM     13  N   UNL     1       2.470   7.911  17.670  0.00  0.00    +0.000 N 
ATOM     14  H   UNL     1       2.260   8.436  16.822  0.00  0.00    +0.000 HD
BRANCH  13  15
ATOM     15  C   UNL     1       3.904   7.648  17.783  0.00  0.00    +0.000 C 
BRANCH  15  16
ATOM     16  C   UNL     1       4.180   6.235  17.327  0.00  0.00    +0.000 A 
ATOM     17  C   UNL     1       5.113   5.967  16.320  0.00  0.00    +0.000 A 
ATOM     18  C   UNL     1       5.362   4.652  15.923  0.00  0.00    +0.000 A 
ATOM     19  C   UNL     1       4.676   3.594  16.522  0.00  0.00    +0.000 A 
ATOM     20  C   UNL     1       3.735   3.839  17.532  0.00  0.00    +0.000 A 
ATOM     21  C   UNL     1       3.512   5.162  17.939  0.00  0.00    +0.000 A 
BRANCH  20  22
ATOM     22  C   UNL     1       2.950   2.721  18.171  0.00  0.00    +0.000 C 
ATOM     23  F   UNL     1       2.461   1.819  17.272  0.00  0.00    +0.000 F 
ATOM     24  F   UNL     1       3.690   1.998  19.057  0.00  0.00    +0.000 F 
ATOM     25  F   UNL     1       1.869   3.173  18.865  0.00  0.00    +0.000 F 
ENDBRANCH  20  22
ENDBRANCH  15  16
ENDBRANCH  13  15
ENDBRANCH   7  13
BRANCH  10  26
ATOM     26  C   UNL     1      -0.677  12.019  18.415  0.00  0.00    +0.000 C 
BRANCH  26  27
ATOM     27  C   UNL     1      -1.887  11.515  17.604  0.00  0.00    +0.000 C 
BRANCH  27  28
ATOM     28  N   UNL     1      -3.132  12.202  17.926  0.00  0.00    +0.000 N 
ATOM     29  C   UNL     1      -4.349  11.647  17.673  0.00  0.00    +0.000 C 
ATOM     30  N   UNL     1      -5.360  12.540  17.811  0.00  0.00    +0.000 N 
ATOM     31  O   UNL     1      -4.551  10.486  17.350  0.00  0.00    +0.000 OA
ATOM     32  H   UNL     1      -3.104  13.211  17.883  0.00  0.00    +0.000 HD
ATOM     33  H   UNL     1      -5.247  13.328  18.432  0.00  0.00    +0.000 HD
ATOM     34  H   UNL     1      -6.290  12.148  17.748  0.00  0.00    +0.000 HD
ENDBRANCH  27  28
ENDBRANCH  26  27
ENDBRANCH  10  26
TORSDOF 7
ENDMDL
