MODEL 1
REMARK VINA RESULT:      -6.5      0.000      0.000
REMARK  Name = 
REMARK  6 active torsions:
REMARK  status: ('A' for Active; 'I' for Inactive)
REMARK    1  A    between atoms: N_2  and  C_4
REMARK    2  A    between atoms: C_7  and  C_8
REMARK    3  A    between atoms: C_8  and  S_9
REMARK    4  A    between atoms: S_9  and  C_10
REMARK    5  A    between atoms: C_10  and  C_12
REMARK    6  A    between atoms: C_12  and  N_13
REMARK                            x       y       z     vdW  Elec       q    Type
REMARK                         _______ _______ _______ _____ _____    ______ ____
ROOT
ATOM      1  C   UNL     1       4.720   3.979  17.734  0.00  0.00    +0.000 C 
ENDROOT
BRANCH   1   5
ATOM      2  C   UNL     1       7.139   4.756  14.238  0.00  0.00    +0.000 A 
ATOM      3  C   UNL     1       6.010   3.946  14.137  0.00  0.00    +0.000 A 
ATOM      4  C   UNL     1       5.259   3.650  15.285  0.00  0.00    +0.000 A 
ATOM      5  C   UNL     1       5.625   4.167  16.536  0.00  0.00    +0.000 A 
ATOM      6  C   UNL     1       6.799   4.938  16.631  0.00  0.00    +0.000 A 
ATOM      7  C   UNL     1       7.556   5.233  15.491  0.00  0.00    +0.000 A 
BRANCH   2   9
ATOM      8  O   UNL     1       8.761   6.024  13.167  0.00  0.00    +0.000 OA
ATOM      9  N   UNL     1       7.808   5.240  13.019  0.00  0.00    +0.000 N 
ATOM     10  O   UNL     1       7.500   4.705  11.942  0.00  0.00    +0.000 OA
ENDBRANCH   2   9
ENDBRANCH   1   5
BRANCH   1  11
ATOM     11  S   UNL     1       4.973   5.202  19.059  0.00  0.00    +0.000 S 
BRANCH  11  12
ATOM     12  C   UNL     1       3.614   6.291  18.775  0.00  0.00    +0.000 C 
ATOM     13  S   UNL     1       3.526   7.370  17.494  0.00  0.00    +0.000 S 
BRANCH  12  14
ATOM     14  C   UNL     1       2.546   6.292  19.856  0.00  0.00    +0.000 C 
BRANCH  14  15
ATOM     15  N   UNL     1       2.052   4.917  20.135  0.00  0.00    +0.000 N 
ATOM     16  C   UNL     1       2.277   4.347  21.345  0.00  0.00    +0.000 A 
ATOM     17  C   UNL     1       1.850   3.049  21.610  0.00  0.00    +0.000 A 
ATOM     18  C   UNL     1       1.177   2.340  20.624  0.00  0.00    +0.000 A 
ATOM     19  C   UNL     1       0.927   2.945  19.402  0.00  0.00    +0.000 A 
ATOM     20  C   UNL     1       1.375   4.246  19.174  0.00  0.00    +0.000 A 
ENDBRANCH  14  15
ENDBRANCH  12  14
ENDBRANCH  11  12
ENDBRANCH   1  11
TORSDOF 6
ENDMDL
MODEL 2
REMARK VINA RESULT:      -6.5      5.016      6.931
REMARK  Name = 
REMARK  6 active torsions:
REMARK  status: ('A' for Active; 'I' for Inactive)
REMARK    1  A    between atoms: N_2  and  C_4
REMARK    2  A    between atoms: C_7  and  C_8
REMARK    3  A    between atoms: C_8  and  S_9
REMARK    4  A    between atoms: S_9  and  C_10
REMARK    5  A    between atoms: C_10  and  C_12
REMARK    6  A    between atoms: C_12  and  N_13
REMARK                            x       y       z     vdW  Elec       q    Type
REMARK                         _______ _______ _______ _____ _____    ______ ____
ROOT
ATOM      1  C   UNL     1       3.383   6.961  17.836  0.00  0.00    +0.000 C 
ENDROOT
BRANCH   1   5
ATOM      2  C   UNL     1       0.775   9.333  20.335  0.00  0.00    +0.000 A 
ATOM      3  C   UNL     1       1.311   8.142  20.822  0.00  0.00    +0.000 A 
ATOM      4  C   UNL     1       2.111   7.347  19.988  0.00  0.00    +0.000 A 
ATOM      5  C   UNL     1       2.389   7.739  18.671  0.00  0.00    +0.000 A 
ATOM      6  C   UNL     1       1.796   8.916  18.177  0.00  0.00    +0.000 A 
ATOM      7  C   UNL     1       0.991   9.712  19.001  0.00  0.00    +0.000 A 
BRANCH   2   9
ATOM      8  O   UNL     1       0.554  10.336  22.417  0.00  0.00    +0.000 OA
ATOM      9  N   UNL     1       0.112  10.271  21.257  0.00  0.00    +0.000 N 
ATOM     10  O   UNL     1      -0.720  11.058  20.777  0.00  0.00    +0.000 OA
ENDBRANCH   2   9
ENDBRANCH   1   5
BRANCH   1  11
ATOM     11  S   UNL     1       4.220   5.616  18.734  0.00  0.00    +0.000 S 
BRANCH  11  12
ATOM     12  C   UNL     1       4.371   4.405  17.461  0.00  0.00    +0.000 C 
ATOM     13  S   UNL     1       5.281   4.614  16.067  0.00  0.00    +0.000 S 
BRANCH  12  14
ATOM     14  C   UNL     1       3.505   3.169  17.634  0.00  0.00    +0.000 C 
BRANCH  14  15
ATOM     15  N   UNL     1       2.768   3.198  18.926  0.00  0.00    +0.000 N 
ATOM     16  C   UNL     1       1.537   3.764  18.993  0.00  0.00    +0.000 A 
ATOM     17  C   UNL     1       0.848   3.828  20.201  0.00  0.00    +0.000 A 
ATOM     18  C   UNL     1       1.429   3.294  21.344  0.00  0.00    +0.000 A 
ATOM     19  C   UNL     1       2.674   2.692  21.256  0.00  0.00    +0.000 A 
ATOM     20  C   UNL     1       3.334   2.652  20.028  0.00  0.00    +0.000 A 
ENDBRANCH  14  15
ENDBRANCH  12  14
ENDBRANCH  11  12
ENDBRANCH   1  11
TORSDOF 6
ENDMDL
MODEL 3
REMARK VINA RESULT:      -6.5      4.744      6.558
REMARK  Name = 
REMARK  6 active torsions:
REMARK  status: ('A' for Active; 'I' for Inactive)
REMARK    1  A    between atoms: N_2  and  C_4
REMARK    2  A    between atoms: C_7  and  C_8
REMARK    3  A    between atoms: C_8  and  S_9
REMARK    4  A    between atoms: S_9  and  C_10
REMARK    5  A    between atoms: C_10  and  C_12
REMARK    6  A    between atoms: C_12  and  N_13
REMARK                            x       y       z     vdW  Elec       q    Type
REMARK                         _______ _______ _______ _____ _____    ______ ____
ROOT
ATOM      1  C   UNL     1       4.007   6.750  17.442  0.00  0.00    +0.000 C 
ENDROOT
BRANCH   1   5
ATOM      2  C   UNL     1       1.126   8.889  19.850  0.00  0.00    +0.000 A 
ATOM      3  C   UNL     1       1.698   7.713  20.331  0.00  0.00    +0.000 A 
ATOM      4  C   UNL     1       2.590   6.992  19.523  0.00  0.00    +0.000 A 
ATOM      5  C   UNL     1       2.923   7.443  18.238  0.00  0.00    +0.000 A 
ATOM      6  C   UNL     1       2.295   8.603  17.746  0.00  0.00    +0.000 A 
ATOM      7  C   UNL     1       1.399   9.325  18.544  0.00  0.00    +0.000 A 
BRANCH   2   9
ATOM      8  O   UNL     1       0.146  10.924  20.384  0.00  0.00    +0.000 OA
ATOM      9  N   UNL     1       0.358   9.758  20.758  0.00  0.00    +0.000 N 
ATOM     10  O   UNL     1      -0.177   9.229  21.745  0.00  0.00    +0.000 OA
ENDBRANCH   2   9
ENDBRANCH   1   5
BRANCH   1  11
ATOM     11  S   UNL     1       5.229   5.863  18.461  0.00  0.00    +0.000 S 
BRANCH  11  12
ATOM     12  C   UNL     1       5.170   4.257  17.735  0.00  0.00    +0.000 C 
ATOM     13  S   UNL     1       5.402   3.955  16.101  0.00  0.00    +0.000 S 
BRANCH  12  14
ATOM     14  C   UNL     1       4.759   3.135  18.674  0.00  0.00    +0.000 C 
BRANCH  14  15
ATOM     15  N   UNL     1       3.370   3.322  19.171  0.00  0.00    +0.000 N 
ATOM     16  C   UNL     1       2.345   3.447  18.291  0.00  0.00    +0.000 A 
ATOM     17  C   UNL     1       1.044   3.656  18.740  0.00  0.00    +0.000 A 
ATOM     18  C   UNL     1       0.798   3.724  20.105  0.00  0.00    +0.000 A 
ATOM     19  C   UNL     1       1.850   3.565  20.994  0.00  0.00    +0.000 A 
ATOM     20  C   UNL     1       3.140   3.362  20.504  0.00  0.00    +0.000 A 
ENDBRANCH  14  15
ENDBRANCH  12  14
ENDBRANCH  11  12
ENDBRANCH   1  11
TORSDOF 6
ENDMDL
MODEL 4
REMARK VINA RESULT:      -6.4      4.855      6.749
REMARK  Name = 
REMARK  6 active torsions:
REMARK  status: ('A' for Active; 'I' for Inactive)
REMARK    1  A    between atoms: N_2  and  C_4
REMARK    2  A    between atoms: C_7  and  C_8
REMARK    3  A    between atoms: C_8  and  S_9
REMARK    4  A    between atoms: S_9  and  C_10
REMARK    5  A    between atoms: C_10  and  C_12
REMARK    6  A    between atoms: C_12  and  N_13
REMARK                            x       y       z     vdW  Elec       q    Type
REMARK                         _______ _______ _______ _____ _____    ______ ____
ROOT
ATOM      1  C   UNL     1       3.493   6.697  17.634  0.00  0.00    +0.000 C 
ENDROOT
BRANCH   1   5
ATOM      2  C   UNL     1       0.865   9.332  19.831  0.00  0.00    +0.000 A 
ATOM      3  C   UNL     1       1.271   9.671  18.541  0.00  0.00    +0.000 A 
ATOM      4  C   UNL     1       2.169   8.841  17.853  0.00  0.00    +0.000 A 
ATOM      5  C   UNL     1       2.659   7.667  18.443  0.00  0.00    +0.000 A 
ATOM      6  C   UNL     1       2.282   7.367  19.765  0.00  0.00    +0.000 A 
ATOM      7  C   UNL     1       1.391   8.194  20.461  0.00  0.00    +0.000 A 
BRANCH   2   9
ATOM      8  O   UNL     1      -0.988  10.727  19.737  0.00  0.00    +0.000 OA
ATOM      9  N   UNL     1      -0.228  10.078  20.477  0.00  0.00    +0.000 N 
ATOM     10  O   UNL     1      -0.430   9.873  21.684  0.00  0.00    +0.000 OA
ENDBRANCH   2   9
ENDBRANCH   1   5
BRANCH   1  11
ATOM     11  S   UNL     1       4.410   5.485  18.638  0.00  0.00    +0.000 S 
BRANCH  11  12
ATOM     12  C   UNL     1       4.584   4.160  17.487  0.00  0.00    +0.000 C 
ATOM     13  S   UNL     1       5.697   4.145  16.232  0.00  0.00    +0.000 S 
BRANCH  12  14
ATOM     14  C   UNL     1       3.557   3.048  17.617  0.00  0.00    +0.000 C 
BRANCH  14  15
ATOM     15  N   UNL     1       2.819   3.136  18.906  0.00  0.00    +0.000 N 
ATOM     16  C   UNL     1       1.601   3.731  18.951  0.00  0.00    +0.000 A 
ATOM     17  C   UNL     1       0.912   3.851  20.155  0.00  0.00    +0.000 A 
ATOM     18  C   UNL     1       1.480   3.343  21.316  0.00  0.00    +0.000 A 
ATOM     19  C   UNL     1       2.712   2.711  21.251  0.00  0.00    +0.000 A 
ATOM     20  C   UNL     1       3.371   2.615  20.026  0.00  0.00    +0.000 A 
ENDBRANCH  14  15
ENDBRANCH  12  14
ENDBRANCH  11  12
ENDBRANCH   1  11
TORSDOF 6
ENDMDL
MODEL 5
REMARK VINA RESULT:      -6.4      4.940      6.801
REMARK  Name = 
REMARK  6 active torsions:
REMARK  status: ('A' for Active; 'I' for Inactive)
REMARK    1  A    between atoms: N_2  and  C_4
REMARK    2  A    between atoms: C_7  and  C_8
REMARK    3  A    between atoms: C_8  and  S_9
REMARK    4  A    between atoms: S_9  and  C_10
REMARK    5  A    between atoms: C_10  and  C_12
REMARK    6  A    between atoms: C_12  and  N_13
REMARK                            x       y       z     vdW  Elec       q    Type
REMARK                         _______ _______ _______ _____ _____    ______ ____
ROOT
ATOM      1  C   UNL     1       3.278   6.623  17.754  0.00  0.00    +0.000 C 
ENDROOT
BRANCH   1   5
ATOM      2  C   UNL     1       0.803   9.180  20.206  0.00  0.00    +0.000 A 
ATOM      3  C   UNL     1       1.130   9.565  18.907  0.00  0.00    +0.000 A 
ATOM      4  C   UNL     1       1.980   8.760  18.134  0.00  0.00    +0.000 A 
ATOM      5  C   UNL     1       2.500   7.563  18.648  0.00  0.00    +0.000 A 
ATOM      6  C   UNL     1       2.205   7.216  19.980  0.00  0.00    +0.000 A 
ATOM      7  C   UNL     1       1.363   8.018  20.759  0.00  0.00    +0.000 A 
BRANCH   2   9
ATOM      8  O   UNL     1      -0.449   9.560  22.123  0.00  0.00    +0.000 OA
ATOM      9  N   UNL     1      -0.244   9.903  20.946  0.00  0.00    +0.000 N 
ATOM     10  O   UNL     1      -0.729  10.915  20.416  0.00  0.00    +0.000 OA
ENDBRANCH   2   9
ENDBRANCH   1   5
BRANCH   1  11
ATOM     11  S   UNL     1       4.397   5.498  18.648  0.00  0.00    +0.000 S 
BRANCH  11  12
ATOM     12  C   UNL     1       4.524   4.166  17.500  0.00  0.00    +0.000 C 
ATOM     13  S   UNL     1       5.674   4.080  16.282  0.00  0.00    +0.000 S 
BRANCH  12  14
ATOM     14  C   UNL     1       3.422   3.124  17.591  0.00  0.00    +0.000 C 
BRANCH  14  15
ATOM     15  N   UNL     1       2.747   3.159  18.916  0.00  0.00    +0.000 N 
ATOM     16  C   UNL     1       3.374   2.661  20.010  0.00  0.00    +0.000 A 
ATOM     17  C   UNL     1       2.743   2.657  21.252  0.00  0.00    +0.000 A 
ATOM     18  C   UNL     1       1.462   3.181  21.364  0.00  0.00    +0.000 A 
ATOM     19  C   UNL     1       0.844   3.715  20.244  0.00  0.00    +0.000 A 
ATOM     20  C   UNL     1       1.508   3.696  19.018  0.00  0.00    +0.000 A 
ENDBRANCH  14  15
ENDBRANCH  12  14
ENDBRANCH  11  12
ENDBRANCH   1  11
TORSDOF 6
ENDMDL
MODEL 6
REMARK VINA RESULT:      -6.4      4.650      7.392
REMARK  Name = 
REMARK  6 active torsions:
REMARK  status: ('A' for Active; 'I' for Inactive)
REMARK    1  A    between atoms: N_2  and  C_4
REMARK    2  A    between atoms: C_7  and  C_8
REMARK    3  A    between atoms: C_8  and  S_9
REMARK    4  A    between atoms: S_9  and  C_10
REMARK    5  A    between atoms: C_10  and  C_12
REMARK    6  A    between atoms: C_12  and  N_13
REMARK                            x       y       z     vdW  Elec       q    Type
REMARK                         _______ _______ _______ _____ _____    ______ ____
ROOT
ATOM      1  C   UNL     1       2.907   5.939  19.584  0.00  0.00    +0.000 C 
ENDROOT
BRANCH   1   5
ATOM      2  C   UNL     1       0.984   9.756  18.947  0.00  0.00    +0.000 A 
ATOM      3  C   UNL     1       1.708   9.161  17.915  0.00  0.00    +0.000 A 
ATOM      4  C   UNL     1       2.378   7.949  18.144  0.00  0.00    +0.000 A 
ATOM      5  C   UNL     1       2.322   7.322  19.396  0.00  0.00    +0.000 A 
ATOM      6  C   UNL     1       1.632   7.963  20.442  0.00  0.00    +0.000 A 
ATOM      7  C   UNL     1       0.967   9.175  20.224  0.00  0.00    +0.000 A 
BRANCH   2   9
ATOM      8  O   UNL     1      -1.099  10.681  18.508  0.00  0.00    +0.000 OA
ATOM      9  N   UNL     1       0.113  10.909  18.663  0.00  0.00    +0.000 N 
ATOM     10  O   UNL     1       0.606  12.043  18.772  0.00  0.00    +0.000 OA
ENDBRANCH   2   9
ENDBRANCH   1   5
BRANCH   1  11
ATOM     11  S   UNL     1       2.335   4.714  18.364  0.00  0.00    +0.000 S 
BRANCH  11  12
ATOM     12  C   UNL     1       3.712   3.614  18.320  0.00  0.00    +0.000 C 
ATOM     13  S   UNL     1       4.067   2.504  19.527  0.00  0.00    +0.000 S 
BRANCH  12  14
ATOM     14  C   UNL     1       4.667   3.813  17.155  0.00  0.00    +0.000 C 
BRANCH  14  15
ATOM     15  N   UNL     1       5.640   4.904  17.430  0.00  0.00    +0.000 N 
ATOM     16  C   UNL     1       5.458   6.131  16.882  0.00  0.00    +0.000 A 
ATOM     17  C   UNL     1       6.378   7.153  17.103  0.00  0.00    +0.000 A 
ATOM     18  C   UNL     1       7.485   6.909  17.904  0.00  0.00    +0.000 A 
ATOM     19  C   UNL     1       7.644   5.659  18.483  0.00  0.00    +0.000 A 
ATOM     20  C   UNL     1       6.703   4.661  18.233  0.00  0.00    +0.000 A 
ENDBRANCH  14  15
ENDBRANCH  12  14
ENDBRANCH  11  12
ENDBRANCH   1  11
TORSDOF 6
ENDMDL
MODEL 7
REMARK VINA RESULT:      -6.4      1.832      3.402
REMARK  Name = 
REMARK  6 active torsions:
REMARK  status: ('A' for Active; 'I' for Inactive)
REMARK    1  A    between atoms: N_2  and  C_4
REMARK    2  A    between atoms: C_7  and  C_8
REMARK    3  A    between atoms: C_8  and  S_9
REMARK    4  A    between atoms: S_9  and  C_10
REMARK    5  A    between atoms: C_10  and  C_12
REMARK    6  A    between atoms: C_12  and  N_13
REMARK                            x       y       z     vdW  Elec       q    Type
REMARK                         _______ _______ _______ _____ _____    ______ ____
ROOT
ATOM      1  C   UNL     1       4.740   3.722  18.016  0.00  0.00    +0.000 C 
ENDROOT
BRANCH   1   5
ATOM      2  C   UNL     1       6.850   4.937  14.445  0.00  0.00    +0.000 A 
ATOM      3  C   UNL     1       7.452   5.085  15.693  0.00  0.00    +0.000 A 
ATOM      4  C   UNL     1       6.742   4.742  16.854  0.00  0.00    +0.000 A 
ATOM      5  C   UNL     1       5.434   4.243  16.776  0.00  0.00    +0.000 A 
ATOM      6  C   UNL     1       4.821   4.151  15.512  0.00  0.00    +0.000 A 
ATOM      7  C   UNL     1       5.520   4.497  14.350  0.00  0.00    +0.000 A 
BRANCH   2   9
ATOM      8  O   UNL     1       8.678   5.790  13.297  0.00  0.00    +0.000 OA
ATOM      9  N   UNL     1       7.650   5.095  13.219  0.00  0.00    +0.000 N 
ATOM     10  O   UNL     1       7.353   4.389  12.243  0.00  0.00    +0.000 OA
ENDBRANCH   2   9
ENDBRANCH   1   5
BRANCH   1  11
ATOM     11  S   UNL     1       2.926   3.648  17.880  0.00  0.00    +0.000 S 
BRANCH  11  12
ATOM     12  C   UNL     1       2.444   4.389  19.406  0.00  0.00    +0.000 C 
ATOM     13  S   UNL     1       1.103   3.918  20.297  0.00  0.00    +0.000 S 
BRANCH  12  14
ATOM     14  C   UNL     1       3.258   5.601  19.825  0.00  0.00    +0.000 C 
BRANCH  14  15
ATOM     15  N   UNL     1       2.590   6.869  19.429  0.00  0.00    +0.000 N 
ATOM     16  C   UNL     1       2.676   7.311  18.149  0.00  0.00    +0.000 A 
ATOM     17  C   UNL     1       2.083   8.513  17.770  0.00  0.00    +0.000 A 
ATOM     18  C   UNL     1       1.389   9.256  18.716  0.00  0.00    +0.000 A 
ATOM     19  C   UNL     1       1.284   8.779  20.013  0.00  0.00    +0.000 A 
ATOM     20  C   UNL     1       1.895   7.572  20.354  0.00  0.00    +0.000 A 
ENDBRANCH  14  15
ENDBRANCH  12  14
ENDBRANCH  11  12
ENDBRANCH   1  11
TORSDOF 6
ENDMDL
MODEL 8
REMARK VINA RESULT:      -6.4      5.041      6.623
REMARK  Name = 
REMARK  6 active torsions:
REMARK  status: ('A' for Active; 'I' for Inactive)
REMARK    1  A    between atoms: N_2  and  C_4
REMARK    2  A    between atoms: C_7  and  C_8
REMARK    3  A    between atoms: C_8  and  S_9
REMARK    4  A    between atoms: S_9  and  C_10
REMARK    5  A    between atoms: C_10  and  C_12
REMARK    6  A    between atoms: C_12  and  N_13
REMARK                            x       y       z     vdW  Elec       q    Type
REMARK                         _______ _______ _______ _____ _____    ______ ____
ROOT
ATOM      1  C   UNL     1       3.954   6.990  17.512  0.00  0.00    +0.000 C 
ENDROOT
BRANCH   1   5
ATOM      2  C   UNL     1       1.061   9.109  19.923  0.00  0.00    +0.000 A 
ATOM      3  C   UNL     1       1.605   7.911  20.382  0.00  0.00    +0.000 A 
ATOM      4  C   UNL     1       2.501   7.197  19.572  0.00  0.00    +0.000 A 
ATOM      5  C   UNL     1       2.865   7.678  18.306  0.00  0.00    +0.000 A 
ATOM      6  C   UNL     1       2.265   8.861  17.835  0.00  0.00    +0.000 A 
ATOM      7  C   UNL     1       1.366   9.576  18.635  0.00  0.00    +0.000 A 
BRANCH   2   9
ATOM      8  O   UNL     1       0.826  10.269  21.920  0.00  0.00    +0.000 OA
ATOM      9  N   UNL     1       0.290   9.965  20.841  0.00  0.00    +0.000 N 
ATOM     10  O   UNL     1      -0.760  10.469  20.411  0.00  0.00    +0.000 OA
ENDBRANCH   2   9
ENDBRANCH   1   5
BRANCH   1  11
ATOM     11  S   UNL     1       3.779   5.179  17.421  0.00  0.00    +0.000 S 
BRANCH  11  12
ATOM     12  C   UNL     1       4.981   4.665  18.605  0.00  0.00    +0.000 C 
ATOM     13  S   UNL     1       6.435   5.458  18.874  0.00  0.00    +0.000 S 
BRANCH  12  14
ATOM     14  C   UNL     1       4.681   3.351  19.306  0.00  0.00    +0.000 C 
BRANCH  14  15
ATOM     15  N   UNL     1       3.222   3.179  19.539  0.00  0.00    +0.000 N 
ATOM     16  C   UNL     1       2.480   2.438  18.679  0.00  0.00    +0.000 A 
ATOM     17  C   UNL     1       1.107   2.295  18.865  0.00  0.00    +0.000 A 
ATOM     18  C   UNL     1       0.500   2.911  19.952  0.00  0.00    +0.000 A 
ATOM     19  C   UNL     1       1.275   3.641  20.840  0.00  0.00    +0.000 A 
ATOM     20  C   UNL     1       2.646   3.764  20.616  0.00  0.00    +0.000 A 
ENDBRANCH  14  15
ENDBRANCH  12  14
ENDBRANCH  11  12
ENDBRANCH   1  11
TORSDOF 6
ENDMDL
MODEL 9
REMARK VINA RESULT:      -6.4      0.434      1.567
REMARK  Name = 
REMARK  6 active torsions:
REMARK  status: ('A' for Active; 'I' for Inactive)
REMARK    1  A    between atoms: N_2  and  C_4
REMARK    2  A    between atoms: C_7  and  C_8
REMARK    3  A    between atoms: C_8  and  S_9
REMARK    4  A    between atoms: S_9  and  C_10
REMARK    5  A    between atoms: C_10  and  C_12
REMARK    6  A    between atoms: C_12  and  N_13
REMARK                            x       y       z     vdW  Elec       q    Type
REMARK                         _______ _______ _______ _____ _____    ______ ____
ROOT
ATOM      1  C   UNL     1       4.960   4.029  18.008  0.00  0.00    +0.000 C 
ENDROOT
BRANCH   1   5
ATOM      2  C   UNL     1       6.899   5.023  14.277  0.00  0.00    +0.000 A 
ATOM      3  C   UNL     1       7.305   5.642  15.458  0.00  0.00    +0.000 A 
ATOM      4  C   UNL     1       6.635   5.358  16.658  0.00  0.00    +0.000 A 
ATOM      5  C   UNL     1       5.565   4.452  16.688  0.00  0.00    +0.000 A 
ATOM      6  C   UNL     1       5.133   3.878  15.478  0.00  0.00    +0.000 A 
ATOM      7  C   UNL     1       5.792   4.161  14.275  0.00  0.00    +0.000 A 
BRANCH   2   9
ATOM      8  O   UNL     1       8.760   5.827  13.146  0.00  0.00    +0.000 OA
ATOM      9  N   UNL     1       7.719   5.152  13.061  0.00  0.00    +0.000 N 
ATOM     10  O   UNL     1       7.420   4.444  12.087  0.00  0.00    +0.000 OA
ENDBRANCH   2   9
ENDBRANCH   1   5
BRANCH   1  11
ATOM     11  S   UNL     1       5.000   5.317  19.295  0.00  0.00    +0.000 S 
BRANCH  11  12
ATOM     12  C   UNL     1       3.582   6.272  18.859  0.00  0.00    +0.000 C 
ATOM     13  S   UNL     1       3.547   7.381  17.601  0.00  0.00    +0.000 S 
BRANCH  12  14
ATOM     14  C   UNL     1       2.391   6.128  19.790  0.00  0.00    +0.000 C 
BRANCH  14  15
ATOM     15  N   UNL     1       1.889   4.728  19.819  0.00  0.00    +0.000 N 
ATOM     16  C   UNL     1       1.504   4.121  18.669  0.00  0.00    +0.000 A 
ATOM     17  C   UNL     1       1.001   2.823  18.683  0.00  0.00    +0.000 A 
ATOM     18  C   UNL     1       0.906   2.144  19.891  0.00  0.00    +0.000 A 
ATOM     19  C   UNL     1       1.332   2.765  21.055  0.00  0.00    +0.000 A 
ATOM     20  C   UNL     1       1.825   4.068  20.999  0.00  0.00    +0.000 A 
ENDBRANCH  14  15
ENDBRANCH  12  14
ENDBRANCH  11  12
ENDBRANCH   1  11
TORSDOF 6
ENDMDL
