MODEL 1
REMARK VINA RESULT:      -7.2      0.000      0.000
REMARK  Name = 
REMARK  8 active torsions:
REMARK  status: ('A' for Active; 'I' for Inactive)
REMARK    1  A    between atoms: C_2  and  O_3
REMARK    2  A    between atoms: C_2  and  C_4
REMARK    3  A    between atoms: C_4  and  C_5
REMARK    4  A    between atoms: C_5  and  N_6
REMARK    5  A    between atoms: C_10  and  C_11
REMARK    6  A    between atoms: C_15  and  O_16
REMARK    7  A    between atoms: O_16  and  C_17
REMARK    8  A    between atoms: C_17  and  C_18
REMARK                            x       y       z     vdW  Elec       q    Type
REMARK                         _______ _______ _______ _____ _____    ______ ____
ROOT
ATOM      1  C   UNL     1       2.329   3.596  18.191  0.00  0.00    +0.000 A 
ATOM      2  C   UNL     1       2.228   2.311  18.730  0.00  0.00    +0.000 A 
ATOM      3  C   UNL     1       1.676   2.126  19.998  0.00  0.00    +0.000 A 
ATOM      4  C   UNL     1       1.238   3.226  20.739  0.00  0.00    +0.000 A 
ATOM      5  C   UNL     1       1.367   4.515  20.216  0.00  0.00    +0.000 A 
ATOM      6  C   UNL     1       1.881   4.695  18.931  0.00  0.00    +0.000 A 
ENDROOT
BRANCH   1  11
ATOM      7  N   UNL     1       6.492   4.649  17.016  0.00  0.00    +0.000 N 
ATOM      8  C   UNL     1       5.300   4.312  17.652  0.00  0.00    +0.000 C 
ATOM      9  O   UNL     1       5.158   4.188  18.858  0.00  0.00    +0.000 OA
ATOM     10  C   UNL     1       4.215   4.095  16.645  0.00  0.00    +0.000 C 
ATOM     11  C   UNL     1       2.928   3.789  16.871  0.00  0.00    +0.000 C 
ATOM     12  S   UNL     1       4.848   4.293  15.055  0.00  0.00    +0.000 S 
ATOM     13  C   UNL     1       6.471   4.632  15.634  0.00  0.00    +0.000 C 
ATOM     14  S   UNL     1       7.742   4.880  14.580  0.00  0.00    +0.000 S 
BRANCH   7  15
ATOM     15  C   UNL     1       7.685   4.898  17.833  0.00  0.00    +0.000 C 
BRANCH  15  16
ATOM     16  C   UNL     1       7.529   6.088  18.784  0.00  0.00    +0.000 C 
BRANCH  16  18
ATOM     17  O   UNL     1       7.577   7.701  16.978  0.00  0.00    +0.000 OA
ATOM     18  C   UNL     1       7.927   7.367  18.096  0.00  0.00    +0.000 C 
BRANCH  18  19
ATOM     19  O   UNL     1       8.736   8.143  18.859  0.00  0.00    +0.000 OA
ATOM     20  H   UNL     1       9.689   7.947  18.770  0.00  0.00    +0.000 HD
ENDBRANCH  18  19
ENDBRANCH  16  18
ENDBRANCH  15  16
ENDBRANCH   7  15
ENDBRANCH   1  11
BRANCH   5  21
ATOM     21  O   UNL     1       1.023   5.661  20.883  0.00  0.00    +0.000 OA
BRANCH  21  22
ATOM     22  C   UNL     1       2.049   6.655  20.940  0.00  0.00    +0.000 C 
BRANCH  22  23
ATOM     23  C   UNL     1       1.502   7.947  20.387  0.00  0.00    +0.000 A 
ATOM     24  C   UNL     1       0.622   8.732  21.146  0.00  0.00    +0.000 A 
ATOM     25  C   UNL     1       0.097   9.915  20.620  0.00  0.00    +0.000 A 
ATOM     26  C   UNL     1       0.454  10.320  19.336  0.00  0.00    +0.000 A 
ATOM     27 CL   UNL     1      -0.211  11.764  18.678  0.00  0.00    +0.000 Cl
ATOM     28  C   UNL     1       1.338   9.559  18.574  0.00  0.00    +0.000 A 
ATOM     29  C   UNL     1       1.861   8.376  19.100  0.00  0.00    +0.000 A 
ENDBRANCH  22  23
ENDBRANCH  21  22
ENDBRANCH   5  21
TORSDOF 8
ENDMDL
MODEL 2
REMARK VINA RESULT:      -7.1      4.169      6.758
REMARK  Name = 
REMARK  8 active torsions:
REMARK  status: ('A' for Active; 'I' for Inactive)
REMARK    1  A    between atoms: C_2  and  O_3
REMARK    2  A    between atoms: C_2  and  C_4
REMARK    3  A    between atoms: C_4  and  C_5
REMARK    4  A    between atoms: C_5  and  N_6
REMARK    5  A    between atoms: C_10  and  C_11
REMARK    6  A    between atoms: C_15  and  O_16
REMARK    7  A    between atoms: O_16  and  C_17
REMARK    8  A    between atoms: C_17  and  C_18
REMARK                            x       y       z     vdW  Elec       q    Type
REMARK                         _______ _______ _______ _____ _____    ______ ____
ROOT
ATOM      1  C   UNL     1       2.411   5.196  19.941  0.00  0.00    +0.000 A 
ATOM      2  C   UNL     1       1.530   4.460  19.144  0.00  0.00    +0.000 A 
ATOM      3  C   UNL     1       2.023   3.514  18.245  0.00  0.00    +0.000 A 
ATOM      4  C   UNL     1       3.399   3.311  18.127  0.00  0.00    +0.000 A 
ATOM      5  C   UNL     1       4.285   4.067  18.899  0.00  0.00    +0.000 A 
ATOM      6  C   UNL     1       3.789   4.983  19.828  0.00  0.00    +0.000 A 
ENDROOT
BRANCH   1  11
ATOM      7  N   UNL     1       1.324   9.462  19.282  0.00  0.00    +0.000 N 
ATOM      8  C   UNL     1       1.708   8.126  19.202  0.00  0.00    +0.000 C 
ATOM      9  O   UNL     1       2.073   7.561  18.183  0.00  0.00    +0.000 OA
ATOM     10  C   UNL     1       1.587   7.466  20.539  0.00  0.00    +0.000 C 
ATOM     11  C   UNL     1       1.892   6.202  20.866  0.00  0.00    +0.000 C 
ATOM     12  S   UNL     1       0.966   8.591  21.688  0.00  0.00    +0.000 S 
ATOM     13  C   UNL     1       0.839   9.883  20.506  0.00  0.00    +0.000 C 
ATOM     14  S   UNL     1       0.204  11.375  20.906  0.00  0.00    +0.000 S 
BRANCH   7  15
ATOM     15  C   UNL     1       1.367  10.286  18.069  0.00  0.00    +0.000 C 
BRANCH  15  16
ATOM     16  C   UNL     1       2.654  11.104  17.938  0.00  0.00    +0.000 C 
BRANCH  16  18
ATOM     17  O   UNL     1       3.182  13.435  18.330  0.00  0.00    +0.000 OA
ATOM     18  C   UNL     1       2.359  12.575  18.073  0.00  0.00    +0.000 C 
BRANCH  18  19
ATOM     19  O   UNL     1       1.050  12.867  17.873  0.00  0.00    +0.000 OA
ATOM     20  H   UNL     1       0.453  12.565  18.585  0.00  0.00    +0.000 HD
ENDBRANCH  18  19
ENDBRANCH  16  18
ENDBRANCH  15  16
ENDBRANCH   7  15
ENDBRANCH   1  11
BRANCH   5  21
ATOM     21  O   UNL     1       5.650   3.986  18.817  0.00  0.00    +0.000 OA
BRANCH  21  22
ATOM     22  C   UNL     1       6.203   4.409  17.568  0.00  0.00    +0.000 C 
BRANCH  22  23
ATOM     23  C   UNL     1       6.808   5.779  17.746  0.00  0.00    +0.000 A 
ATOM     24  C   UNL     1       6.393   6.852  16.944  0.00  0.00    +0.000 A 
ATOM     25  C   UNL     1       6.974   8.114  17.095  0.00  0.00    +0.000 A 
ATOM     26  C   UNL     1       7.968   8.308  18.052  0.00  0.00    +0.000 A 
ATOM     27 CL   UNL     1       8.700   9.855  18.222  0.00  0.00    +0.000 Cl
ATOM     28  C   UNL     1       8.380   7.256  18.867  0.00  0.00    +0.000 A 
ATOM     29  C   UNL     1       7.800   5.996  18.714  0.00  0.00    +0.000 A 
ENDBRANCH  22  23
ENDBRANCH  21  22
ENDBRANCH   5  21
TORSDOF 8
ENDMDL
MODEL 3
REMARK VINA RESULT:      -6.9      3.500      6.059
REMARK  Name = 
REMARK  8 active torsions:
REMARK  status: ('A' for Active; 'I' for Inactive)
REMARK    1  A    between atoms: C_2  and  O_3
REMARK    2  A    between atoms: C_2  and  C_4
REMARK    3  A    between atoms: C_4  and  C_5
REMARK    4  A    between atoms: C_5  and  N_6
REMARK    5  A    between atoms: C_10  and  C_11
REMARK    6  A    between atoms: C_15  and  O_16
REMARK    7  A    between atoms: O_16  and  C_17
REMARK    8  A    between atoms: C_17  and  C_18
REMARK                            x       y       z     vdW  Elec       q    Type
REMARK                         _______ _______ _______ _____ _____    ______ ____
ROOT
ATOM      1  C   UNL     1       1.704   8.910  18.647  0.00  0.00    +0.000 A 
ATOM      2  C   UNL     1       1.649   8.891  20.044  0.00  0.00    +0.000 A 
ATOM      3  C   UNL     1       0.536   9.408  20.706  0.00  0.00    +0.000 A 
ATOM      4  C   UNL     1      -0.519   9.961  19.978  0.00  0.00    +0.000 A 
ATOM      5  C   UNL     1      -0.454  10.010  18.583  0.00  0.00    +0.000 A 
ATOM      6  C   UNL     1       0.641   9.455  17.920  0.00  0.00    +0.000 A 
ENDROOT
BRANCH   1  11
ATOM      7  N   UNL     1       3.163   4.734  18.147  0.00  0.00    +0.000 N 
ATOM      8  C   UNL     1       2.479   5.913  18.431  0.00  0.00    +0.000 C 
ATOM      9  O   UNL     1       1.423   5.983  19.039  0.00  0.00    +0.000 OA
ATOM     10  C   UNL     1       3.208   7.089  17.863  0.00  0.00    +0.000 C 
ATOM     11  C   UNL     1       2.881   8.387  17.956  0.00  0.00    +0.000 C 
ATOM     12  S   UNL     1       4.610   6.551  17.016  0.00  0.00    +0.000 S 
ATOM     13  C   UNL     1       4.286   4.858  17.352  0.00  0.00    +0.000 C 
ATOM     14  S   UNL     1       5.260   3.645  16.745  0.00  0.00    +0.000 S 
BRANCH   7  15
ATOM     15  C   UNL     1       2.605   3.460  18.616  0.00  0.00    +0.000 C 
BRANCH  15  16
ATOM     16  C   UNL     1       3.064   3.081  20.026  0.00  0.00    +0.000 C 
BRANCH  16  18
ATOM     17  O   UNL     1       1.982   2.939  22.188  0.00  0.00    +0.000 OA
ATOM     18  C   UNL     1       1.904   3.114  20.984  0.00  0.00    +0.000 C 
BRANCH  18  19
ATOM     19  O   UNL     1       0.722   3.367  20.369  0.00  0.00    +0.000 OA
ATOM     20  H   UNL     1       0.726   4.156  19.791  0.00  0.00    +0.000 HD
ENDBRANCH  18  19
ENDBRANCH  16  18
ENDBRANCH  15  16
ENDBRANCH   7  15
ENDBRANCH   1  11
BRANCH   5  21
ATOM     21  O   UNL     1      -1.406  10.582  17.782  0.00  0.00    +0.000 OA
BRANCH  21  22
ATOM     22  C   UNL     1      -1.829  11.886  18.187  0.00  0.00    +0.000 C 
BRANCH  22  23
ATOM     23  C   UNL     1      -3.278  11.818  18.601  0.00  0.00    +0.000 A 
ATOM     24  C   UNL     1      -3.720  12.469  19.762  0.00  0.00    +0.000 A 
ATOM     25  C   UNL     1      -5.058  12.382  20.155  0.00  0.00    +0.000 A 
ATOM     26  C   UNL     1      -5.959  11.646  19.388  0.00  0.00    +0.000 A 
ATOM     27 CL   UNL     1      -7.600  11.518  19.885  0.00  0.00    +0.000 Cl
ATOM     28  C   UNL     1      -5.538  11.006  18.225  0.00  0.00    +0.000 A 
ATOM     29  C   UNL     1      -4.201  11.092  17.833  0.00  0.00    +0.000 A 
ENDBRANCH  22  23
ENDBRANCH  21  22
ENDBRANCH   5  21
TORSDOF 8
ENDMDL
MODEL 4
REMARK VINA RESULT:      -6.9      3.970      7.334
REMARK  Name = 
REMARK  8 active torsions:
REMARK  status: ('A' for Active; 'I' for Inactive)
REMARK    1  A    between atoms: C_2  and  O_3
REMARK    2  A    between atoms: C_2  and  C_4
REMARK    3  A    between atoms: C_4  and  C_5
REMARK    4  A    between atoms: C_5  and  N_6
REMARK    5  A    between atoms: C_10  and  C_11
REMARK    6  A    between atoms: C_15  and  O_16
REMARK    7  A    between atoms: O_16  and  C_17
REMARK    8  A    between atoms: C_17  and  C_18
REMARK                            x       y       z     vdW  Elec       q    Type
REMARK                         _______ _______ _______ _____ _____    ______ ____
ROOT
ATOM      1  C   UNL     1       2.638   5.961  18.411  0.00  0.00    +0.000 A 
ATOM      2  C   UNL     1       1.665   4.964  18.523  0.00  0.00    +0.000 A 
ATOM      3  C   UNL     1       2.022   3.682  18.941  0.00  0.00    +0.000 A 
ATOM      4  C   UNL     1       3.355   3.385  19.232  0.00  0.00    +0.000 A 
ATOM      5  C   UNL     1       4.336   4.371  19.091  0.00  0.00    +0.000 A 
ATOM      6  C   UNL     1       3.972   5.664  18.713  0.00  0.00    +0.000 A 
ENDROOT
BRANCH   1  11
ATOM      7  N   UNL     1       1.117   9.485  20.665  0.00  0.00    +0.000 N 
ATOM      8  C   UNL     1       1.617   8.263  20.223  0.00  0.00    +0.000 C 
ATOM      9  O   UNL     1       1.871   7.308  20.939  0.00  0.00    +0.000 OA
ATOM     10  C   UNL     1       1.828   8.290  18.743  0.00  0.00    +0.000 C 
ATOM     11  C   UNL     1       2.265   7.298  17.952  0.00  0.00    +0.000 C 
ATOM     12  S   UNL     1       1.420   9.847  18.125  0.00  0.00    +0.000 S 
ATOM     13  C   UNL     1       1.000  10.477  19.710  0.00  0.00    +0.000 C 
ATOM     14  S   UNL     1       0.540  12.067  19.924  0.00  0.00    +0.000 S 
BRANCH   7  15
ATOM     15  C   UNL     1       0.845   9.664  22.096  0.00  0.00    +0.000 C 
BRANCH  15  16
ATOM     16  C   UNL     1      -0.646   9.641  22.437  0.00  0.00    +0.000 C 
BRANCH  16  18
ATOM     17  O   UNL     1      -0.346  11.923  23.187  0.00  0.00    +0.000 OA
ATOM     18  C   UNL     1      -1.080  10.970  22.993  0.00  0.00    +0.000 C 
BRANCH  18  19
ATOM     19  O   UNL     1      -2.408  11.017  23.266  0.00  0.00    +0.000 OA
ATOM     20  H   UNL     1      -2.771  10.198  23.657  0.00  0.00    +0.000 HD
ENDBRANCH  18  19
ENDBRANCH  16  18
ENDBRANCH  15  16
ENDBRANCH   7  15
ENDBRANCH   1  11
BRANCH   5  21
ATOM     21  O   UNL     1       5.675   4.167  19.294  0.00  0.00    +0.000 OA
BRANCH  21  22
ATOM     22  C   UNL     1       6.489   4.311  18.128  0.00  0.00    +0.000 C 
BRANCH  22  23
ATOM     23  C   UNL     1       7.078   5.700  18.118  0.00  0.00    +0.000 A 
ATOM     24  C   UNL     1       7.987   6.097  19.109  0.00  0.00    +0.000 A 
ATOM     25  C   UNL     1       8.511   7.392  19.110  0.00  0.00    +0.000 A 
ATOM     26  C   UNL     1       8.131   8.293  18.118  0.00  0.00    +0.000 A 
ATOM     27 CL   UNL     1       8.756   9.895  18.133  0.00  0.00    +0.000 Cl
ATOM     28  C   UNL     1       7.240   7.910  17.118  0.00  0.00    +0.000 A 
ATOM     29  C   UNL     1       6.716   6.616  17.118  0.00  0.00    +0.000 A 
ENDBRANCH  22  23
ENDBRANCH  21  22
ENDBRANCH   5  21
TORSDOF 8
ENDMDL
MODEL 5
REMARK VINA RESULT:      -6.9      3.983      6.692
REMARK  Name = 
REMARK  8 active torsions:
REMARK  status: ('A' for Active; 'I' for Inactive)
REMARK    1  A    between atoms: C_2  and  O_3
REMARK    2  A    between atoms: C_2  and  C_4
REMARK    3  A    between atoms: C_4  and  C_5
REMARK    4  A    between atoms: C_5  and  N_6
REMARK    5  A    between atoms: C_10  and  C_11
REMARK    6  A    between atoms: C_15  and  O_16
REMARK    7  A    between atoms: O_16  and  C_17
REMARK    8  A    between atoms: C_17  and  C_18
REMARK                            x       y       z     vdW  Elec       q    Type
REMARK                         _______ _______ _______ _____ _____    ______ ____
ROOT
ATOM      1  C   UNL     1       1.139   9.721  18.547  0.00  0.00    +0.000 A 
ATOM      2  C   UNL     1       1.402  10.556  19.636  0.00  0.00    +0.000 A 
ATOM      3  C   UNL     1       0.365  11.270  20.237  0.00  0.00    +0.000 A 
ATOM      4  C   UNL     1      -0.936  11.166  19.740  0.00  0.00    +0.000 A 
ATOM      5  C   UNL     1      -1.197  10.358  18.632  0.00  0.00    +0.000 A 
ATOM      6  C   UNL     1      -0.167   9.611  18.058  0.00  0.00    +0.000 A 
ENDROOT
BRANCH   1  11
ATOM      7  N   UNL     1       2.987   5.796  19.544  0.00  0.00    +0.000 N 
ATOM      8  C   UNL     1       2.225   6.958  19.446  0.00  0.00    +0.000 C 
ATOM      9  O   UNL     1       1.292   7.248  20.177  0.00  0.00    +0.000 OA
ATOM     10  C   UNL     1       2.694   7.794  18.298  0.00  0.00    +0.000 C 
ATOM     11  C   UNL     1       2.232   8.991  17.906  0.00  0.00    +0.000 C 
ATOM     12  S   UNL     1       3.980   6.990  17.479  0.00  0.00    +0.000 S 
ATOM     13  C   UNL     1       3.930   5.601  18.553  0.00  0.00    +0.000 C 
ATOM     14  S   UNL     1       4.923   4.280  18.318  0.00  0.00    +0.000 S 
BRANCH   7  15
ATOM     15  C   UNL     1       2.681   4.835  20.609  0.00  0.00    +0.000 C 
BRANCH  15  16
ATOM     16  C   UNL     1       1.367   4.083  20.387  0.00  0.00    +0.000 C 
BRANCH  16  18
ATOM     17  O   UNL     1       1.085   3.407  18.078  0.00  0.00    +0.000 OA
ATOM     18  C   UNL     1       1.483   3.159  19.203  0.00  0.00    +0.000 C 
BRANCH  18  19
ATOM     19  O   UNL     1       2.095   1.989  19.509  0.00  0.00    +0.000 OA
ATOM     20  H   UNL     1       2.456   1.506  18.740  0.00  0.00    +0.000 HD
ENDBRANCH  18  19
ENDBRANCH  16  18
ENDBRANCH  15  16
ENDBRANCH   7  15
ENDBRANCH   1  11
BRANCH   5  21
ATOM     21  O   UNL     1      -2.423  10.233  18.034  0.00  0.00    +0.000 OA
BRANCH  21  22
ATOM     22  C   UNL     1      -3.065  11.470  17.714  0.00  0.00    +0.000 C 
BRANCH  22  23
ATOM     23  C   UNL     1      -4.285  11.623  18.587  0.00  0.00    +0.000 A 
ATOM     24  C   UNL     1      -4.243  12.424  19.738  0.00  0.00    +0.000 A 
ATOM     25  C   UNL     1      -5.367  12.542  20.558  0.00  0.00    +0.000 A 
ATOM     26  C   UNL     1      -6.539  11.865  20.229  0.00  0.00    +0.000 A 
ATOM     27 CL   UNL     1      -7.916  11.991  21.251  0.00  0.00    +0.000 Cl
ATOM     28  C   UNL     1      -6.602  11.077  19.081  0.00  0.00    +0.000 A 
ATOM     29  C   UNL     1      -5.477  10.958  18.263  0.00  0.00    +0.000 A 
ENDBRANCH  22  23
ENDBRANCH  21  22
ENDBRANCH   5  21
TORSDOF 8
ENDMDL
MODEL 6
REMARK VINA RESULT:      -6.9      3.478      6.239
REMARK  Name = 
REMARK  8 active torsions:
REMARK  status: ('A' for Active; 'I' for Inactive)
REMARK    1  A    between atoms: C_2  and  O_3
REMARK    2  A    between atoms: C_2  and  C_4
REMARK    3  A    between atoms: C_4  and  C_5
REMARK    4  A    between atoms: C_5  and  N_6
REMARK    5  A    between atoms: C_10  and  C_11
REMARK    6  A    between atoms: C_15  and  O_16
REMARK    7  A    between atoms: O_16  and  C_17
REMARK    8  A    between atoms: C_17  and  C_18
REMARK                            x       y       z     vdW  Elec       q    Type
REMARK                         _______ _______ _______ _____ _____    ______ ____
ROOT
ATOM      1  C   UNL     1       1.253   9.419  18.596  0.00  0.00    +0.000 A 
ATOM      2  C   UNL     1       0.047   9.535  17.900  0.00  0.00    +0.000 A 
ATOM      3  C   UNL     1      -1.029  10.213  18.473  0.00  0.00    +0.000 A 
ATOM      4  C   UNL     1      -0.911  10.762  19.751  0.00  0.00    +0.000 A 
ATOM      5  C   UNL     1       0.282  10.620  20.464  0.00  0.00    +0.000 A 
ATOM      6  C   UNL     1       1.372   9.979  19.873  0.00  0.00    +0.000 A 
ENDROOT
BRANCH   1  11
ATOM      7  N   UNL     1       2.972   5.433  19.581  0.00  0.00    +0.000 N 
ATOM      8  C   UNL     1       2.236   6.610  19.473  0.00  0.00    +0.000 C 
ATOM      9  O   UNL     1       1.263   6.894  20.152  0.00  0.00    +0.000 OA
ATOM     10  C   UNL     1       2.790   7.473  18.384  0.00  0.00    +0.000 C 
ATOM     11  C   UNL     1       2.372   8.690  18.002  0.00  0.00    +0.000 C 
ATOM     12  S   UNL     1       4.112   6.673  17.622  0.00  0.00    +0.000 S 
ATOM     13  C   UNL     1       3.973   5.252  18.645  0.00  0.00    +0.000 C 
ATOM     14  S   UNL     1       4.958   3.921  18.431  0.00  0.00    +0.000 S 
BRANCH   7  15
ATOM     15  C   UNL     1       2.584   4.444  20.593  0.00  0.00    +0.000 C 
BRANCH  15  16
ATOM     16  C   UNL     1       1.241   3.771  20.298  0.00  0.00    +0.000 C 
BRANCH  16  18
ATOM     17  O   UNL     1       1.007   3.313  17.932  0.00  0.00    +0.000 OA
ATOM     18  C   UNL     1       1.332   2.941  19.046  0.00  0.00    +0.000 C 
BRANCH  18  19
ATOM     19  O   UNL     1       1.829   1.701  19.274  0.00  0.00    +0.000 OA
ATOM     20  H   UNL     1       2.011   1.181  18.466  0.00  0.00    +0.000 HD
ENDBRANCH  18  19
ENDBRANCH  16  18
ENDBRANCH  15  16
ENDBRANCH   7  15
ENDBRANCH   1  11
BRANCH   5  21
ATOM     21  O   UNL     1       0.481  11.070  21.742  0.00  0.00    +0.000 OA
BRANCH  21  22
ATOM     22  C   UNL     1      -0.562  10.742  22.663  0.00  0.00    +0.000 C 
BRANCH  22  23
ATOM     23  C   UNL     1      -1.370  11.984  22.943  0.00  0.00    +0.000 A 
ATOM     24  C   UNL     1      -2.716  11.890  23.326  0.00  0.00    +0.000 A 
ATOM     25  C   UNL     1      -3.467  13.044  23.560  0.00  0.00    +0.000 A 
ATOM     26  C   UNL     1      -2.875  14.297  23.415  0.00  0.00    +0.000 A 
ATOM     27 CL   UNL     1      -3.806  15.719  23.679  0.00  0.00    +0.000 Cl
ATOM     28  C   UNL     1      -1.535  14.407  23.050  0.00  0.00    +0.000 A 
ATOM     29  C   UNL     1      -0.785  13.253  22.815  0.00  0.00    +0.000 A 
ENDBRANCH  22  23
ENDBRANCH  21  22
ENDBRANCH   5  21
TORSDOF 8
ENDMDL
MODEL 7
REMARK VINA RESULT:      -6.8      5.717      9.260
REMARK  Name = 
REMARK  8 active torsions:
REMARK  status: ('A' for Active; 'I' for Inactive)
REMARK    1  A    between atoms: C_2  and  O_3
REMARK    2  A    between atoms: C_2  and  C_4
REMARK    3  A    between atoms: C_4  and  C_5
REMARK    4  A    between atoms: C_5  and  N_6
REMARK    5  A    between atoms: C_10  and  C_11
REMARK    6  A    between atoms: C_15  and  O_16
REMARK    7  A    between atoms: O_16  and  C_17
REMARK    8  A    between atoms: C_17  and  C_18
REMARK                            x       y       z     vdW  Elec       q    Type
REMARK                         _______ _______ _______ _____ _____    ______ ____
ROOT
ATOM      1  C   UNL     1       0.996   9.910  19.496  0.00  0.00    +0.000 A 
ATOM      2  C   UNL     1       1.568  10.157  18.245  0.00  0.00    +0.000 A 
ATOM      3  C   UNL     1       2.357   9.183  17.633  0.00  0.00    +0.000 A 
ATOM      4  C   UNL     1       2.594   7.967  18.276  0.00  0.00    +0.000 A 
ATOM      5  C   UNL     1       2.051   7.729  19.541  0.00  0.00    +0.000 A 
ATOM      6  C   UNL     1       1.226   8.686  20.134  0.00  0.00    +0.000 A 
ENDROOT
BRANCH   1  11
ATOM      7  N   UNL     1      -3.145  11.308  18.653  0.00  0.00    +0.000 N 
ATOM      8  C   UNL     1      -1.907  10.674  18.711  0.00  0.00    +0.000 C 
ATOM      9  O   UNL     1      -1.555   9.754  17.991  0.00  0.00    +0.000 OA
ATOM     10  C   UNL     1      -1.070  11.263  19.803  0.00  0.00    +0.000 C 
ATOM     11  C   UNL     1       0.187  10.940  20.145  0.00  0.00    +0.000 C 
ATOM     12  S   UNL     1      -1.965  12.483  20.629  0.00  0.00    +0.000 S 
ATOM     13  C   UNL     1      -3.391  12.256  19.629  0.00  0.00    +0.000 C 
ATOM     14  S   UNL     1      -4.797  13.113  19.904  0.00  0.00    +0.000 S 
BRANCH   7  15
ATOM     15  C   UNL     1      -4.119  10.871  17.647  0.00  0.00    +0.000 C 
BRANCH  15  16
ATOM     16  C   UNL     1      -3.900  11.511  16.274  0.00  0.00    +0.000 C 
BRANCH  16  18
ATOM     17  O   UNL     1      -3.643  10.613  14.040  0.00  0.00    +0.000 OA
ATOM     18  C   UNL     1      -3.580  10.458  15.247  0.00  0.00    +0.000 C 
BRANCH  18  19
ATOM     19  O   UNL     1      -3.197   9.282  15.803  0.00  0.00    +0.000 OA
ATOM     20  H   UNL     1      -3.920   8.779  16.225  0.00  0.00    +0.000 HD
ENDBRANCH  18  19
ENDBRANCH  16  18
ENDBRANCH  15  16
ENDBRANCH   7  15
ENDBRANCH   1  11
BRANCH   5  21
ATOM     21  O   UNL     1       2.269   6.596  20.279  0.00  0.00    +0.000 OA
BRANCH  21  22
ATOM     22  C   UNL     1       2.143   5.371  19.551  0.00  0.00    +0.000 C 
BRANCH  22  23
ATOM     23  C   UNL     1       3.454   5.080  18.864  0.00  0.00    +0.000 A 
ATOM     24  C   UNL     1       4.671   5.304  19.523  0.00  0.00    +0.000 A 
ATOM     25  C   UNL     1       5.883   5.058  18.874  0.00  0.00    +0.000 A 
ATOM     26  C   UNL     1       5.882   4.581  17.565  0.00  0.00    +0.000 A 
ATOM     27 CL   UNL     1       7.374   4.300  16.756  0.00  0.00    +0.000 Cl
ATOM     28  C   UNL     1       4.682   4.339  16.901  0.00  0.00    +0.000 A 
ATOM     29  C   UNL     1       3.471   4.588  17.550  0.00  0.00    +0.000 A 
ENDBRANCH  22  23
ENDBRANCH  21  22
ENDBRANCH   5  21
TORSDOF 8
ENDMDL
MODEL 8
REMARK VINA RESULT:      -6.8      4.283      7.250
REMARK  Name = 
REMARK  8 active torsions:
REMARK  status: ('A' for Active; 'I' for Inactive)
REMARK    1  A    between atoms: C_2  and  O_3
REMARK    2  A    between atoms: C_2  and  C_4
REMARK    3  A    between atoms: C_4  and  C_5
REMARK    4  A    between atoms: C_5  and  N_6
REMARK    5  A    between atoms: C_10  and  C_11
REMARK    6  A    between atoms: C_15  and  O_16
REMARK    7  A    between atoms: O_16  and  C_17
REMARK    8  A    between atoms: C_17  and  C_18
REMARK                            x       y       z     vdW  Elec       q    Type
REMARK                         _______ _______ _______ _____ _____    ______ ____
ROOT
ATOM      1  C   UNL     1       2.333   5.267  19.694  0.00  0.00    +0.000 A 
ATOM      2  C   UNL     1       1.593   4.872  18.576  0.00  0.00    +0.000 A 
ATOM      3  C   UNL     1       2.201   4.136  17.559  0.00  0.00    +0.000 A 
ATOM      4  C   UNL     1       3.555   3.808  17.645  0.00  0.00    +0.000 A 
ATOM      5  C   UNL     1       4.306   4.229  18.745  0.00  0.00    +0.000 A 
ATOM      6  C   UNL     1       3.687   4.928  19.782  0.00  0.00    +0.000 A 
ENDROOT
BRANCH   1  11
ATOM      7  N   UNL     1       1.182   9.566  19.811  0.00  0.00    +0.000 N 
ATOM      8  C   UNL     1       1.613   8.279  19.499  0.00  0.00    +0.000 C 
ATOM      9  O   UNL     1       2.090   7.939  18.428  0.00  0.00    +0.000 OA
ATOM     10  C   UNL     1       1.386   7.358  20.656  0.00  0.00    +0.000 C 
ATOM     11  C   UNL     1       1.699   6.056  20.748  0.00  0.00    +0.000 C 
ATOM     12  S   UNL     1       0.625   8.216  21.942  0.00  0.00    +0.000 S 
ATOM     13  C   UNL     1       0.571   9.722  21.041  0.00  0.00    +0.000 C 
ATOM     14  S   UNL     1      -0.145  11.092  21.671  0.00  0.00    +0.000 S 
BRANCH   7  15
ATOM     15  C   UNL     1       1.314  10.622  18.801  0.00  0.00    +0.000 C 
BRANCH  15  16
ATOM     16  C   UNL     1      -0.012  10.982  18.125  0.00  0.00    +0.000 C 
BRANCH  16  18
ATOM     17  O   UNL     1       0.386  13.254  18.861  0.00  0.00    +0.000 OA
ATOM     18  C   UNL     1      -0.237  12.470  18.168  0.00  0.00    +0.000 C 
BRANCH  18  19
ATOM     19  O   UNL     1      -1.227  12.875  17.335  0.00  0.00    +0.000 OA
ATOM     20  H   UNL     1      -2.120  12.867  17.731  0.00  0.00    +0.000 HD
ENDBRANCH  18  19
ENDBRANCH  16  18
ENDBRANCH  15  16
ENDBRANCH   7  15
ENDBRANCH   1  11
BRANCH   5  21
ATOM     21  O   UNL     1       5.650   4.010  18.897  0.00  0.00    +0.000 OA
BRANCH  21  22
ATOM     22  C   UNL     1       6.438   4.279  17.735  0.00  0.00    +0.000 C 
BRANCH  22  23
ATOM     23  C   UNL     1       7.020   5.666  17.855  0.00  0.00    +0.000 A 
ATOM     24  C   UNL     1       7.922   5.974  18.883  0.00  0.00    +0.000 A 
ATOM     25  C   UNL     1       8.438   7.266  19.007  0.00  0.00    +0.000 A 
ATOM     26  C   UNL     1       8.058   8.253  18.100  0.00  0.00    +0.000 A 
ATOM     27 CL   UNL     1       8.675   9.850  18.266  0.00  0.00    +0.000 Cl
ATOM     28  C   UNL     1       7.175   7.959  17.064  0.00  0.00    +0.000 A 
ATOM     29  C   UNL     1       6.658   6.668  16.943  0.00  0.00    +0.000 A 
ENDBRANCH  22  23
ENDBRANCH  21  22
ENDBRANCH   5  21
TORSDOF 8
ENDMDL
MODEL 9
REMARK VINA RESULT:      -6.8      1.100      1.570
REMARK  Name = 
REMARK  8 active torsions:
REMARK  status: ('A' for Active; 'I' for Inactive)
REMARK    1  A    between atoms: C_2  and  O_3
REMARK    2  A    between atoms: C_2  and  C_4
REMARK    3  A    between atoms: C_4  and  C_5
REMARK    4  A    between atoms: C_5  and  N_6
REMARK    5  A    between atoms: C_10  and  C_11
REMARK    6  A    between atoms: C_15  and  O_16
REMARK    7  A    between atoms: O_16  and  C_17
REMARK    8  A    between atoms: C_17  and  C_18
REMARK                            x       y       z     vdW  Elec       q    Type
REMARK                         _______ _______ _______ _____ _____    ______ ____
ROOT
ATOM      1  C   UNL     1       2.235   3.771  18.546  0.00  0.00    +0.000 A 
ATOM      2  C   UNL     1       2.119   2.534  19.186  0.00  0.00    +0.000 A 
ATOM      3  C   UNL     1       1.649   2.467  20.497  0.00  0.00    +0.000 A 
ATOM      4  C   UNL     1       1.310   3.637  21.181  0.00  0.00    +0.000 A 
ATOM      5  C   UNL     1       1.456   4.877  20.556  0.00  0.00    +0.000 A 
ATOM      6  C   UNL     1       1.885   4.940  19.229  0.00  0.00    +0.000 A 
ENDROOT
BRANCH   1  11
ATOM      7  N   UNL     1       6.349   4.524  17.021  0.00  0.00    +0.000 N 
ATOM      8  C   UNL     1       5.191   4.294  17.758  0.00  0.00    +0.000 C 
ATOM      9  O   UNL     1       5.128   4.262  18.977  0.00  0.00    +0.000 OA
ATOM     10  C   UNL     1       4.029   4.062  16.845  0.00  0.00    +0.000 C 
ATOM     11  C   UNL     1       2.748   3.840  17.178  0.00  0.00    +0.000 C 
ATOM     12  S   UNL     1       4.557   4.116  15.205  0.00  0.00    +0.000 S 
ATOM     13  C   UNL     1       6.231   4.411  15.649  0.00  0.00    +0.000 C 
ATOM     14  S   UNL     1       7.434   4.519  14.497  0.00  0.00    +0.000 S 
BRANCH   7  15
ATOM     15  C   UNL     1       7.607   4.769  17.736  0.00  0.00    +0.000 C 
BRANCH  15  16
ATOM     16  C   UNL     1       7.647   6.125  18.444  0.00  0.00    +0.000 C 
BRANCH  16  18
ATOM     17  O   UNL     1       6.039   7.657  17.477  0.00  0.00    +0.000 OA
ATOM     18  C   UNL     1       7.174   7.215  17.519  0.00  0.00    +0.000 C 
BRANCH  18  19
ATOM     19  O   UNL     1       8.158   7.681  16.710  0.00  0.00    +0.000 OA
ATOM     20  H   UNL     1       9.059   7.398  16.963  0.00  0.00    +0.000 HD
ENDBRANCH  18  19
ENDBRANCH  16  18
ENDBRANCH  15  16
ENDBRANCH   7  15
ENDBRANCH   1  11
BRANCH   5  21
ATOM     21  O   UNL     1       1.207   6.083  21.156  0.00  0.00    +0.000 OA
BRANCH  21  22
ATOM     22  C   UNL     1       1.751   7.217  20.476  0.00  0.00    +0.000 C 
BRANCH  22  23
ATOM     23  C   UNL     1       1.048   8.458  20.967  0.00  0.00    +0.000 A 
ATOM     24  C   UNL     1       0.847   9.550  20.110  0.00  0.00    +0.000 A 
ATOM     25  C   UNL     1       0.219  10.708  20.577  0.00  0.00    +0.000 A 
ATOM     26  C   UNL     1      -0.214  10.776  21.899  0.00  0.00    +0.000 A 
ATOM     27 CL   UNL     1      -0.965  12.210  22.480  0.00  0.00    +0.000 Cl
ATOM     28  C   UNL     1      -0.034   9.694  22.759  0.00  0.00    +0.000 A 
ATOM     29  C   UNL     1       0.595   8.538  22.292  0.00  0.00    +0.000 A 
ENDBRANCH  22  23
ENDBRANCH  21  22
ENDBRANCH   5  21
TORSDOF 8
ENDMDL
