MODEL 1
REMARK VINA RESULT:      -6.3      0.000      0.000
REMARK  Name = 
REMARK  13 active torsions:
REMARK  status: ('A' for Active; 'I' for Inactive)
REMARK    1  A    between atoms: C_1  and  N_2
REMARK    2  A    between atoms: N_2  and  C_3
REMARK    3  A    between atoms: N_2  and  C_4
REMARK    4  A    between atoms: C_4  and  C_5
REMARK    5  A    between atoms: C_5  and  N_6
REMARK    6  A    between atoms: C_7  and  C_9
REMARK    7  A    between atoms: C_12  and  N_13
REMARK    8  A    between atoms: N_16  and  C_17
REMARK    9  A    between atoms: C_20  and  N_21
REMARK   10  A    between atoms: N_21  and  C_22
REMARK   11  A    between atoms: N_21  and  C_25
REMARK   12  A    between atoms: C_22  and  C_23
REMARK   13  A    between atoms: C_25  and  C_26
REMARK                            x       y       z     vdW  Elec       q    Type
REMARK                         _______ _______ _______ _____ _____    ______ ____
ROOT
ATOM      1  N   UNL     1       0.699  10.511  19.169  0.00  0.00    +0.000 N 
ATOM      2  C   UNL     1      -0.675  10.560  19.337  0.00  0.00    +0.000 C 
ATOM      3  O   UNL     1      -1.379   9.578  19.551  0.00  0.00    +0.000 OA
ATOM      4  N   UNL     1      -1.168  11.846  19.204  0.00  0.00    +0.000 N 
ATOM      5  H   UNL     1       1.202  11.333  19.473  0.00  0.00    +0.000 HD
ATOM      6  H   UNL     1      -0.668  12.406  18.529  0.00  0.00    +0.000 HD
ENDROOT
BRANCH   1  10
ATOM      7  C   UNL     1       2.920   6.952  18.600  0.00  0.00    +0.000 A 
ATOM      8  C   UNL     1       2.317   7.206  19.833  0.00  0.00    +0.000 A 
ATOM      9  C   UNL     1       1.574   8.374  20.020  0.00  0.00    +0.000 A 
ATOM     10  C   UNL     1       1.441   9.318  18.997  0.00  0.00    +0.000 A 
ATOM     11  C   UNL     1       2.038   9.060  17.759  0.00  0.00    +0.000 A 
ATOM     12  C   UNL     1       2.789   7.890  17.566  0.00  0.00    +0.000 A 
BRANCH   7  14
ATOM     13  N   UNL     1       3.955   4.929  19.485  0.00  0.00    +0.000 N 
ATOM     14  C   UNL     1       3.733   5.722  18.379  0.00  0.00    +0.000 C 
ATOM     15  O   UNL     1       4.146   5.452  17.256  0.00  0.00    +0.000 OA
ATOM     16  H   UNL     1       3.394   5.055  20.319  0.00  0.00    +0.000 HD
BRANCH  13  17
ATOM     17  C   UNL     1       4.643   3.658  19.377  0.00  0.00    +0.000 C 
BRANCH  17  18
ATOM     18  C   UNL     1       3.872   2.518  20.069  0.00  0.00    +0.000 C 
BRANCH  18  20
ATOM     19  C   UNL     1       1.539   2.347  19.384  0.00  0.00    +0.000 C 
ATOM     20  N   UNL     1       2.892   1.809  19.211  0.00  0.00    +0.000 NA
ATOM     21  C   UNL     1       3.288   1.954  17.803  0.00  0.00    +0.000 C 
ENDBRANCH  18  20
ENDBRANCH  17  18
ENDBRANCH  13  17
ENDBRANCH   7  14
ENDBRANCH   1  10
BRANCH   4  22
ATOM     22  C   UNL     1      -2.544  12.126  19.361  0.00  0.00    +0.000 A 
ATOM     23  C   UNL     1      -3.048  12.769  20.490  0.00  0.00    +0.000 A 
ATOM     24  C   UNL     1      -4.428  12.976  20.641  0.00  0.00    +0.000 A 
ATOM     25  C   UNL     1      -5.354  12.533  19.685  0.00  0.00    +0.000 A 
ATOM     26  C   UNL     1      -4.808  11.919  18.542  0.00  0.00    +0.000 A 
ATOM     27  C   UNL     1      -3.429  11.733  18.367  0.00  0.00    +0.000 A 
BRANCH  25  28
ATOM     28  N   UNL     1      -6.728  12.662  19.871  0.00  0.00    +0.000 N 
BRANCH  28  29
ATOM     29  C   UNL     1      -7.641  12.980  18.754  0.00  0.00    +0.000 C 
BRANCH  29  30
ATOM     30  C   UNL     1      -7.503  14.409  18.217  0.00  0.00    +0.000 C 
ATOM     31 CL   UNL     1      -6.761  14.466  16.595  0.00  0.00    +0.000 Cl
ENDBRANCH  29  30
ENDBRANCH  28  29
BRANCH  28  32
ATOM     32  C   UNL     1      -7.358  12.305  21.159  0.00  0.00    +0.000 C 
BRANCH  32  33
ATOM     33  C   UNL     1      -7.911  13.537  21.883  0.00  0.00    +0.000 C 
ATOM     34 CL   UNL     1      -6.757  14.111  23.117  0.00  0.00    +0.000 Cl
ENDBRANCH  32  33
ENDBRANCH  28  32
ENDBRANCH  25  28
ENDBRANCH   4  22
TORSDOF 11
ENDMDL
MODEL 2
REMARK VINA RESULT:      -6.3      5.271     11.979
REMARK  Name = 
REMARK  13 active torsions:
REMARK  status: ('A' for Active; 'I' for Inactive)
REMARK    1  A    between atoms: C_1  and  N_2
REMARK    2  A    between atoms: N_2  and  C_3
REMARK    3  A    between atoms: N_2  and  C_4
REMARK    4  A    between atoms: C_4  and  C_5
REMARK    5  A    between atoms: C_5  and  N_6
REMARK    6  A    between atoms: C_7  and  C_9
REMARK    7  A    between atoms: C_12  and  N_13
REMARK    8  A    between atoms: N_16  and  C_17
REMARK    9  A    between atoms: C_20  and  N_21
REMARK   10  A    between atoms: N_21  and  C_22
REMARK   11  A    between atoms: N_21  and  C_25
REMARK   12  A    between atoms: C_22  and  C_23
REMARK   13  A    between atoms: C_25  and  C_26
REMARK                            x       y       z     vdW  Elec       q    Type
REMARK                         _______ _______ _______ _____ _____    ______ ____
ROOT
ATOM      1  N   UNL     1       1.256   7.955  21.310  0.00  0.00    +0.000 N 
ATOM      2  C   UNL     1       1.958   7.712  20.140  0.00  0.00    +0.000 C 
ATOM      3  O   UNL     1       2.163   8.556  19.271  0.00  0.00    +0.000 OA
ATOM      4  N   UNL     1       2.376   6.397  20.050  0.00  0.00    +0.000 N 
ATOM      5  H   UNL     1       1.544   7.407  22.108  0.00  0.00    +0.000 HD
ATOM      6  H   UNL     1       1.734   5.736  20.462  0.00  0.00    +0.000 HD
ENDROOT
BRANCH   1  10
ATOM      7  C   UNL     1      -1.042  11.422  22.095  0.00  0.00    +0.000 A 
ATOM      8  C   UNL     1      -0.341  11.310  20.893  0.00  0.00    +0.000 A 
ATOM      9  C   UNL     1       0.409  10.162  20.627  0.00  0.00    +0.000 A 
ATOM     10  C   UNL     1       0.495   9.122  21.558  0.00  0.00    +0.000 A 
ATOM     11  C   UNL     1      -0.214   9.231  22.758  0.00  0.00    +0.000 A 
ATOM     12  C   UNL     1      -0.966  10.384  23.033  0.00  0.00    +0.000 A 
BRANCH   7  14
ATOM     13  N   UNL     1      -3.205  12.530  22.297  0.00  0.00    +0.000 N 
ATOM     14  C   UNL     1      -1.835  12.644  22.412  0.00  0.00    +0.000 C 
ATOM     15  O   UNL     1      -1.268  13.669  22.775  0.00  0.00    +0.000 OA
ATOM     16  H   UNL     1      -3.635  11.614  22.243  0.00  0.00    +0.000 HD
BRANCH  13  17
ATOM     17  C   UNL     1      -4.087  13.617  22.675  0.00  0.00    +0.000 C 
BRANCH  17  18
ATOM     18  C   UNL     1      -5.155  13.172  23.693  0.00  0.00    +0.000 C 
BRANCH  18  20
ATOM     19  C   UNL     1      -6.689  13.735  21.883  0.00  0.00    +0.000 C 
ATOM     20  N   UNL     1      -6.553  13.504  23.325  0.00  0.00    +0.000 NA
ATOM     21  C   UNL     1      -7.433  12.394  23.716  0.00  0.00    +0.000 C 
ENDBRANCH  18  20
ENDBRANCH  17  18
ENDBRANCH  13  17
ENDBRANCH   7  14
ENDBRANCH   1  10
BRANCH   4  22
ATOM     22  C   UNL     1       3.131   5.939  18.946  0.00  0.00    +0.000 A 
ATOM     23  C   UNL     1       3.385   4.587  18.730  0.00  0.00    +0.000 A 
ATOM     24  C   UNL     1       4.191   4.171  17.657  0.00  0.00    +0.000 A 
ATOM     25  C   UNL     1       4.786   5.087  16.778  0.00  0.00    +0.000 A 
ATOM     26  C   UNL     1       4.480   6.443  17.006  0.00  0.00    +0.000 A 
ATOM     27  C   UNL     1       3.653   6.867  18.056  0.00  0.00    +0.000 A 
BRANCH  25  28
ATOM     28  N   UNL     1       5.653   4.685  15.765  0.00  0.00    +0.000 N 
BRANCH  28  29
ATOM     29  C   UNL     1       5.163   4.292  14.428  0.00  0.00    +0.000 C 
BRANCH  29  30
ATOM     30  C   UNL     1       6.270   3.887  13.447  0.00  0.00    +0.000 C 
ATOM     31 CL   UNL     1       5.652   2.946  12.064  0.00  0.00    +0.000 Cl
ENDBRANCH  29  30
ENDBRANCH  28  29
BRANCH  28  32
ATOM     32  C   UNL     1       7.117   4.809  15.924  0.00  0.00    +0.000 C 
BRANCH  32  33
ATOM     33  C   UNL     1       7.557   4.546  17.367  0.00  0.00    +0.000 C 
ATOM     34 CL   UNL     1       7.851   6.083  18.223  0.00  0.00    +0.000 Cl
ENDBRANCH  32  33
ENDBRANCH  28  32
ENDBRANCH  25  28
ENDBRANCH   4  22
TORSDOF 11
ENDMDL
MODEL 3
REMARK VINA RESULT:      -6.3      5.085     11.988
REMARK  Name = 
REMARK  13 active torsions:
REMARK  status: ('A' for Active; 'I' for Inactive)
REMARK    1  A    between atoms: C_1  and  N_2
REMARK    2  A    between atoms: N_2  and  C_3
REMARK    3  A    between atoms: N_2  and  C_4
REMARK    4  A    between atoms: C_4  and  C_5
REMARK    5  A    between atoms: C_5  and  N_6
REMARK    6  A    between atoms: C_7  and  C_9
REMARK    7  A    between atoms: C_12  and  N_13
REMARK    8  A    between atoms: N_16  and  C_17
REMARK    9  A    between atoms: C_20  and  N_21
REMARK   10  A    between atoms: N_21  and  C_22
REMARK   11  A    between atoms: N_21  and  C_25
REMARK   12  A    between atoms: C_22  and  C_23
REMARK   13  A    between atoms: C_25  and  C_26
REMARK                            x       y       z     vdW  Elec       q    Type
REMARK                         _______ _______ _______ _____ _____    ______ ____
ROOT
ATOM      1  N   UNL     1       0.505   8.188  21.568  0.00  0.00    +0.000 N 
ATOM      2  C   UNL     1       1.451   7.887  20.601  0.00  0.00    +0.000 C 
ATOM      3  O   UNL     1       1.959   8.716  19.851  0.00  0.00    +0.000 OA
ATOM      4  N   UNL     1       1.734   6.534  20.558  0.00  0.00    +0.000 N 
ATOM      5  H   UNL     1       0.521   7.597  22.388  0.00  0.00    +0.000 HD
ATOM      6  H   UNL     1       0.942   5.944  20.766  0.00  0.00    +0.000 HD
ENDROOT
BRANCH   1  10
ATOM      7  C   UNL     1      -1.504  11.896  21.931  0.00  0.00    +0.000 A 
ATOM      8  C   UNL     1      -1.151  11.417  20.668  0.00  0.00    +0.000 A 
ATOM      9  C   UNL     1      -0.497  10.188  20.545  0.00  0.00    +0.000 A 
ATOM     10  C   UNL     1      -0.163   9.431  21.672  0.00  0.00    +0.000 A 
ATOM     11  C   UNL     1      -0.525   9.907  22.936  0.00  0.00    +0.000 A 
ATOM     12  C   UNL     1      -1.178  11.143  23.066  0.00  0.00    +0.000 A 
BRANCH   7  14
ATOM     13  N   UNL     1      -3.563  13.201  22.014  0.00  0.00    +0.000 N 
ATOM     14  C   UNL     1      -2.186  13.212  22.092  0.00  0.00    +0.000 C 
ATOM     15  O   UNL     1      -1.527  14.225  22.304  0.00  0.00    +0.000 OA
ATOM     16  H   UNL     1      -4.068  12.326  22.091  0.00  0.00    +0.000 HD
BRANCH  13  17
ATOM     17  C   UNL     1      -4.343  14.399  22.255  0.00  0.00    +0.000 C 
BRANCH  17  18
ATOM     18  C   UNL     1      -4.950  14.423  23.671  0.00  0.00    +0.000 C 
BRANCH  18  20
ATOM     19  C   UNL     1      -7.047  14.652  22.449  0.00  0.00    +0.000 C 
ATOM     20  N   UNL     1      -6.425  14.289  23.726  0.00  0.00    +0.000 NA
ATOM     21  C   UNL     1      -6.772  12.897  24.048  0.00  0.00    +0.000 C 
ENDBRANCH  18  20
ENDBRANCH  17  18
ENDBRANCH  13  17
ENDBRANCH   7  14
ENDBRANCH   1  10
BRANCH   4  22
ATOM     22  C   UNL     1       2.691   6.011  19.658  0.00  0.00    +0.000 A 
ATOM     23  C   UNL     1       3.455   4.885  19.957  0.00  0.00    +0.000 A 
ATOM     24  C   UNL     1       4.440   4.430  19.065  0.00  0.00    +0.000 A 
ATOM     25  C   UNL     1       4.711   5.090  17.858  0.00  0.00    +0.000 A 
ATOM     26  C   UNL     1       3.897   6.203  17.572  0.00  0.00    +0.000 A 
ATOM     27  C   UNL     1       2.890   6.649  18.442  0.00  0.00    +0.000 A 
BRANCH  25  28
ATOM     28  N   UNL     1       5.742   4.692  17.011  0.00  0.00    +0.000 N 
BRANCH  28  29
ATOM     29  C   UNL     1       5.485   4.225  15.634  0.00  0.00    +0.000 C 
BRANCH  29  30
ATOM     30  C   UNL     1       6.664   4.422  14.673  0.00  0.00    +0.000 C 
ATOM     31 CL   UNL     1       6.350   3.747  13.052  0.00  0.00    +0.000 Cl
ENDBRANCH  29  30
ENDBRANCH  28  29
BRANCH  28  32
ATOM     32  C   UNL     1       7.156   4.891  17.390  0.00  0.00    +0.000 C 
BRANCH  32  33
ATOM     33  C   UNL     1       7.323   6.051  18.377  0.00  0.00    +0.000 C 
ATOM     34 CL   UNL     1       7.709   7.562  17.511  0.00  0.00    +0.000 Cl
ENDBRANCH  32  33
ENDBRANCH  28  32
ENDBRANCH  25  28
ENDBRANCH   4  22
TORSDOF 11
ENDMDL
MODEL 4
REMARK VINA RESULT:      -6.2      5.064     12.130
REMARK  Name = 
REMARK  13 active torsions:
REMARK  status: ('A' for Active; 'I' for Inactive)
REMARK    1  A    between atoms: C_1  and  N_2
REMARK    2  A    between atoms: N_2  and  C_3
REMARK    3  A    between atoms: N_2  and  C_4
REMARK    4  A    between atoms: C_4  and  C_5
REMARK    5  A    between atoms: C_5  and  N_6
REMARK    6  A    between atoms: C_7  and  C_9
REMARK    7  A    between atoms: C_12  and  N_13
REMARK    8  A    between atoms: N_16  and  C_17
REMARK    9  A    between atoms: C_20  and  N_21
REMARK   10  A    between atoms: N_21  and  C_22
REMARK   11  A    between atoms: N_21  and  C_25
REMARK   12  A    between atoms: C_22  and  C_23
REMARK   13  A    between atoms: C_25  and  C_26
REMARK                            x       y       z     vdW  Elec       q    Type
REMARK                         _______ _______ _______ _____ _____    ______ ____
ROOT
ATOM      1  N   UNL     1       0.656   7.855  21.530  0.00  0.00    +0.000 N 
ATOM      2  C   UNL     1       1.633   7.609  20.579  0.00  0.00    +0.000 C 
ATOM      3  O   UNL     1       2.179   8.481  19.908  0.00  0.00    +0.000 OA
ATOM      4  N   UNL     1       1.901   6.258  20.449  0.00  0.00    +0.000 N 
ATOM      5  H   UNL     1       0.634   7.207  22.305  0.00  0.00    +0.000 HD
ATOM      6  H   UNL     1       1.094   5.668  20.586  0.00  0.00    +0.000 HD
ENDROOT
BRANCH   1  10
ATOM      7  C   UNL     1      -1.296  11.585  21.979  0.00  0.00    +0.000 A 
ATOM      8  C   UNL     1      -1.046  10.791  23.100  0.00  0.00    +0.000 A 
ATOM      9  C   UNL     1      -0.392   9.564  22.956  0.00  0.00    +0.000 A 
ATOM     10  C   UNL     1       0.000   9.097  21.698  0.00  0.00    +0.000 A 
ATOM     11  C   UNL     1      -0.242   9.897  20.576  0.00  0.00    +0.000 A 
ATOM     12  C   UNL     1      -0.903  11.128  20.714  0.00  0.00    +0.000 A 
BRANCH   7  14
ATOM     13  N   UNL     1      -3.382  12.847  21.997  0.00  0.00    +0.000 N 
ATOM     14  C   UNL     1      -2.007  12.889  22.103  0.00  0.00    +0.000 C 
ATOM     15  O   UNL     1      -1.374  13.919  22.308  0.00  0.00    +0.000 OA
ATOM     16  H   UNL     1      -3.870  11.963  22.081  0.00  0.00    +0.000 HD
BRANCH  13  17
ATOM     17  C   UNL     1      -4.191  14.033  22.201  0.00  0.00    +0.000 C 
BRANCH  17  18
ATOM     18  C   UNL     1      -4.759  14.111  23.631  0.00  0.00    +0.000 C 
BRANCH  18  20
ATOM     19  C   UNL     1      -6.526  15.791  23.668  0.00  0.00    +0.000 C 
ATOM     20  N   UNL     1      -6.219  14.358  23.716  0.00  0.00    +0.000 NA
ATOM     21  C   UNL     1      -6.889  13.689  22.592  0.00  0.00    +0.000 C 
ENDBRANCH  18  20
ENDBRANCH  17  18
ENDBRANCH  13  17
ENDBRANCH   7  14
ENDBRANCH   1  10
BRANCH   4  22
ATOM     22  C   UNL     1       2.883   5.786  19.549  0.00  0.00    +0.000 A 
ATOM     23  C   UNL     1       3.667   4.668  19.825  0.00  0.00    +0.000 A 
ATOM     24  C   UNL     1       4.677   4.263  18.936  0.00  0.00    +0.000 A 
ATOM     25  C   UNL     1       4.952   4.968  17.755  0.00  0.00    +0.000 A 
ATOM     26  C   UNL     1       4.118   6.072  17.492  0.00  0.00    +0.000 A 
ATOM     27  C   UNL     1       3.088   6.468  18.358  0.00  0.00    +0.000 A 
BRANCH  25  28
ATOM     28  N   UNL     1       6.005   4.620  16.914  0.00  0.00    +0.000 N 
BRANCH  28  29
ATOM     29  C   UNL     1       7.406   4.961  17.234  0.00  0.00    +0.000 C 
BRANCH  29  30
ATOM     30  C   UNL     1       7.559   6.056  18.298  0.00  0.00    +0.000 C 
ATOM     31 CL   UNL     1       7.705   7.687  17.590  0.00  0.00    +0.000 Cl
ENDBRANCH  29  30
ENDBRANCH  28  29
BRANCH  28  32
ATOM     32  C   UNL     1       5.789   3.733  15.752  0.00  0.00    +0.000 C 
BRANCH  32  33
ATOM     33  C   UNL     1       6.517   4.242  14.504  0.00  0.00    +0.000 C 
ATOM     34 CL   UNL     1       5.704   3.666  13.025  0.00  0.00    +0.000 Cl
ENDBRANCH  32  33
ENDBRANCH  28  32
ENDBRANCH  25  28
ENDBRANCH   4  22
TORSDOF 11
ENDMDL
MODEL 5
REMARK VINA RESULT:      -6.1      1.973      2.721
REMARK  Name = 
REMARK  13 active torsions:
REMARK  status: ('A' for Active; 'I' for Inactive)
REMARK    1  A    between atoms: C_1  and  N_2
REMARK    2  A    between atoms: N_2  and  C_3
REMARK    3  A    between atoms: N_2  and  C_4
REMARK    4  A    between atoms: C_4  and  C_5
REMARK    5  A    between atoms: C_5  and  N_6
REMARK    6  A    between atoms: C_7  and  C_9
REMARK    7  A    between atoms: C_12  and  N_13
REMARK    8  A    between atoms: N_16  and  C_17
REMARK    9  A    between atoms: C_20  and  N_21
REMARK   10  A    between atoms: N_21  and  C_22
REMARK   11  A    between atoms: N_21  and  C_25
REMARK   12  A    between atoms: C_22  and  C_23
REMARK   13  A    between atoms: C_25  and  C_26
REMARK                            x       y       z     vdW  Elec       q    Type
REMARK                         _______ _______ _______ _____ _____    ______ ____
ROOT
ATOM      1  N   UNL     1       0.799  10.419  19.124  0.00  0.00    +0.000 N 
ATOM      2  C   UNL     1      -0.485  10.553  19.628  0.00  0.00    +0.000 C 
ATOM      3  O   UNL     1      -1.084   9.668  20.232  0.00  0.00    +0.000 OA
ATOM      4  N   UNL     1      -1.026  11.794  19.344  0.00  0.00    +0.000 N 
ATOM      5  H   UNL     1       1.343  11.270  19.096  0.00  0.00    +0.000 HD
ATOM      6  H   UNL     1      -0.734  12.172  18.456  0.00  0.00    +0.000 HD
ENDROOT
BRANCH   1  10
ATOM      7  C   UNL     1       2.896   6.756  18.804  0.00  0.00    +0.000 A 
ATOM      8  C   UNL     1       2.261   7.091  20.000  0.00  0.00    +0.000 A 
ATOM      9  C   UNL     1       1.558   8.294  20.105  0.00  0.00    +0.000 A 
ATOM     10  C   UNL     1       1.498   9.192  19.035  0.00  0.00    +0.000 A 
ATOM     11  C   UNL     1       2.128   8.852  17.833  0.00  0.00    +0.000 A 
ATOM     12  C   UNL     1       2.838   7.646  17.723  0.00  0.00    +0.000 A 
BRANCH   7  14
ATOM     13  N   UNL     1       3.401   4.725  17.552  0.00  0.00    +0.000 N 
ATOM     14  C   UNL     1       3.667   5.487  18.670  0.00  0.00    +0.000 C 
ATOM     15  O   UNL     1       4.500   5.181  19.517  0.00  0.00    +0.000 OA
ATOM     16  H   UNL     1       2.902   5.130  16.769  0.00  0.00    +0.000 HD
BRANCH  13  17
ATOM     17  C   UNL     1       4.157   3.522  17.260  0.00  0.00    +0.000 C 
BRANCH  17  18
ATOM     18  C   UNL     1       5.432   3.820  16.448  0.00  0.00    +0.000 C 
BRANCH  18  20
ATOM     19  C   UNL     1       5.598   6.045  15.466  0.00  0.00    +0.000 C 
ATOM     20  N   UNL     1       5.227   4.646  15.234  0.00  0.00    +0.000 NA
ATOM     21  C   UNL     1       6.049   4.109  14.140  0.00  0.00    +0.000 C 
ENDBRANCH  18  20
ENDBRANCH  17  18
ENDBRANCH  13  17
ENDBRANCH   7  14
ENDBRANCH   1  10
BRANCH   4  22
ATOM     22  C   UNL     1      -2.320  12.151  19.787  0.00  0.00    +0.000 A 
ATOM     23  C   UNL     1      -3.447  12.007  18.981  0.00  0.00    +0.000 A 
ATOM     24  C   UNL     1      -4.709  12.430  19.431  0.00  0.00    +0.000 A 
ATOM     25  C   UNL     1      -4.887  13.027  20.687  0.00  0.00    +0.000 A 
ATOM     26  C   UNL     1      -3.733  13.125  21.488  0.00  0.00    +0.000 A 
ATOM     27  C   UNL     1      -2.473  12.680  21.061  0.00  0.00    +0.000 A 
BRANCH  25  28
ATOM     28  N   UNL     1      -6.120  13.524  21.103  0.00  0.00    +0.000 N 
BRANCH  28  29
ATOM     29  C   UNL     1      -7.391  12.879  20.716  0.00  0.00    +0.000 C 
BRANCH  29  30
ATOM     30  C   UNL     1      -7.636  11.521  21.385  0.00  0.00    +0.000 C 
ATOM     31 CL   UNL     1      -7.366  10.150  20.277  0.00  0.00    +0.000 Cl
ENDBRANCH  29  30
ENDBRANCH  28  29
BRANCH  28  32
ATOM     32  C   UNL     1      -6.204  14.611  22.099  0.00  0.00    +0.000 C 
BRANCH  32  33
ATOM     33  C   UNL     1      -7.614  14.738  22.686  0.00  0.00    +0.000 C 
ATOM     34 CL   UNL     1      -7.719  13.899  24.256  0.00  0.00    +0.000 Cl
ENDBRANCH  32  33
ENDBRANCH  28  32
ENDBRANCH  25  28
ENDBRANCH   4  22
TORSDOF 11
ENDMDL
MODEL 6
REMARK VINA RESULT:      -6.1      5.314     12.232
REMARK  Name = 
REMARK  13 active torsions:
REMARK  status: ('A' for Active; 'I' for Inactive)
REMARK    1  A    between atoms: C_1  and  N_2
REMARK    2  A    between atoms: N_2  and  C_3
REMARK    3  A    between atoms: N_2  and  C_4
REMARK    4  A    between atoms: C_4  and  C_5
REMARK    5  A    between atoms: C_5  and  N_6
REMARK    6  A    between atoms: C_7  and  C_9
REMARK    7  A    between atoms: C_12  and  N_13
REMARK    8  A    between atoms: N_16  and  C_17
REMARK    9  A    between atoms: C_20  and  N_21
REMARK   10  A    between atoms: N_21  and  C_22
REMARK   11  A    between atoms: N_21  and  C_25
REMARK   12  A    between atoms: C_22  and  C_23
REMARK   13  A    between atoms: C_25  and  C_26
REMARK                            x       y       z     vdW  Elec       q    Type
REMARK                         _______ _______ _______ _____ _____    ______ ____
ROOT
ATOM      1  N   UNL     1       0.415   8.100  21.596  0.00  0.00    +0.000 N 
ATOM      2  C   UNL     1       1.427   7.811  20.695  0.00  0.00    +0.000 C 
ATOM      3  O   UNL     1       2.038   8.657  20.049  0.00  0.00    +0.000 OA
ATOM      4  N   UNL     1       1.650   6.450  20.586  0.00  0.00    +0.000 N 
ATOM      5  H   UNL     1       0.330   7.458  22.372  0.00  0.00    +0.000 HD
ATOM      6  H   UNL     1       0.815   5.891  20.685  0.00  0.00    +0.000 HD
ENDROOT
BRANCH   1  10
ATOM      7  C   UNL     1      -1.418  11.901  21.930  0.00  0.00    +0.000 A 
ATOM      8  C   UNL     1      -1.172  11.145  23.077  0.00  0.00    +0.000 A 
ATOM      9  C   UNL     1      -0.557   9.895  22.971  0.00  0.00    +0.000 A 
ATOM     10  C   UNL     1      -0.201   9.367  21.725  0.00  0.00    +0.000 A 
ATOM     11  C   UNL     1      -0.441  10.129  20.577  0.00  0.00    +0.000 A 
ATOM     12  C   UNL     1      -1.062  11.384  20.677  0.00  0.00    +0.000 A 
BRANCH   7  14
ATOM     13  N   UNL     1      -2.344  13.707  23.282  0.00  0.00    +0.000 N 
ATOM     14  C   UNL     1      -2.088  13.230  22.013  0.00  0.00    +0.000 C 
ATOM     15  O   UNL     1      -2.362  13.846  20.988  0.00  0.00    +0.000 OA
ATOM     16  H   UNL     1      -1.882  13.292  24.082  0.00  0.00    +0.000 HD
BRANCH  13  17
ATOM     17  C   UNL     1      -2.899  15.030  23.493  0.00  0.00    +0.000 C 
BRANCH  17  18
ATOM     18  C   UNL     1      -4.385  14.980  23.896  0.00  0.00    +0.000 C 
BRANCH  18  20
ATOM     19  C   UNL     1      -6.559  16.060  23.659  0.00  0.00    +0.000 C 
ATOM     20  N   UNL     1      -5.112  16.268  23.782  0.00  0.00    +0.000 NA
ATOM     21  C   UNL     1      -4.847  17.079  24.979  0.00  0.00    +0.000 C 
ENDBRANCH  18  20
ENDBRANCH  17  18
ENDBRANCH  13  17
ENDBRANCH   7  14
ENDBRANCH   1  10
BRANCH   4  22
ATOM     22  C   UNL     1       2.656   5.935  19.738  0.00  0.00    +0.000 A 
ATOM     23  C   UNL     1       3.473   4.871  20.114  0.00  0.00    +0.000 A 
ATOM     24  C   UNL     1       4.504   4.425  19.271  0.00  0.00    +0.000 A 
ATOM     25  C   UNL     1       4.770   5.036  18.037  0.00  0.00    +0.000 A 
ATOM     26  C   UNL     1       3.905   6.085  17.674  0.00  0.00    +0.000 A 
ATOM     27  C   UNL     1       2.853   6.519  18.494  0.00  0.00    +0.000 A 
BRANCH  25  28
ATOM     28  N   UNL     1       5.843   4.652  17.237  0.00  0.00    +0.000 N 
BRANCH  28  29
ATOM     29  C   UNL     1       7.235   4.686  17.730  0.00  0.00    +0.000 C 
BRANCH  29  30
ATOM     30  C   UNL     1       7.618   5.989  18.442  0.00  0.00    +0.000 C 
ATOM     31 CL   UNL     1       7.551   7.408  17.364  0.00  0.00    +0.000 Cl
ENDBRANCH  29  30
ENDBRANCH  28  29
BRANCH  28  32
ATOM     32  C   UNL     1       5.622   4.019  15.920  0.00  0.00    +0.000 C 
BRANCH  32  33
ATOM     33  C   UNL     1       5.689   5.040  14.780  0.00  0.00    +0.000 C 
ATOM     34 CL   UNL     1       7.274   4.968  13.966  0.00  0.00    +0.000 Cl
ENDBRANCH  32  33
ENDBRANCH  28  32
ENDBRANCH  25  28
ENDBRANCH   4  22
TORSDOF 11
ENDMDL
MODEL 7
REMARK VINA RESULT:      -6.1      1.831      2.770
REMARK  Name = 
REMARK  13 active torsions:
REMARK  status: ('A' for Active; 'I' for Inactive)
REMARK    1  A    between atoms: C_1  and  N_2
REMARK    2  A    between atoms: N_2  and  C_3
REMARK    3  A    between atoms: N_2  and  C_4
REMARK    4  A    between atoms: C_4  and  C_5
REMARK    5  A    between atoms: C_5  and  N_6
REMARK    6  A    between atoms: C_7  and  C_9
REMARK    7  A    between atoms: C_12  and  N_13
REMARK    8  A    between atoms: N_16  and  C_17
REMARK    9  A    between atoms: C_20  and  N_21
REMARK   10  A    between atoms: N_21  and  C_22
REMARK   11  A    between atoms: N_21  and  C_25
REMARK   12  A    between atoms: C_22  and  C_23
REMARK   13  A    between atoms: C_25  and  C_26
REMARK                            x       y       z     vdW  Elec       q    Type
REMARK                         _______ _______ _______ _____ _____    ______ ____
ROOT
ATOM      1  N   UNL     1       0.907  10.509  20.443  0.00  0.00    +0.000 N 
ATOM      2  C   UNL     1      -0.433  10.681  20.753  0.00  0.00    +0.000 C 
ATOM      3  O   UNL     1      -1.274   9.789  20.697  0.00  0.00    +0.000 OA
ATOM      4  N   UNL     1      -0.719  11.988  21.104  0.00  0.00    +0.000 N 
ATOM      5  H   UNL     1       1.548  11.101  20.952  0.00  0.00    +0.000 HD
ATOM      6  H   UNL     1      -0.168  12.673  20.608  0.00  0.00    +0.000 HD
ENDROOT
BRANCH   1  10
ATOM      7  C   UNL     1       2.490   7.095  18.505  0.00  0.00    +0.000 A 
ATOM      8  C   UNL     1       2.210   7.051  19.871  0.00  0.00    +0.000 A 
ATOM      9  C   UNL     1       1.677   8.173  20.511  0.00  0.00    +0.000 A 
ATOM     10  C   UNL     1       1.438   9.360  19.812  0.00  0.00    +0.000 A 
ATOM     11  C   UNL     1       1.712   9.400  18.440  0.00  0.00    +0.000 A 
ATOM     12  C   UNL     1       2.251   8.278  17.793  0.00  0.00    +0.000 A 
BRANCH   7  14
ATOM     13  N   UNL     1       2.358   4.743  17.873  0.00  0.00    +0.000 N 
ATOM     14  C   UNL     1       3.076   5.919  17.801  0.00  0.00    +0.000 C 
ATOM     15  O   UNL     1       4.129   6.033  17.182  0.00  0.00    +0.000 OA
ATOM     16  H   UNL     1       1.390   4.758  18.172  0.00  0.00    +0.000 HD
BRANCH  13  17
ATOM     17  C   UNL     1       2.772   3.559  17.146  0.00  0.00    +0.000 C 
BRANCH  17  18
ATOM     18  C   UNL     1       3.804   2.726  17.931  0.00  0.00    +0.000 C 
BRANCH  18  20
ATOM     19  C   UNL     1       3.682   2.495  20.355  0.00  0.00    +0.000 C 
ATOM     20  N   UNL     1       3.252   1.946  19.065  0.00  0.00    +0.000 NA
ATOM     21  C   UNL     1       1.784   1.971  19.000  0.00  0.00    +0.000 C 
ENDBRANCH  18  20
ENDBRANCH  17  18
ENDBRANCH  13  17
ENDBRANCH   7  14
ENDBRANCH   1  10
BRANCH   4  22
ATOM     22  C   UNL     1      -2.024  12.380  21.481  0.00  0.00    +0.000 A 
ATOM     23  C   UNL     1      -2.470  12.308  22.799  0.00  0.00    +0.000 A 
ATOM     24  C   UNL     1      -3.793  12.647  23.127  0.00  0.00    +0.000 A 
ATOM     25  C   UNL     1      -4.720  13.048  22.154  0.00  0.00    +0.000 A 
ATOM     26  C   UNL     1      -4.225  13.142  20.839  0.00  0.00    +0.000 A 
ATOM     27  C   UNL     1      -2.898  12.835  20.504  0.00  0.00    +0.000 A 
BRANCH  25  28
ATOM     28  N   UNL     1      -6.053  13.304  22.463  0.00  0.00    +0.000 N 
BRANCH  28  29
ATOM     29  C   UNL     1      -6.448  13.986  23.712  0.00  0.00    +0.000 C 
BRANCH  29  30
ATOM     30  C   UNL     1      -6.250  15.506  23.688  0.00  0.00    +0.000 C 
ATOM     31 CL   UNL     1      -4.681  16.006  24.372  0.00  0.00    +0.000 Cl
ENDBRANCH  29  30
ENDBRANCH  28  29
BRANCH  28  32
ATOM     32  C   UNL     1      -7.122  13.068  21.470  0.00  0.00    +0.000 C 
BRANCH  32  33
ATOM     33  C   UNL     1      -7.599  11.613  21.482  0.00  0.00    +0.000 C 
ATOM     34 CL   UNL     1      -7.223  10.817  19.931  0.00  0.00    +0.000 Cl
ENDBRANCH  32  33
ENDBRANCH  28  32
ENDBRANCH  25  28
ENDBRANCH   4  22
TORSDOF 11
ENDMDL
MODEL 8
REMARK VINA RESULT:      -6.1      1.578      2.155
REMARK  Name = 
REMARK  13 active torsions:
REMARK  status: ('A' for Active; 'I' for Inactive)
REMARK    1  A    between atoms: C_1  and  N_2
REMARK    2  A    between atoms: N_2  and  C_3
REMARK    3  A    between atoms: N_2  and  C_4
REMARK    4  A    between atoms: C_4  and  C_5
REMARK    5  A    between atoms: C_5  and  N_6
REMARK    6  A    between atoms: C_7  and  C_9
REMARK    7  A    between atoms: C_12  and  N_13
REMARK    8  A    between atoms: N_16  and  C_17
REMARK    9  A    between atoms: C_20  and  N_21
REMARK   10  A    between atoms: N_21  and  C_22
REMARK   11  A    between atoms: N_21  and  C_25
REMARK   12  A    between atoms: C_22  and  C_23
REMARK   13  A    between atoms: C_25  and  C_26
REMARK                            x       y       z     vdW  Elec       q    Type
REMARK                         _______ _______ _______ _____ _____    ______ ____
ROOT
ATOM      1  N   UNL     1       0.815  10.510  20.182  0.00  0.00    +0.000 N 
ATOM      2  C   UNL     1      -0.552  10.660  20.349  0.00  0.00    +0.000 C 
ATOM      3  O   UNL     1      -1.369   9.758  20.191  0.00  0.00    +0.000 OA
ATOM      4  N   UNL     1      -0.893  11.958  20.685  0.00  0.00    +0.000 N 
ATOM      5  H   UNL     1       1.390  11.103  20.764  0.00  0.00    +0.000 HD
ATOM      6  H   UNL     1      -0.304  12.657  20.260  0.00  0.00    +0.000 HD
ENDROOT
BRANCH   1  10
ATOM      7  C   UNL     1       2.642   7.145  18.377  0.00  0.00    +0.000 A 
ATOM      8  C   UNL     1       2.333   7.122  19.738  0.00  0.00    +0.000 A 
ATOM      9  C   UNL     1       1.720   8.227  20.334  0.00  0.00    +0.000 A 
ATOM     10  C   UNL     1       1.428   9.378  19.595  0.00  0.00    +0.000 A 
ATOM     11  C   UNL     1       1.731   9.397  18.230  0.00  0.00    +0.000 A 
ATOM     12  C   UNL     1       2.350   8.292  17.627  0.00  0.00    +0.000 A 
BRANCH   7  14
ATOM     13  N   UNL     1       2.633   4.786  17.757  0.00  0.00    +0.000 N 
ATOM     14  C   UNL     1       3.312   5.986  17.720  0.00  0.00    +0.000 C 
ATOM     15  O   UNL     1       4.397   6.136  17.168  0.00  0.00    +0.000 OA
ATOM     16  H   UNL     1       1.649   4.768  17.995  0.00  0.00    +0.000 HD
BRANCH  13  17
ATOM     17  C   UNL     1       3.135   3.614  17.066  0.00  0.00    +0.000 C 
BRANCH  17  18
ATOM     18  C   UNL     1       3.330   2.417  18.017  0.00  0.00    +0.000 C 
BRANCH  18  20
ATOM     19  C   UNL     1       1.958   2.168  20.017  0.00  0.00    +0.000 C 
ATOM     20  N   UNL     1       3.192   2.731  19.460  0.00  0.00    +0.000 NA
ATOM     21  C   UNL     1       4.342   2.175  20.188  0.00  0.00    +0.000 C 
ENDBRANCH  18  20
ENDBRANCH  17  18
ENDBRANCH  13  17
ENDBRANCH   7  14
ENDBRANCH   1  10
BRANCH   4  22
ATOM     22  C   UNL     1      -2.237  12.326  20.926  0.00  0.00    +0.000 A 
ATOM     23  C   UNL     1      -2.750  12.466  22.213  0.00  0.00    +0.000 A 
ATOM     24  C   UNL     1      -4.105  12.773  22.416  0.00  0.00    +0.000 A 
ATOM     25  C   UNL     1      -4.998  12.930  21.346  0.00  0.00    +0.000 A 
ATOM     26  C   UNL     1      -4.439  12.815  20.059  0.00  0.00    +0.000 A 
ATOM     27  C   UNL     1      -3.080  12.538  19.844  0.00  0.00    +0.000 A 
BRANCH  25  28
ATOM     28  N   UNL     1      -6.359  13.151  21.544  0.00  0.00    +0.000 N 
BRANCH  28  29
ATOM     29  C   UNL     1      -7.331  12.040  21.590  0.00  0.00    +0.000 C 
BRANCH  29  30
ATOM     30  C   UNL     1      -7.546  11.335  20.245  0.00  0.00    +0.000 C 
ATOM     31 CL   UNL     1      -7.451   9.559  20.377  0.00  0.00    +0.000 Cl
ENDBRANCH  29  30
ENDBRANCH  28  29
BRANCH  28  32
ATOM     32  C   UNL     1      -6.867  14.492  21.899  0.00  0.00    +0.000 C 
BRANCH  32  33
ATOM     33  C   UNL     1      -6.642  15.503  20.770  0.00  0.00    +0.000 C 
ATOM     34 CL   UNL     1      -7.361  14.916  19.248  0.00  0.00    +0.000 Cl
ENDBRANCH  32  33
ENDBRANCH  28  32
ENDBRANCH  25  28
ENDBRANCH   4  22
TORSDOF 11
ENDMDL
MODEL 9
REMARK VINA RESULT:      -6.0      3.159      4.343
REMARK  Name = 
REMARK  13 active torsions:
REMARK  status: ('A' for Active; 'I' for Inactive)
REMARK    1  A    between atoms: C_1  and  N_2
REMARK    2  A    between atoms: N_2  and  C_3
REMARK    3  A    between atoms: N_2  and  C_4
REMARK    4  A    between atoms: C_4  and  C_5
REMARK    5  A    between atoms: C_5  and  N_6
REMARK    6  A    between atoms: C_7  and  C_9
REMARK    7  A    between atoms: C_12  and  N_13
REMARK    8  A    between atoms: N_16  and  C_17
REMARK    9  A    between atoms: C_20  and  N_21
REMARK   10  A    between atoms: N_21  and  C_22
REMARK   11  A    between atoms: N_21  and  C_25
REMARK   12  A    between atoms: C_22  and  C_23
REMARK   13  A    between atoms: C_25  and  C_26
REMARK                            x       y       z     vdW  Elec       q    Type
REMARK                         _______ _______ _______ _____ _____    ______ ____
ROOT
ATOM      1  N   UNL     1       1.479   8.104  21.439  0.00  0.00    +0.000 N 
ATOM      2  C   UNL     1       0.443   9.009  21.274  0.00  0.00    +0.000 C 
ATOM      3  O   UNL     1      -0.363   8.973  20.349  0.00  0.00    +0.000 OA
ATOM      4  N   UNL     1       0.443   9.981  22.258  0.00  0.00    +0.000 N 
ATOM      5  H   UNL     1       1.749   7.926  22.397  0.00  0.00    +0.000 HD
ATOM      6  H   UNL     1       1.365  10.240  22.576  0.00  0.00    +0.000 HD
ENDROOT
BRANCH   1  10
ATOM      7  C   UNL     1       2.698   5.338  18.475  0.00  0.00    +0.000 A 
ATOM      8  C   UNL     1       2.121   4.878  19.660  0.00  0.00    +0.000 A 
ATOM      9  C   UNL     1       1.707   5.790  20.635  0.00  0.00    +0.000 A 
ATOM     10  C   UNL     1       1.884   7.166  20.461  0.00  0.00    +0.000 A 
ATOM     11  C   UNL     1       2.455   7.626  19.269  0.00  0.00    +0.000 A 
ATOM     12  C   UNL     1       2.876   6.715  18.288  0.00  0.00    +0.000 A 
BRANCH   7  14
ATOM     13  N   UNL     1       4.441   4.586  16.945  0.00  0.00    +0.000 N 
ATOM     14  C   UNL     1       3.164   4.387  17.426  0.00  0.00    +0.000 C 
ATOM     15  O   UNL     1       2.432   3.476  17.053  0.00  0.00    +0.000 OA
ATOM     16  H   UNL     1       5.087   5.179  17.452  0.00  0.00    +0.000 HD
BRANCH  13  17
ATOM     17  C   UNL     1       5.043   3.667  15.998  0.00  0.00    +0.000 C 
BRANCH  17  18
ATOM     18  C   UNL     1       5.219   4.300  14.605  0.00  0.00    +0.000 C 
BRANCH  18  20
ATOM     19  C   UNL     1       6.086   3.462  12.486  0.00  0.00    +0.000 C 
ATOM     20  N   UNL     1       6.420   3.855  13.858  0.00  0.00    +0.000 NA
ATOM     21  C   UNL     1       7.397   4.953  13.816  0.00  0.00    +0.000 C 
ENDBRANCH  18  20
ENDBRANCH  17  18
ENDBRANCH  13  17
ENDBRANCH   7  14
ENDBRANCH   1  10
BRANCH   4  22
ATOM     22  C   UNL     1      -0.544  10.992  22.293  0.00  0.00    +0.000 A 
ATOM     23  C   UNL     1      -1.548  11.019  23.260  0.00  0.00    +0.000 A 
ATOM     24  C   UNL     1      -2.549  12.003  23.227  0.00  0.00    +0.000 A 
ATOM     25  C   UNL     1      -2.597  12.980  22.222  0.00  0.00    +0.000 A 
ATOM     26  C   UNL     1      -1.549  12.944  21.282  0.00  0.00    +0.000 A 
ATOM     27  C   UNL     1      -0.528  11.983  21.322  0.00  0.00    +0.000 A 
BRANCH  25  28
ATOM     28  N   UNL     1      -3.634  13.905  22.138  0.00  0.00    +0.000 N 
BRANCH  28  29
ATOM     29  C   UNL     1      -4.518  14.193  23.285  0.00  0.00    +0.000 C 
BRANCH  29  30
ATOM     30  C   UNL     1      -4.015  15.315  24.201  0.00  0.00    +0.000 C 
ATOM     31 CL   UNL     1      -5.285  16.504  24.594  0.00  0.00    +0.000 Cl
ENDBRANCH  29  30
ENDBRANCH  28  29
BRANCH  28  32
ATOM     32  C   UNL     1      -3.782  14.775  20.953  0.00  0.00    +0.000 C 
BRANCH  32  33
ATOM     33  C   UNL     1      -5.212  14.749  20.402  0.00  0.00    +0.000 C 
ATOM     34 CL   UNL     1      -5.566  13.171  19.651  0.00  0.00    +0.000 Cl
ENDBRANCH  32  33
ENDBRANCH  28  32
ENDBRANCH  25  28
ENDBRANCH   4  22
TORSDOF 11
ENDMDL
