MODEL 1
REMARK VINA RESULT:      -6.6      0.000      0.000
REMARK  Name = 
REMARK  9 active torsions:
REMARK  status: ('A' for Active; 'I' for Inactive)
REMARK    1  A    between atoms: P_2  and  O_4
REMARK    2  A    between atoms: P_2  and  C_5
REMARK    3  A    between atoms: C_5  and  O_6
REMARK    4  A    between atoms: C_5  and  C_7
REMARK    5  A    between atoms: C_5  and  P_14
REMARK    6  A    between atoms: C_7  and  C_8
REMARK    7  A    between atoms: C_8  and  S_9
REMARK    8  A    between atoms: P_14  and  O_16
REMARK    9  A    between atoms: P_14  and  O_17
REMARK                            x       y       z     vdW  Elec       q    Type
REMARK                         _______ _______ _______ _____ _____    ______ ____
ROOT
ATOM      1  C   UNL     1       5.713   5.268  17.392  0.00  0.00    +0.000 C 
ENDROOT
BRANCH   1   3
ATOM      2  O   UNL     1       7.080   5.403  14.306  0.00  0.00    +0.000 OA
ATOM      3  P   UNL     1       6.453   5.341  15.720  0.00  0.00    +0.000 P 
ATOM      4  O   UNL     1       7.517   6.259  16.382  0.00  0.00    +0.000 OA
BRANCH   3   5
ATOM      5  O   UNL     1       5.259   6.317  15.180  0.00  0.00    +0.000 OA
ATOM      6  H   UNL     1       4.885   5.699  14.506  0.00  0.00    +0.000 HD
ENDBRANCH   3   5
ENDBRANCH   1   3
BRANCH   1   7
ATOM      7  O   UNL     1       4.754   6.375  17.504  0.00  0.00    +0.000 OA
ATOM      8  H   UNL     1       3.977   5.847  17.848  0.00  0.00    +0.000 HD
ENDBRANCH   1   7
BRANCH   1   9
ATOM      9  P   UNL     1       7.028   5.457  18.650  0.00  0.00    +0.000 P 
ATOM     10  O   UNL     1       6.171   4.840  19.764  0.00  0.00    +0.000 OA
BRANCH   9  11
ATOM     11  O   UNL     1       7.876   4.169  18.065  0.00  0.00    +0.000 OA
ATOM     12  H   UNL     1       8.199   4.431  17.175  0.00  0.00    +0.000 HD
ENDBRANCH   9  11
BRANCH   9  13
ATOM     13  O   UNL     1       8.272   5.636  19.839  0.00  0.00    +0.000 OA
ATOM     14  H   UNL     1       8.010   6.458  20.299  0.00  0.00    +0.000 HD
ENDBRANCH   9  13
ENDBRANCH   1   9
BRANCH   1  15
ATOM     15  C   UNL     1       4.925   3.936  17.628  0.00  0.00    +0.000 C 
BRANCH  15  16
ATOM     16  C   UNL     1       3.413   3.961  17.445  0.00  0.00    +0.000 C 
BRANCH  16  17
ATOM     17  S   UNL     1       2.653   2.407  18.093  0.00  0.00    +0.000 S 
ATOM     18  C   UNL     1       1.057   3.110  18.651  0.00  0.00    +0.000 C 
ATOM     19  C   UNL     1       1.321   3.825  19.962  0.00  0.00    +0.000 C 
ATOM     20  C   UNL     1       2.240   2.893  20.729  0.00  0.00    +0.000 C 
ATOM     21  C   UNL     1       3.363   2.502  19.776  0.00  0.00    +0.000 C 
ENDBRANCH  16  17
ENDBRANCH  15  16
ENDBRANCH   1  15
TORSDOF 9
ENDMDL
MODEL 2
REMARK VINA RESULT:      -6.6      1.097      1.483
REMARK  Name = 
REMARK  9 active torsions:
REMARK  status: ('A' for Active; 'I' for Inactive)
REMARK    1  A    between atoms: P_2  and  O_4
REMARK    2  A    between atoms: P_2  and  C_5
REMARK    3  A    between atoms: C_5  and  O_6
REMARK    4  A    between atoms: C_5  and  C_7
REMARK    5  A    between atoms: C_5  and  P_14
REMARK    6  A    between atoms: C_7  and  C_8
REMARK    7  A    between atoms: C_8  and  S_9
REMARK    8  A    between atoms: P_14  and  O_16
REMARK    9  A    between atoms: P_14  and  O_17
REMARK                            x       y       z     vdW  Elec       q    Type
REMARK                         _______ _______ _______ _____ _____    ______ ____
ROOT
ATOM      1  C   UNL     1       5.828   5.533  17.570  0.00  0.00    +0.000 C 
ENDROOT
BRANCH   1   3
ATOM      2  O   UNL     1       7.521   4.812  14.737  0.00  0.00    +0.000 OA
ATOM      3  P   UNL     1       6.745   5.142  16.036  0.00  0.00    +0.000 P 
ATOM      4  O   UNL     1       5.706   6.065  15.343  0.00  0.00    +0.000 OA
BRANCH   3   5
ATOM      5  O   UNL     1       6.132   3.628  15.996  0.00  0.00    +0.000 OA
ATOM      6  H   UNL     1       5.177   3.878  15.964  0.00  0.00    +0.000 HD
ENDBRANCH   3   5
ENDBRANCH   1   3
BRANCH   1   7
ATOM      7  O   UNL     1       5.255   6.877  17.417  0.00  0.00    +0.000 OA
ATOM      8  H   UNL     1       6.115   7.387  17.372  0.00  0.00    +0.000 HD
ENDBRANCH   1   7
BRANCH   1   9
ATOM      9  P   UNL     1       6.979   5.507  18.992  0.00  0.00    +0.000 P 
ATOM     10  O   UNL     1       7.830   4.377  18.394  0.00  0.00    +0.000 OA
BRANCH   9  11
ATOM     11  O   UNL     1       7.752   6.873  18.487  0.00  0.00    +0.000 OA
ATOM     12  H   UNL     1       7.677   6.888  17.508  0.00  0.00    +0.000 HD
ENDBRANCH   9  11
BRANCH   9  13
ATOM     13  O   UNL     1       8.068   5.482  20.337  0.00  0.00    +0.000 OA
ATOM     14  H   UNL     1       7.756   4.709  20.849  0.00  0.00    +0.000 HD
ENDBRANCH   9  13
ENDBRANCH   1   9
BRANCH   1  15
ATOM     15  C   UNL     1       4.642   4.540  17.814  0.00  0.00    +0.000 C 
BRANCH  15  16
ATOM     16  C   UNL     1       4.361   4.105  19.247  0.00  0.00    +0.000 C 
BRANCH  16  17
ATOM     17  S   UNL     1       3.261   2.621  19.272  0.00  0.00    +0.000 S 
ATOM     18  C   UNL     1       1.686   3.458  18.858  0.00  0.00    +0.000 C 
ATOM     19  C   UNL     1       1.204   4.149  20.119  0.00  0.00    +0.000 C 
ATOM     20  C   UNL     1       1.454   3.143  21.226  0.00  0.00    +0.000 C 
ATOM     21  C   UNL     1       2.889   2.657  21.063  0.00  0.00    +0.000 C 
ENDBRANCH  16  17
ENDBRANCH  15  16
ENDBRANCH   1  15
TORSDOF 9
ENDMDL
MODEL 3
REMARK VINA RESULT:      -6.5      1.336      1.897
REMARK  Name = 
REMARK  9 active torsions:
REMARK  status: ('A' for Active; 'I' for Inactive)
REMARK    1  A    between atoms: P_2  and  O_4
REMARK    2  A    between atoms: P_2  and  C_5
REMARK    3  A    between atoms: C_5  and  O_6
REMARK    4  A    between atoms: C_5  and  C_7
REMARK    5  A    between atoms: C_5  and  P_14
REMARK    6  A    between atoms: C_7  and  C_8
REMARK    7  A    between atoms: C_8  and  S_9
REMARK    8  A    between atoms: P_14  and  O_16
REMARK    9  A    between atoms: P_14  and  O_17
REMARK                            x       y       z     vdW  Elec       q    Type
REMARK                         _______ _______ _______ _____ _____    ______ ____
ROOT
ATOM      1  C   UNL     1       5.884   5.559  17.583  0.00  0.00    +0.000 C 
ENDROOT
BRANCH   1   3
ATOM      2  O   UNL     1       7.604   4.876  14.756  0.00  0.00    +0.000 OA
ATOM      3  P   UNL     1       6.816   5.189  16.052  0.00  0.00    +0.000 P 
ATOM      4  O   UNL     1       5.801   6.144  15.368  0.00  0.00    +0.000 OA
BRANCH   3   5
ATOM      5  O   UNL     1       6.180   3.686  15.969  0.00  0.00    +0.000 OA
ATOM      6  H   UNL     1       6.470   3.376  16.860  0.00  0.00    +0.000 HD
ENDBRANCH   3   5
ENDBRANCH   1   3
BRANCH   1   7
ATOM      7  O   UNL     1       5.314   6.906  17.444  0.00  0.00    +0.000 OA
ATOM      8  H   UNL     1       4.381   6.689  17.732  0.00  0.00    +0.000 HD
ENDBRANCH   1   7
BRANCH   1   9
ATOM      9  P   UNL     1       7.022   5.511  19.015  0.00  0.00    +0.000 P 
ATOM     10  O   UNL     1       7.871   4.382  18.414  0.00  0.00    +0.000 OA
BRANCH   9  11
ATOM     11  O   UNL     1       7.808   6.877  18.531  0.00  0.00    +0.000 OA
ATOM     12  H   UNL     1       7.198   7.346  17.920  0.00  0.00    +0.000 HD
ENDBRANCH   9  11
BRANCH   9  13
ATOM     13  O   UNL     1       8.097   5.467  20.370  0.00  0.00    +0.000 OA
ATOM     14  H   UNL     1       8.750   4.790  20.101  0.00  0.00    +0.000 HD
ENDBRANCH   9  13
ENDBRANCH   1   9
BRANCH   1  15
ATOM     15  C   UNL     1       4.695   4.564  17.802  0.00  0.00    +0.000 C 
BRANCH  15  16
ATOM     16  C   UNL     1       4.201   4.347  19.226  0.00  0.00    +0.000 C 
BRANCH  16  17
ATOM     17  S   UNL     1       2.546   5.132  19.467  0.00  0.00    +0.000 S 
ATOM     18  C   UNL     1       2.197   4.494  21.148  0.00  0.00    +0.000 C 
ATOM     19  C   UNL     1       1.769   3.047  20.994  0.00  0.00    +0.000 C 
ATOM     20  C   UNL     1       0.841   3.048  19.794  0.00  0.00    +0.000 C 
ATOM     21  C   UNL     1       1.560   3.805  18.684  0.00  0.00    +0.000 C 
ENDBRANCH  16  17
ENDBRANCH  15  16
ENDBRANCH   1  15
TORSDOF 9
ENDMDL
MODEL 4
REMARK VINA RESULT:      -6.5      1.345      1.529
REMARK  Name = 
REMARK  9 active torsions:
REMARK  status: ('A' for Active; 'I' for Inactive)
REMARK    1  A    between atoms: P_2  and  O_4
REMARK    2  A    between atoms: P_2  and  C_5
REMARK    3  A    between atoms: C_5  and  O_6
REMARK    4  A    between atoms: C_5  and  C_7
REMARK    5  A    between atoms: C_5  and  P_14
REMARK    6  A    between atoms: C_7  and  C_8
REMARK    7  A    between atoms: C_8  and  S_9
REMARK    8  A    between atoms: P_14  and  O_16
REMARK    9  A    between atoms: P_14  and  O_17
REMARK                            x       y       z     vdW  Elec       q    Type
REMARK                         _______ _______ _______ _____ _____    ______ ____
ROOT
ATOM      1  C   UNL     1       6.207   6.104  17.678  0.00  0.00    +0.000 C 
ENDROOT
BRANCH   1   3
ATOM      2  O   UNL     1       6.947   3.996  15.144  0.00  0.00    +0.000 OA
ATOM      3  P   UNL     1       6.608   4.962  16.305  0.00  0.00    +0.000 P 
ATOM      4  O   UNL     1       7.540   6.102  15.812  0.00  0.00    +0.000 OA
BRANCH   3   5
ATOM      5  O   UNL     1       5.151   5.209  15.608  0.00  0.00    +0.000 OA
ATOM      6  H   UNL     1       5.309   6.137  15.309  0.00  0.00    +0.000 HD
ENDBRANCH   3   5
ENDBRANCH   1   3
BRANCH   1   7
ATOM      7  O   UNL     1       6.511   7.469  17.226  0.00  0.00    +0.000 OA
ATOM      8  H   UNL     1       5.578   7.745  16.993  0.00  0.00    +0.000 HD
ENDBRANCH   1   7
BRANCH   1   9
ATOM      9  P   UNL     1       7.234   5.690  19.135  0.00  0.00    +0.000 P 
ATOM     10  O   UNL     1       7.872   4.474  18.448  0.00  0.00    +0.000 OA
BRANCH   9  11
ATOM     11  O   UNL     1       8.301   6.907  18.822  0.00  0.00    +0.000 OA
ATOM     12  H   UNL     1       8.866   6.991  19.621  0.00  0.00    +0.000 HD
ENDBRANCH   9  11
BRANCH   9  13
ATOM     13  O   UNL     1       8.205   5.298  20.512  0.00  0.00    +0.000 OA
ATOM     14  H   UNL     1       9.101   5.225  20.127  0.00  0.00    +0.000 HD
ENDBRANCH   9  13
ENDBRANCH   1   9
BRANCH   1  15
ATOM     15  C   UNL     1       4.688   6.059  18.055  0.00  0.00    +0.000 C 
BRANCH  15  16
ATOM     16  C   UNL     1       4.275   5.210  19.250  0.00  0.00    +0.000 C 
BRANCH  16  17
ATOM     17  S   UNL     1       3.446   3.657  18.691  0.00  0.00    +0.000 S 
ATOM     18  C   UNL     1       1.715   4.253  18.742  0.00  0.00    +0.000 C 
ATOM     19  C   UNL     1       1.289   4.255  20.198  0.00  0.00    +0.000 C 
ATOM     20  C   UNL     1       1.838   2.957  20.759  0.00  0.00    +0.000 C 
ATOM     21  C   UNL     1       3.301   2.882  20.341  0.00  0.00    +0.000 C 
ENDBRANCH  16  17
ENDBRANCH  15  16
ENDBRANCH   1  15
TORSDOF 9
ENDMDL
MODEL 5
REMARK VINA RESULT:      -6.4      0.953      1.230
REMARK  Name = 
REMARK  9 active torsions:
REMARK  status: ('A' for Active; 'I' for Inactive)
REMARK    1  A    between atoms: P_2  and  O_4
REMARK    2  A    between atoms: P_2  and  C_5
REMARK    3  A    between atoms: C_5  and  O_6
REMARK    4  A    between atoms: C_5  and  C_7
REMARK    5  A    between atoms: C_5  and  P_14
REMARK    6  A    between atoms: C_7  and  C_8
REMARK    7  A    between atoms: C_8  and  S_9
REMARK    8  A    between atoms: P_14  and  O_16
REMARK    9  A    between atoms: P_14  and  O_17
REMARK                            x       y       z     vdW  Elec       q    Type
REMARK                         _______ _______ _______ _____ _____    ______ ____
ROOT
ATOM      1  C   UNL     1       5.070   5.339  17.955  0.00  0.00    +0.000 C 
ENDROOT
BRANCH   1   3
ATOM      2  O   UNL     1       5.259   6.950  14.993  0.00  0.00    +0.000 OA
ATOM      3  P   UNL     1       5.173   6.212  16.351  0.00  0.00    +0.000 P 
ATOM      4  O   UNL     1       5.578   4.826  15.779  0.00  0.00    +0.000 OA
BRANCH   3   5
ATOM      5  O   UNL     1       6.555   6.963  16.791  0.00  0.00    +0.000 OA
ATOM      6  H   UNL     1       6.945   6.218  17.309  0.00  0.00    +0.000 HD
ENDBRANCH   3   5
ENDBRANCH   1   3
BRANCH   1   7
ATOM      7  O   UNL     1       4.044   6.011  18.764  0.00  0.00    +0.000 OA
ATOM      8  H   UNL     1       4.451   6.925  18.768  0.00  0.00    +0.000 HD
ENDBRANCH   1   7
BRANCH   1   9
ATOM      9  P   UNL     1       6.688   5.431  18.804  0.00  0.00    +0.000 P 
ATOM     10  O   UNL     1       6.176   4.693  20.049  0.00  0.00    +0.000 OA
BRANCH   9  11
ATOM     11  O   UNL     1       7.326   4.223  17.881  0.00  0.00    +0.000 OA
ATOM     12  H   UNL     1       7.819   3.636  18.495  0.00  0.00    +0.000 HD
ENDBRANCH   9  11
BRANCH   9  13
ATOM     13  O   UNL     1       8.219   5.519  19.607  0.00  0.00    +0.000 OA
ATOM     14  H   UNL     1       8.312   4.622  19.985  0.00  0.00    +0.000 HD
ENDBRANCH   9  13
ENDBRANCH   1   9
BRANCH   1  15
ATOM     15  C   UNL     1       4.632   3.845  17.785  0.00  0.00    +0.000 C 
BRANCH  15  16
ATOM     16  C   UNL     1       3.143   3.548  17.668  0.00  0.00    +0.000 C 
BRANCH  16  17
ATOM     17  S   UNL     1       2.684   2.097  18.715  0.00  0.00    +0.000 S 
ATOM     18  C   UNL     1       0.936   2.543  19.027  0.00  0.00    +0.000 C 
ATOM     19  C   UNL     1       0.937   3.627  20.088  0.00  0.00    +0.000 C 
ATOM     20  C   UNL     1       1.971   3.171  21.100  0.00  0.00    +0.000 C 
ATOM     21  C   UNL     1       3.223   2.803  20.314  0.00  0.00    +0.000 C 
ENDBRANCH  16  17
ENDBRANCH  15  16
ENDBRANCH   1  15
TORSDOF 9
ENDMDL
MODEL 6
REMARK VINA RESULT:      -6.4      1.745      3.560
REMARK  Name = 
REMARK  9 active torsions:
REMARK  status: ('A' for Active; 'I' for Inactive)
REMARK    1  A    between atoms: P_2  and  O_4
REMARK    2  A    between atoms: P_2  and  C_5
REMARK    3  A    between atoms: C_5  and  O_6
REMARK    4  A    between atoms: C_5  and  C_7
REMARK    5  A    between atoms: C_5  and  P_14
REMARK    6  A    between atoms: C_7  and  C_8
REMARK    7  A    between atoms: C_8  and  S_9
REMARK    8  A    between atoms: P_14  and  O_16
REMARK    9  A    between atoms: P_14  and  O_17
REMARK                            x       y       z     vdW  Elec       q    Type
REMARK                         _______ _______ _______ _____ _____    ______ ____
ROOT
ATOM      1  C   UNL     1       5.798   4.722  17.002  0.00  0.00    +0.000 C 
ENDROOT
BRANCH   1   3
ATOM      2  O   UNL     1       7.322   5.272  19.966  0.00  0.00    +0.000 OA
ATOM      3  P   UNL     1       6.623   5.020  18.608  0.00  0.00    +0.000 P 
ATOM      4  O   UNL     1       7.859   4.360  17.938  0.00  0.00    +0.000 OA
BRANCH   3   5
ATOM      5  O   UNL     1       5.776   3.819  19.323  0.00  0.00    +0.000 OA
ATOM      6  H   UNL     1       6.043   3.093  18.709  0.00  0.00    +0.000 HD
ENDBRANCH   3   5
ENDBRANCH   1   3
BRANCH   1   7
ATOM      7  O   UNL     1       5.429   3.301  16.947  0.00  0.00    +0.000 OA
ATOM      8  H   UNL     1       4.613   3.350  17.524  0.00  0.00    +0.000 HD
ENDBRANCH   1   7
BRANCH   1   9
ATOM      9  P   UNL     1       6.954   5.117  15.640  0.00  0.00    +0.000 P 
ATOM     10  O   UNL     1       5.829   5.581  14.704  0.00  0.00    +0.000 OA
BRANCH   9  11
ATOM     11  O   UNL     1       7.448   6.514  16.364  0.00  0.00    +0.000 OA
ATOM     12  H   UNL     1       8.353   6.343  16.705  0.00  0.00    +0.000 HD
ENDBRANCH   9  11
BRANCH   9  13
ATOM     13  O   UNL     1       8.047   5.490  14.352  0.00  0.00    +0.000 OA
ATOM     14  H   UNL     1       8.580   4.672  14.281  0.00  0.00    +0.000 HD
ENDBRANCH   9  13
ENDBRANCH   1   9
BRANCH   1  15
ATOM     15  C   UNL     1       4.481   5.557  16.854  0.00  0.00    +0.000 C 
BRANCH  15  16
ATOM     16  C   UNL     1       4.128   6.534  17.968  0.00  0.00    +0.000 C 
BRANCH  16  17
ATOM     17  S   UNL     1       2.300   6.597  18.224  0.00  0.00    +0.000 S 
ATOM     18  C   UNL     1       2.284   6.388  20.043  0.00  0.00    +0.000 C 
ATOM     19  C   UNL     1       2.526   4.918  20.324  0.00  0.00    +0.000 C 
ATOM     20  C   UNL     1       1.675   4.188  19.301  0.00  0.00    +0.000 C 
ATOM     21  C   UNL     1       1.980   4.817  17.948  0.00  0.00    +0.000 C 
ENDBRANCH  16  17
ENDBRANCH  15  16
ENDBRANCH   1  15
TORSDOF 9
ENDMDL
MODEL 7
REMARK VINA RESULT:      -6.3      1.041      1.684
REMARK  Name = 
REMARK  9 active torsions:
REMARK  status: ('A' for Active; 'I' for Inactive)
REMARK    1  A    between atoms: P_2  and  O_4
REMARK    2  A    between atoms: P_2  and  C_5
REMARK    3  A    between atoms: C_5  and  O_6
REMARK    4  A    between atoms: C_5  and  C_7
REMARK    5  A    between atoms: C_5  and  P_14
REMARK    6  A    between atoms: C_7  and  C_8
REMARK    7  A    between atoms: C_8  and  S_9
REMARK    8  A    between atoms: P_14  and  O_16
REMARK    9  A    between atoms: P_14  and  O_17
REMARK                            x       y       z     vdW  Elec       q    Type
REMARK                         _______ _______ _______ _____ _____    ______ ____
ROOT
ATOM      1  C   UNL     1       5.990   5.564  17.434  0.00  0.00    +0.000 C 
ENDROOT
BRANCH   1   3
ATOM      2  O   UNL     1       7.511   5.154  14.446  0.00  0.00    +0.000 OA
ATOM      3  P   UNL     1       6.814   5.342  15.816  0.00  0.00    +0.000 P 
ATOM      4  O   UNL     1       5.612   6.144  15.249  0.00  0.00    +0.000 OA
BRANCH   3   5
ATOM      5  O   UNL     1       6.395   3.763  15.763  0.00  0.00    +0.000 OA
ATOM      6  H   UNL     1       6.831   3.488  16.605  0.00  0.00    +0.000 HD
ENDBRANCH   3   5
ENDBRANCH   1   3
BRANCH   1   7
ATOM      7  O   UNL     1       5.303   6.863  17.410  0.00  0.00    +0.000 OA
ATOM      8  H   UNL     1       5.699   7.241  18.248  0.00  0.00    +0.000 HD
ENDBRANCH   1   7
BRANCH   1   9
ATOM      9  P   UNL     1       7.246   5.551  18.765  0.00  0.00    +0.000 P 
ATOM     10  O   UNL     1       6.277   4.952  19.793  0.00  0.00    +0.000 OA
BRANCH   9  11
ATOM     11  O   UNL     1       8.004   4.226  18.139  0.00  0.00    +0.000 OA
ATOM     12  H   UNL     1       7.660   3.451  18.635  0.00  0.00    +0.000 HD
ENDBRANCH   9  11
BRANCH   9  13
ATOM     13  O   UNL     1       8.434   5.539  20.023  0.00  0.00    +0.000 OA
ATOM     14  H   UNL     1       9.249   5.287  19.543  0.00  0.00    +0.000 HD
ENDBRANCH   9  13
ENDBRANCH   1   9
BRANCH   1  15
ATOM     15  C   UNL     1       4.909   4.463  17.699  0.00  0.00    +0.000 C 
BRANCH  15  16
ATOM     16  C   UNL     1       3.451   4.899  17.766  0.00  0.00    +0.000 C 
BRANCH  16  17
ATOM     17  S   UNL     1       2.704   4.429  19.389  0.00  0.00    +0.000 S 
ATOM     18  C   UNL     1       3.473   2.776  19.561  0.00  0.00    +0.000 C 
ATOM     19  C   UNL     1       2.709   1.833  18.651  0.00  0.00    +0.000 C 
ATOM     20  C   UNL     1       1.252   2.202  18.855  0.00  0.00    +0.000 C 
ATOM     21  C   UNL     1       1.158   3.716  18.719  0.00  0.00    +0.000 C 
ENDBRANCH  16  17
ENDBRANCH  15  16
ENDBRANCH   1  15
TORSDOF 9
ENDMDL
MODEL 8
REMARK VINA RESULT:      -6.3      1.378      2.897
REMARK  Name = 
REMARK  9 active torsions:
REMARK  status: ('A' for Active; 'I' for Inactive)
REMARK    1  A    between atoms: P_2  and  O_4
REMARK    2  A    between atoms: P_2  and  C_5
REMARK    3  A    between atoms: C_5  and  O_6
REMARK    4  A    between atoms: C_5  and  C_7
REMARK    5  A    between atoms: C_5  and  P_14
REMARK    6  A    between atoms: C_7  and  C_8
REMARK    7  A    between atoms: C_8  and  S_9
REMARK    8  A    between atoms: P_14  and  O_16
REMARK    9  A    between atoms: P_14  and  O_17
REMARK                            x       y       z     vdW  Elec       q    Type
REMARK                         _______ _______ _______ _____ _____    ______ ____
ROOT
ATOM      1  C   UNL     1       6.371   4.794  17.084  0.00  0.00    +0.000 C 
ENDROOT
BRANCH   1   3
ATOM      2  O   UNL     1       7.723   7.889  17.133  0.00  0.00    +0.000 OA
ATOM      3  P   UNL     1       7.103   6.470  17.110  0.00  0.00    +0.000 P 
ATOM      4  O   UNL     1       6.937   6.369  18.651  0.00  0.00    +0.000 OA
BRANCH   3   5
ATOM      5  O   UNL     1       5.728   7.134  16.530  0.00  0.00    +0.000 OA
ATOM      6  H   UNL     1       5.936   7.037  15.569  0.00  0.00    +0.000 HD
ENDBRANCH   3   5
ENDBRANCH   1   3
BRANCH   1   7
ATOM      7  O   UNL     1       7.168   3.944  17.980  0.00  0.00    +0.000 OA
ATOM      8  H   UNL     1       7.094   3.092  17.460  0.00  0.00    +0.000 HD
ENDBRANCH   1   7
BRANCH   1   9
ATOM      9  P   UNL     1       6.431   4.128  15.381  0.00  0.00    +0.000 P 
ATOM     10  O   UNL     1       5.074   4.738  15.001  0.00  0.00    +0.000 OA
BRANCH   9  11
ATOM     11  O   UNL     1       7.512   5.274  14.892  0.00  0.00    +0.000 OA
ATOM     12  H   UNL     1       8.281   5.206  15.499  0.00  0.00    +0.000 HD
ENDBRANCH   9  11
BRANCH   9  13
ATOM     13  O   UNL     1       6.489   3.499  13.770  0.00  0.00    +0.000 OA
ATOM     14  H   UNL     1       7.439   3.570  13.548  0.00  0.00    +0.000 HD
ENDBRANCH   9  13
ENDBRANCH   1   9
BRANCH   1  15
ATOM     15  C   UNL     1       4.898   4.788  17.616  0.00  0.00    +0.000 C 
BRANCH  15  16
ATOM     16  C   UNL     1       4.391   3.521  18.293  0.00  0.00    +0.000 C 
BRANCH  16  17
ATOM     17  S   UNL     1       2.758   3.018  17.592  0.00  0.00    +0.000 S 
ATOM     18  C   UNL     1       1.791   4.486  18.102  0.00  0.00    +0.000 C 
ATOM     19  C   UNL     1       1.488   4.328  19.579  0.00  0.00    +0.000 C 
ATOM     20  C   UNL     1       1.107   2.868  19.738  0.00  0.00    +0.000 C 
ATOM     21  C   UNL     1       2.187   2.054  19.038  0.00  0.00    +0.000 C 
ENDBRANCH  16  17
ENDBRANCH  15  16
ENDBRANCH   1  15
TORSDOF 9
ENDMDL
MODEL 9
REMARK VINA RESULT:      -6.3      0.916      1.124
REMARK  Name = 
REMARK  9 active torsions:
REMARK  status: ('A' for Active; 'I' for Inactive)
REMARK    1  A    between atoms: P_2  and  O_4
REMARK    2  A    between atoms: P_2  and  C_5
REMARK    3  A    between atoms: C_5  and  O_6
REMARK    4  A    between atoms: C_5  and  C_7
REMARK    5  A    between atoms: C_5  and  P_14
REMARK    6  A    between atoms: C_7  and  C_8
REMARK    7  A    between atoms: C_8  and  S_9
REMARK    8  A    between atoms: P_14  and  O_16
REMARK    9  A    between atoms: P_14  and  O_17
REMARK                            x       y       z     vdW  Elec       q    Type
REMARK                         _______ _______ _______ _____ _____    ______ ____
ROOT
ATOM      1  C   UNL     1       5.839   5.603  17.470  0.00  0.00    +0.000 C 
ENDROOT
BRANCH   1   3
ATOM      2  O   UNL     1       7.146   4.683  14.494  0.00  0.00    +0.000 OA
ATOM      3  P   UNL     1       6.547   5.104  15.858  0.00  0.00    +0.000 P 
ATOM      4  O   UNL     1       7.556   6.260  16.100  0.00  0.00    +0.000 OA
BRANCH   3   5
ATOM      5  O   UNL     1       5.281   5.746  15.048  0.00  0.00    +0.000 OA
ATOM      6  H   UNL     1       5.600   5.547  14.135  0.00  0.00    +0.000 HD
ENDBRANCH   3   5
ENDBRANCH   1   3
BRANCH   1   7
ATOM      7  O   UNL     1       5.344   6.979  17.334  0.00  0.00    +0.000 OA
ATOM      8  H   UNL     1       5.106   7.134  18.294  0.00  0.00    +0.000 HD
ENDBRANCH   1   7
BRANCH   1   9
ATOM      9  P   UNL     1       7.141   5.536  18.754  0.00  0.00    +0.000 P 
ATOM     10  O   UNL     1       6.207   4.898  19.792  0.00  0.00    +0.000 OA
BRANCH   9  11
ATOM     11  O   UNL     1       7.873   4.236  18.051  0.00  0.00    +0.000 OA
ATOM     12  H   UNL     1       7.630   4.263  17.099  0.00  0.00    +0.000 HD
ENDBRANCH   9  11
BRANCH   9  13
ATOM     13  O   UNL     1       8.373   5.472  19.968  0.00  0.00    +0.000 OA
ATOM     14  H   UNL     1       8.695   6.396  19.992  0.00  0.00    +0.000 HD
ENDBRANCH   9  13
ENDBRANCH   1   9
BRANCH   1  15
ATOM     15  C   UNL     1       4.626   4.704  17.882  0.00  0.00    +0.000 C 
BRANCH  15  16
ATOM     16  C   UNL     1       3.317   5.395  18.241  0.00  0.00    +0.000 C 
BRANCH  16  17
ATOM     17  S   UNL     1       1.875   4.324  17.809  0.00  0.00    +0.000 S 
ATOM     18  C   UNL     1       1.281   3.988  19.508  0.00  0.00    +0.000 C 
ATOM     19  C   UNL     1       2.203   2.940  20.102  0.00  0.00    +0.000 C 
ATOM     20  C   UNL     1       2.417   1.940  18.982  0.00  0.00    +0.000 C 
ATOM     21  C   UNL     1       2.791   2.742  17.742  0.00  0.00    +0.000 C 
ENDBRANCH  16  17
ENDBRANCH  15  16
ENDBRANCH   1  15
TORSDOF 9
ENDMDL
