MODEL 1
REMARK VINA RESULT:      -7.1      0.000      0.000
REMARK  Name = 
REMARK  8 active torsions:
REMARK  status: ('A' for Active; 'I' for Inactive)
REMARK    1  A    between atoms: C_1  and  O_2
REMARK    2  A    between atoms: O_2  and  C_3
REMARK    3  A    between atoms: C_6  and  N_7
REMARK    4  A    between atoms: C_8  and  C_10
REMARK    5  A    between atoms: N_12  and  C_13
REMARK    6  A    between atoms: C_13  and  C_14
REMARK    7  A    between atoms: C_14  and  C_15
REMARK    8  A    between atoms: C_15  and  O_16
REMARK                            x       y       z     vdW  Elec       q    Type
REMARK                         _______ _______ _______ _____ _____    ______ ____
ROOT
ATOM      1  N   UNL     1       4.507   3.987  16.300  0.00  0.00    +0.000 N 
ATOM      2  C   UNL     1       5.845   4.277  16.462  0.00  0.00    +0.000 C 
ATOM      3  O   UNL     1       6.492   4.380  17.498  0.00  0.00    +0.000 OA
ATOM      4  H   UNL     1       4.184   3.948  15.337  0.00  0.00    +0.000 HD
ENDROOT
BRANCH   1   8
ATOM      5  C   UNL     1       1.765   3.491  19.503  0.00  0.00    +0.000 A 
ATOM      6  C   UNL     1       2.127   2.401  18.708  0.00  0.00    +0.000 A 
ATOM      7  C   UNL     1       3.011   2.547  17.638  0.00  0.00    +0.000 A 
ATOM      8  C   UNL     1       3.568   3.788  17.337  0.00  0.00    +0.000 A 
ATOM      9  C   UNL     1       3.203   4.888  18.121  0.00  0.00    +0.000 A 
ATOM     10  C   UNL     1       2.316   4.744  19.204  0.00  0.00    +0.000 A 
ATOM     11 CL   UNL     1       2.053   6.164  20.154  0.00  0.00    +0.000 Cl
BRANCH   5  13
ATOM     12  C   UNL     1       1.626   2.675  21.738  0.00  0.00    +0.000 C 
ATOM     13  O   UNL     1       0.975   3.141  20.563  0.00  0.00    +0.000 OA
ENDBRANCH   5  13
ENDBRANCH   1   8
BRANCH   2  14
ATOM     14  C   UNL     1       6.603   4.488  15.137  0.00  0.00    +0.000 C 
ATOM     15  O   UNL     1       7.498   5.313  15.055  0.00  0.00    +0.000 OA
ATOM     16  N   UNL     1       6.128   3.676  14.131  0.00  0.00    +0.000 N 
ATOM     17  H   UNL     1       5.342   3.080  14.385  0.00  0.00    +0.000 HD
BRANCH  16  18
ATOM     18  C   UNL     1       6.589   3.713  12.765  0.00  0.00    +0.000 C 
BRANCH  18  19
ATOM     19  C   UNL     1       5.570   3.144  11.782  0.00  0.00    +0.000 C 
BRANCH  19  20
ATOM     20  C   UNL     1       5.826   1.686  11.429  0.00  0.00    +0.000 C 
BRANCH  20  21
ATOM     21  O   UNL     1       7.216   1.483  11.212  0.00  0.00    +0.000 OA
ATOM     22  H   UNL     1       7.674   2.301  11.468  0.00  0.00    +0.000 HD
ENDBRANCH  20  21
ENDBRANCH  19  20
ENDBRANCH  18  19
ENDBRANCH  16  18
ENDBRANCH   2  14
TORSDOF 7
ENDMDL
MODEL 2
REMARK VINA RESULT:      -7.0      1.311      1.680
REMARK  Name = 
REMARK  8 active torsions:
REMARK  status: ('A' for Active; 'I' for Inactive)
REMARK    1  A    between atoms: C_1  and  O_2
REMARK    2  A    between atoms: O_2  and  C_3
REMARK    3  A    between atoms: C_6  and  N_7
REMARK    4  A    between atoms: C_8  and  C_10
REMARK    5  A    between atoms: N_12  and  C_13
REMARK    6  A    between atoms: C_13  and  C_14
REMARK    7  A    between atoms: C_14  and  C_15
REMARK    8  A    between atoms: C_15  and  O_16
REMARK                            x       y       z     vdW  Elec       q    Type
REMARK                         _______ _______ _______ _____ _____    ______ ____
ROOT
ATOM      1  N   UNL     1       5.035   4.498  16.190  0.00  0.00    +0.000 N 
ATOM      2  C   UNL     1       6.408   4.461  16.067  0.00  0.00    +0.000 C 
ATOM      3  O   UNL     1       7.257   4.328  16.940  0.00  0.00    +0.000 OA
ATOM      4  H   UNL     1       4.523   4.614  15.320  0.00  0.00    +0.000 HD
ENDROOT
BRANCH   1   8
ATOM      5  C   UNL     1       2.716   4.284  19.739  0.00  0.00    +0.000 A 
ATOM      6  C   UNL     1       3.779   5.186  19.643  0.00  0.00    +0.000 A 
ATOM      7  C   UNL     1       4.566   5.257  18.493  0.00  0.00    +0.000 A 
ATOM      8  C   UNL     1       4.307   4.435  17.399  0.00  0.00    +0.000 A 
ATOM      9  C   UNL     1       3.250   3.522  17.490  0.00  0.00    +0.000 A 
ATOM     10  C   UNL     1       2.451   3.450  18.646  0.00  0.00    +0.000 A 
ATOM     11 CL   UNL     1       1.110   2.361  18.566  0.00  0.00    +0.000 Cl
BRANCH   5  13
ATOM     12  C   UNL     1       2.079   3.382  21.852  0.00  0.00    +0.000 C 
ATOM     13  O   UNL     1       1.996   4.428  20.893  0.00  0.00    +0.000 OA
ENDBRANCH   5  13
ENDBRANCH   1   8
BRANCH   2  14
ATOM     14  C   UNL     1       6.908   4.602  14.615  0.00  0.00    +0.000 C 
ATOM     15  O   UNL     1       7.703   5.477  14.312  0.00  0.00    +0.000 OA
ATOM     16  N   UNL     1       6.339   3.670  13.776  0.00  0.00    +0.000 N 
ATOM     17  H   UNL     1       5.661   3.045  14.211  0.00  0.00    +0.000 HD
BRANCH  16  18
ATOM     18  C   UNL     1       6.556   3.612  12.352  0.00  0.00    +0.000 C 
BRANCH  18  19
ATOM     19  C   UNL     1       5.464   2.839  11.619  0.00  0.00    +0.000 C 
BRANCH  19  20
ATOM     20  C   UNL     1       5.853   1.401  11.306  0.00  0.00    +0.000 C 
BRANCH  20  21
ATOM     21  O   UNL     1       7.267   1.303  11.186  0.00  0.00    +0.000 OA
ATOM     22  H   UNL     1       7.648   1.502  12.058  0.00  0.00    +0.000 HD
ENDBRANCH  20  21
ENDBRANCH  19  20
ENDBRANCH  18  19
ENDBRANCH  16  18
ENDBRANCH   2  14
TORSDOF 7
ENDMDL
MODEL 3
REMARK VINA RESULT:      -6.9      1.032      1.044
REMARK  Name = 
REMARK  8 active torsions:
REMARK  status: ('A' for Active; 'I' for Inactive)
REMARK    1  A    between atoms: C_1  and  O_2
REMARK    2  A    between atoms: O_2  and  C_3
REMARK    3  A    between atoms: C_6  and  N_7
REMARK    4  A    between atoms: C_8  and  C_10
REMARK    5  A    between atoms: N_12  and  C_13
REMARK    6  A    between atoms: C_13  and  C_14
REMARK    7  A    between atoms: C_14  and  C_15
REMARK    8  A    between atoms: C_15  and  O_16
REMARK                            x       y       z     vdW  Elec       q    Type
REMARK                         _______ _______ _______ _____ _____    ______ ____
ROOT
ATOM      1  N   UNL     1       5.046   3.940  16.108  0.00  0.00    +0.000 N 
ATOM      2  C   UNL     1       6.377   4.269  15.957  0.00  0.00    +0.000 C 
ATOM      3  O   UNL     1       7.234   4.425  16.818  0.00  0.00    +0.000 OA
ATOM      4  H   UNL     1       4.518   3.858  15.243  0.00  0.00    +0.000 HD
ENDROOT
BRANCH   1   8
ATOM      5  C   UNL     1       3.068   3.526  19.841  0.00  0.00    +0.000 A 
ATOM      6  C   UNL     1       3.619   2.411  19.206  0.00  0.00    +0.000 A 
ATOM      7  C   UNL     1       4.255   2.522  17.969  0.00  0.00    +0.000 A 
ATOM      8  C   UNL     1       4.369   3.757  17.334  0.00  0.00    +0.000 A 
ATOM      9  C   UNL     1       3.811   4.878  17.958  0.00  0.00    +0.000 A 
ATOM     10  C   UNL     1       3.173   4.771  19.207  0.00  0.00    +0.000 A 
ATOM     11 CL   UNL     1       2.641   6.259  19.910  0.00  0.00    +0.000 Cl
BRANCH   5  13
ATOM     12  C   UNL     1       1.203   2.909  21.191  0.00  0.00    +0.000 C 
ATOM     13  O   UNL     1       2.580   3.245  21.087  0.00  0.00    +0.000 OA
ENDBRANCH   5  13
ENDBRANCH   1   8
BRANCH   2  14
ATOM     14  C   UNL     1       6.813   4.449  14.490  0.00  0.00    +0.000 C 
ATOM     15  O   UNL     1       7.573   5.349  14.172  0.00  0.00    +0.000 OA
ATOM     16  N   UNL     1       6.231   3.519  13.656  0.00  0.00    +0.000 N 
ATOM     17  H   UNL     1       5.587   2.871  14.106  0.00  0.00    +0.000 HD
BRANCH  16  18
ATOM     18  C   UNL     1       6.390   3.494  12.224  0.00  0.00    +0.000 C 
BRANCH  18  19
ATOM     19  C   UNL     1       5.749   2.269  11.579  0.00  0.00    +0.000 C 
BRANCH  19  20
ATOM     20  C   UNL     1       6.765   1.248  11.088  0.00  0.00    +0.000 C 
BRANCH  20  21
ATOM     21  O   UNL     1       6.219  -0.061  11.195  0.00  0.00    +0.000 OA
ATOM     22  H   UNL     1       6.957  -0.672  11.359  0.00  0.00    +0.000 HD
ENDBRANCH  20  21
ENDBRANCH  19  20
ENDBRANCH  18  19
ENDBRANCH  16  18
ENDBRANCH   2  14
TORSDOF 7
ENDMDL
MODEL 4
REMARK VINA RESULT:      -6.8      1.046      1.133
REMARK  Name = 
REMARK  8 active torsions:
REMARK  status: ('A' for Active; 'I' for Inactive)
REMARK    1  A    between atoms: C_1  and  O_2
REMARK    2  A    between atoms: O_2  and  C_3
REMARK    3  A    between atoms: C_6  and  N_7
REMARK    4  A    between atoms: C_8  and  C_10
REMARK    5  A    between atoms: N_12  and  C_13
REMARK    6  A    between atoms: C_13  and  C_14
REMARK    7  A    between atoms: C_14  and  C_15
REMARK    8  A    between atoms: C_15  and  O_16
REMARK                            x       y       z     vdW  Elec       q    Type
REMARK                         _______ _______ _______ _____ _____    ______ ____
ROOT
ATOM      1  N   UNL     1       4.561   4.226  16.140  0.00  0.00    +0.000 N 
ATOM      2  C   UNL     1       5.928   4.351  16.275  0.00  0.00    +0.000 C 
ATOM      3  O   UNL     1       6.604   4.353  17.296  0.00  0.00    +0.000 OA
ATOM      4  H   UNL     1       4.215   4.247  15.185  0.00  0.00    +0.000 HD
ENDROOT
BRANCH   1   8
ATOM      5  C   UNL     1       1.841   4.005  19.392  0.00  0.00    +0.000 A 
ATOM      6  C   UNL     1       2.154   2.861  18.654  0.00  0.00    +0.000 A 
ATOM      7  C   UNL     1       3.029   2.917  17.568  0.00  0.00    +0.000 A 
ATOM      8  C   UNL     1       3.628   4.118  17.195  0.00  0.00    +0.000 A 
ATOM      9  C   UNL     1       3.313   5.271  17.923  0.00  0.00    +0.000 A 
ATOM     10  C   UNL     1       2.435   5.219  19.021  0.00  0.00    +0.000 A 
ATOM     11 CL   UNL     1       2.236   6.696  19.896  0.00  0.00    +0.000 Cl
BRANCH   5  13
ATOM     12  C   UNL     1       1.638   3.017  21.552  0.00  0.00    +0.000 C 
ATOM     13  O   UNL     1       1.053   3.741  20.478  0.00  0.00    +0.000 OA
ENDBRANCH   5  13
ENDBRANCH   1   8
BRANCH   2  14
ATOM     14  C   UNL     1       6.676   4.499  14.935  0.00  0.00    +0.000 C 
ATOM     15  O   UNL     1       7.564   5.325  14.806  0.00  0.00    +0.000 OA
ATOM     16  N   UNL     1       6.201   3.632  13.976  0.00  0.00    +0.000 N 
ATOM     17  H   UNL     1       5.422   3.043  14.265  0.00  0.00    +0.000 HD
BRANCH  16  18
ATOM     18  C   UNL     1       6.654   3.601  12.608  0.00  0.00    +0.000 C 
BRANCH  18  19
ATOM     19  C   UNL     1       5.691   2.861  11.683  0.00  0.00    +0.000 C 
BRANCH  19  20
ATOM     20  C   UNL     1       4.255   3.353  11.794  0.00  0.00    +0.000 C 
BRANCH  20  21
ATOM     21  O   UNL     1       3.577   3.130  10.565  0.00  0.00    +0.000 OA
ATOM     22  H   UNL     1       3.715   2.200  10.320  0.00  0.00    +0.000 HD
ENDBRANCH  20  21
ENDBRANCH  19  20
ENDBRANCH  18  19
ENDBRANCH  16  18
ENDBRANCH   2  14
TORSDOF 7
ENDMDL
MODEL 5
REMARK VINA RESULT:      -6.7      1.532      2.124
REMARK  Name = 
REMARK  8 active torsions:
REMARK  status: ('A' for Active; 'I' for Inactive)
REMARK    1  A    between atoms: C_1  and  O_2
REMARK    2  A    between atoms: O_2  and  C_3
REMARK    3  A    between atoms: C_6  and  N_7
REMARK    4  A    between atoms: C_8  and  C_10
REMARK    5  A    between atoms: N_12  and  C_13
REMARK    6  A    between atoms: C_13  and  C_14
REMARK    7  A    between atoms: C_14  and  C_15
REMARK    8  A    between atoms: C_15  and  O_16
REMARK                            x       y       z     vdW  Elec       q    Type
REMARK                         _______ _______ _______ _____ _____    ______ ____
ROOT
ATOM      1  N   UNL     1       4.964   5.009  16.109  0.00  0.00    +0.000 N 
ATOM      2  C   UNL     1       6.314   4.736  16.065  0.00  0.00    +0.000 C 
ATOM      3  O   UNL     1       7.092   4.541  16.991  0.00  0.00    +0.000 OA
ATOM      4  H   UNL     1       4.515   5.132  15.205  0.00  0.00    +0.000 HD
ENDROOT
BRANCH   1   8
ATOM      5  C   UNL     1       2.529   5.382  19.566  0.00  0.00    +0.000 A 
ATOM      6  C   UNL     1       3.111   6.512  18.987  0.00  0.00    +0.000 A 
ATOM      7  C   UNL     1       3.931   6.408  17.863  0.00  0.00    +0.000 A 
ATOM      8  C   UNL     1       4.186   5.170  17.277  0.00  0.00    +0.000 A 
ATOM      9  C   UNL     1       3.614   4.032  17.856  0.00  0.00    +0.000 A 
ATOM     10  C   UNL     1       2.782   4.132  18.987  0.00  0.00    +0.000 A 
ATOM     11 CL   UNL     1       2.053   2.657  19.517  0.00  0.00    +0.000 Cl
BRANCH   5  13
ATOM     12  C   UNL     1       1.446   7.062  20.865  0.00  0.00    +0.000 C 
ATOM     13  O   UNL     1       1.677   5.686  20.592  0.00  0.00    +0.000 OA
ENDBRANCH   5  13
ENDBRANCH   1   8
BRANCH   2  14
ATOM     14  C   UNL     1       6.891   4.668  14.637  0.00  0.00    +0.000 C 
ATOM     15  O   UNL     1       7.801   5.405  14.296  0.00  0.00    +0.000 OA
ATOM     16  N   UNL     1       6.247   3.729  13.860  0.00  0.00    +0.000 N 
ATOM     17  H   UNL     1       5.479   3.238  14.315  0.00  0.00    +0.000 HD
BRANCH  16  18
ATOM     18  C   UNL     1       6.517   3.502  12.463  0.00  0.00    +0.000 C 
BRANCH  18  19
ATOM     19  C   UNL     1       5.417   2.701  11.772  0.00  0.00    +0.000 C 
BRANCH  19  20
ATOM     20  C   UNL     1       5.905   1.373  11.210  0.00  0.00    +0.000 C 
BRANCH  20  21
ATOM     21  O   UNL     1       7.326   1.346  11.210  0.00  0.00    +0.000 OA
ATOM     22  H   UNL     1       7.601   0.421  11.329  0.00  0.00    +0.000 HD
ENDBRANCH  20  21
ENDBRANCH  19  20
ENDBRANCH  18  19
ENDBRANCH  16  18
ENDBRANCH   2  14
TORSDOF 7
ENDMDL
MODEL 6
REMARK VINA RESULT:      -6.6      2.005      2.367
REMARK  Name = 
REMARK  8 active torsions:
REMARK  status: ('A' for Active; 'I' for Inactive)
REMARK    1  A    between atoms: C_1  and  O_2
REMARK    2  A    between atoms: O_2  and  C_3
REMARK    3  A    between atoms: C_6  and  N_7
REMARK    4  A    between atoms: C_8  and  C_10
REMARK    5  A    between atoms: N_12  and  C_13
REMARK    6  A    between atoms: C_13  and  C_14
REMARK    7  A    between atoms: C_14  and  C_15
REMARK    8  A    between atoms: C_15  and  O_16
REMARK                            x       y       z     vdW  Elec       q    Type
REMARK                         _______ _______ _______ _____ _____    ______ ____
ROOT
ATOM      1  N   UNL     1       5.333   4.673  15.799  0.00  0.00    +0.000 N 
ATOM      2  C   UNL     1       6.628   5.064  15.531  0.00  0.00    +0.000 C 
ATOM      3  O   UNL     1       7.459   5.548  16.289  0.00  0.00    +0.000 OA
ATOM      4  H   UNL     1       4.822   4.289  15.008  0.00  0.00    +0.000 HD
ENDROOT
BRANCH   1   8
ATOM      5  C   UNL     1       3.289   4.909  19.512  0.00  0.00    +0.000 A 
ATOM      6  C   UNL     1       3.219   5.964  18.599  0.00  0.00    +0.000 A 
ATOM      7  C   UNL     1       3.900   5.915  17.382  0.00  0.00    +0.000 A 
ATOM      8  C   UNL     1       4.665   4.802  17.037  0.00  0.00    +0.000 A 
ATOM      9  C   UNL     1       4.748   3.745  17.949  0.00  0.00    +0.000 A 
ATOM     10  C   UNL     1       4.059   3.788  19.175  0.00  0.00    +0.000 A 
ATOM     11 CL   UNL     1       4.159   2.361  20.145  0.00  0.00    +0.000 Cl
BRANCH   5  13
ATOM     12  C   UNL     1       1.208   4.448  20.579  0.00  0.00    +0.000 C 
ATOM     13  O   UNL     1       2.477   5.087  20.598  0.00  0.00    +0.000 OA
ENDBRANCH   5  13
ENDBRANCH   1   8
BRANCH   2  14
ATOM     14  C   UNL     1       7.057   4.838  14.068  0.00  0.00    +0.000 C 
ATOM     15  O   UNL     1       7.878   5.569  13.539  0.00  0.00    +0.000 OA
ATOM     16  N   UNL     1       6.399   3.774  13.490  0.00  0.00    +0.000 N 
ATOM     17  H   UNL     1       5.714   3.309  14.084  0.00  0.00    +0.000 HD
BRANCH  16  18
ATOM     18  C   UNL     1       6.537   3.379  12.111  0.00  0.00    +0.000 C 
BRANCH  18  19
ATOM     19  C   UNL     1       5.377   2.516  11.624  0.00  0.00    +0.000 C 
BRANCH  19  20
ATOM     20  C   UNL     1       4.036   3.234  11.667  0.00  0.00    +0.000 C 
BRANCH  20  21
ATOM     21  O   UNL     1       3.798   3.880  10.423  0.00  0.00    +0.000 OA
ATOM     22  H   UNL     1       4.165   4.777  10.484  0.00  0.00    +0.000 HD
ENDBRANCH  20  21
ENDBRANCH  19  20
ENDBRANCH  18  19
ENDBRANCH  16  18
ENDBRANCH   2  14
TORSDOF 7
ENDMDL
MODEL 7
REMARK VINA RESULT:      -6.6      1.678      2.014
REMARK  Name = 
REMARK  8 active torsions:
REMARK  status: ('A' for Active; 'I' for Inactive)
REMARK    1  A    between atoms: C_1  and  O_2
REMARK    2  A    between atoms: O_2  and  C_3
REMARK    3  A    between atoms: C_6  and  N_7
REMARK    4  A    between atoms: C_8  and  C_10
REMARK    5  A    between atoms: N_12  and  C_13
REMARK    6  A    between atoms: C_13  and  C_14
REMARK    7  A    between atoms: C_14  and  C_15
REMARK    8  A    between atoms: C_15  and  O_16
REMARK                            x       y       z     vdW  Elec       q    Type
REMARK                         _______ _______ _______ _____ _____    ______ ____
ROOT
ATOM      1  N   UNL     1       5.157   4.491  16.041  0.00  0.00    +0.000 N 
ATOM      2  C   UNL     1       6.527   4.556  15.894  0.00  0.00    +0.000 C 
ATOM      3  O   UNL     1       7.395   4.568  16.759  0.00  0.00    +0.000 OA
ATOM      4  H   UNL     1       4.626   4.490  15.174  0.00  0.00    +0.000 HD
ENDROOT
BRANCH   1   8
ATOM      5  C   UNL     1       2.905   4.414  19.639  0.00  0.00    +0.000 A 
ATOM      6  C   UNL     1       4.005   5.265  19.512  0.00  0.00    +0.000 A 
ATOM      7  C   UNL     1       4.770   5.291  18.346  0.00  0.00    +0.000 A 
ATOM      8  C   UNL     1       4.452   4.471  17.265  0.00  0.00    +0.000 A 
ATOM      9  C   UNL     1       3.358   3.608  17.386  0.00  0.00    +0.000 A 
ATOM     10  C   UNL     1       2.580   3.582  18.559  0.00  0.00    +0.000 A 
ATOM     11 CL   UNL     1       1.191   2.554  18.518  0.00  0.00    +0.000 Cl
BRANCH   5  13
ATOM     12  C   UNL     1       2.176   3.515  21.723  0.00  0.00    +0.000 C 
ATOM     13  O   UNL     1       2.216   4.600  20.805  0.00  0.00    +0.000 OA
ENDBRANCH   5  13
ENDBRANCH   1   8
BRANCH   2  14
ATOM     14  C   UNL     1       6.995   4.613  14.427  0.00  0.00    +0.000 C 
ATOM     15  O   UNL     1       7.827   5.431  14.070  0.00  0.00    +0.000 OA
ATOM     16  N   UNL     1       6.354   3.682  13.640  0.00  0.00    +0.000 N 
ATOM     17  H   UNL     1       5.656   3.113  14.116  0.00  0.00    +0.000 HD
BRANCH  16  18
ATOM     18  C   UNL     1       6.530   3.558  12.215  0.00  0.00    +0.000 C 
BRANCH  18  19
ATOM     19  C   UNL     1       5.826   2.333  11.637  0.00  0.00    +0.000 C 
BRANCH  19  20
ATOM     20  C   UNL     1       4.392   2.611  11.210  0.00  0.00    +0.000 C 
BRANCH  20  21
ATOM     21  O   UNL     1       4.150   4.012  11.227  0.00  0.00    +0.000 OA
ATOM     22  H   UNL     1       3.322   4.171  10.744  0.00  0.00    +0.000 HD
ENDBRANCH  20  21
ENDBRANCH  19  20
ENDBRANCH  18  19
ENDBRANCH  16  18
ENDBRANCH   2  14
TORSDOF 7
ENDMDL
MODEL 8
REMARK VINA RESULT:      -6.6      1.737      2.044
REMARK  Name = 
REMARK  8 active torsions:
REMARK  status: ('A' for Active; 'I' for Inactive)
REMARK    1  A    between atoms: C_1  and  O_2
REMARK    2  A    between atoms: O_2  and  C_3
REMARK    3  A    between atoms: C_6  and  N_7
REMARK    4  A    between atoms: C_8  and  C_10
REMARK    5  A    between atoms: N_12  and  C_13
REMARK    6  A    between atoms: C_13  and  C_14
REMARK    7  A    between atoms: C_14  and  C_15
REMARK    8  A    between atoms: C_15  and  O_16
REMARK                            x       y       z     vdW  Elec       q    Type
REMARK                         _______ _______ _______ _____ _____    ______ ____
ROOT
ATOM      1  N   UNL     1       5.286   4.706  15.962  0.00  0.00    +0.000 N 
ATOM      2  C   UNL     1       6.648   4.703  15.748  0.00  0.00    +0.000 C 
ATOM      3  O   UNL     1       7.557   4.723  16.569  0.00  0.00    +0.000 OA
ATOM      4  H   UNL     1       4.713   4.682  15.122  0.00  0.00    +0.000 HD
ENDROOT
BRANCH   1   8
ATOM      5  C   UNL     1       3.315   4.789  19.721  0.00  0.00    +0.000 A 
ATOM      6  C   UNL     1       3.202   5.867  18.841  0.00  0.00    +0.000 A 
ATOM      7  C   UNL     1       3.858   5.868  17.609  0.00  0.00    +0.000 A 
ATOM      8  C   UNL     1       4.641   4.785  17.216  0.00  0.00    +0.000 A 
ATOM      9  C   UNL     1       4.768   3.704  18.096  0.00  0.00    +0.000 A 
ATOM     10  C   UNL     1       4.104   3.696  19.337  0.00  0.00    +0.000 A 
ATOM     11 CL   UNL     1       4.258   2.245  20.263  0.00  0.00    +0.000 Cl
BRANCH   5  13
ATOM     12  C   UNL     1       1.276   4.233  20.824  0.00  0.00    +0.000 C 
ATOM     13  O   UNL     1       2.523   4.917  20.828  0.00  0.00    +0.000 OA
ENDBRANCH   5  13
ENDBRANCH   1   8
BRANCH   2  14
ATOM     14  C   UNL     1       7.046   4.659  14.260  0.00  0.00    +0.000 C 
ATOM     15  O   UNL     1       7.818   5.482  13.797  0.00  0.00    +0.000 OA
ATOM     16  N   UNL     1       6.418   3.636  13.583  0.00  0.00    +0.000 N 
ATOM     17  H   UNL     1       5.772   3.077  14.137  0.00  0.00    +0.000 HD
BRANCH  16  18
ATOM     18  C   UNL     1       6.536   3.402  12.166  0.00  0.00    +0.000 C 
BRANCH  18  19
ATOM     19  C   UNL     1       5.497   2.414  11.642  0.00  0.00    +0.000 C 
BRANCH  19  20
ATOM     20  C   UNL     1       6.089   1.348  10.731  0.00  0.00    +0.000 C 
BRANCH  20  21
ATOM     21  O   UNL     1       6.890   0.455  11.496  0.00  0.00    +0.000 OA
ATOM     22  H   UNL     1       6.305  -0.244  11.834  0.00  0.00    +0.000 HD
ENDBRANCH  20  21
ENDBRANCH  19  20
ENDBRANCH  18  19
ENDBRANCH  16  18
ENDBRANCH   2  14
TORSDOF 7
ENDMDL
MODEL 9
REMARK VINA RESULT:      -6.3      1.035      1.122
REMARK  Name = 
REMARK  8 active torsions:
REMARK  status: ('A' for Active; 'I' for Inactive)
REMARK    1  A    between atoms: C_1  and  O_2
REMARK    2  A    between atoms: O_2  and  C_3
REMARK    3  A    between atoms: C_6  and  N_7
REMARK    4  A    between atoms: C_8  and  C_10
REMARK    5  A    between atoms: N_12  and  C_13
REMARK    6  A    between atoms: C_13  and  C_14
REMARK    7  A    between atoms: C_14  and  C_15
REMARK    8  A    between atoms: C_15  and  O_16
REMARK                            x       y       z     vdW  Elec       q    Type
REMARK                         _______ _______ _______ _____ _____    ______ ____
ROOT
ATOM      1  N   UNL     1       4.718   4.644  16.686  0.00  0.00    +0.000 N 
ATOM      2  C   UNL     1       6.065   4.692  16.972  0.00  0.00    +0.000 C 
ATOM      3  O   UNL     1       6.647   4.362  17.999  0.00  0.00    +0.000 OA
ATOM      4  H   UNL     1       4.458   4.969  15.758  0.00  0.00    +0.000 HD
ENDROOT
BRANCH   1   8
ATOM      5  C   UNL     1       1.705   3.497  19.448  0.00  0.00    +0.000 A 
ATOM      6  C   UNL     1       2.220   2.570  18.539  0.00  0.00    +0.000 A 
ATOM      7  C   UNL     1       3.195   2.932  17.610  0.00  0.00    +0.000 A 
ATOM      8  C   UNL     1       3.694   4.232  17.568  0.00  0.00    +0.000 A 
ATOM      9  C   UNL     1       3.177   5.171  18.468  0.00  0.00    +0.000 A 
ATOM     10  C   UNL     1       2.196   4.809  19.410  0.00  0.00    +0.000 A 
ATOM     11 CL   UNL     1       1.742   6.042  20.533  0.00  0.00    +0.000 Cl
BRANCH   5  13
ATOM     12  C   UNL     1       1.341   2.638  21.641  0.00  0.00    +0.000 C 
ATOM     13  O   UNL     1       0.838   2.940  20.347  0.00  0.00    +0.000 OA
ENDBRANCH   5  13
ENDBRANCH   1   8
BRANCH   2  14
ATOM     14  C   UNL     1       6.930   5.234  15.818  0.00  0.00    +0.000 C 
ATOM     15  O   UNL     1       7.600   6.243  15.961  0.00  0.00    +0.000 OA
ATOM     16  N   UNL     1       6.814   4.469  14.678  0.00  0.00    +0.000 N 
ATOM     17  H   UNL     1       6.169   3.684  14.742  0.00  0.00    +0.000 HD
BRANCH  16  18
ATOM     18  C   UNL     1       7.443   4.780  13.418  0.00  0.00    +0.000 C 
BRANCH  18  19
ATOM     19  C   UNL     1       6.681   4.216  12.223  0.00  0.00    +0.000 C 
BRANCH  19  20
ATOM     20  C   UNL     1       5.548   3.281  12.620  0.00  0.00    +0.000 C 
BRANCH  20  21
ATOM     21  O   UNL     1       4.776   2.950  11.473  0.00  0.00    +0.000 OA
ATOM     22  H   UNL     1       3.977   2.490  11.781  0.00  0.00    +0.000 HD
ENDBRANCH  20  21
ENDBRANCH  19  20
ENDBRANCH  18  19
ENDBRANCH  16  18
ENDBRANCH   2  14
TORSDOF 7
ENDMDL
