MODEL 1
REMARK VINA RESULT:      -7.5      0.000      0.000
REMARK  Name = 
REMARK  8 active torsions:
REMARK  status: ('A' for Active; 'I' for Inactive)
REMARK    1  A    between atoms: C_1  and  N_2
REMARK    2  A    between atoms: N_2  and  C_3
REMARK    3  A    between atoms: N_2  and  C_4
REMARK    4  A    between atoms: N_2  and  C_21
REMARK    5  A    between atoms: C_4  and  C_5
REMARK    6  A    between atoms: C_5  and  C_6
REMARK    7  A    between atoms: C_6  and  N_7
REMARK    8  A    between atoms: C_21  and  C_22
REMARK                            x       y       z     vdW  Elec       q    Type
REMARK                         _______ _______ _______ _____ _____    ______ ____
ROOT
ATOM      1  C   UNL     1       3.694   5.917  17.338  0.00  0.00    +0.000 C 
ENDROOT
BRANCH   1   2
ATOM      2  N   UNL     1       2.354   6.032  17.967  0.00  0.00    +0.000 N 
ATOM      3  C   UNL     1       2.055   7.336  18.447  0.00  0.00    +0.000 A 
ATOM      4  C   UNL     1       1.941   8.399  17.535  0.00  0.00    +0.000 A 
ATOM      5  C   UNL     1       1.530   9.666  17.954  0.00  0.00    +0.000 A 
ATOM      6  C   UNL     1       1.229   9.892  19.293  0.00  0.00    +0.000 A 
ATOM      7  C   UNL     1       1.353   8.856  20.218  0.00  0.00    +0.000 A 
ATOM      8  C   UNL     1       1.758   7.580  19.802  0.00  0.00    +0.000 A 
ATOM      9  S   UNL     1       1.917   6.303  21.039  0.00  0.00    +0.000 S 
ATOM     10  C   UNL     1       1.662   4.854  20.031  0.00  0.00    +0.000 A 
ATOM     11  C   UNL     1       1.209   3.688  20.663  0.00  0.00    +0.000 A 
ATOM     12  C   UNL     1       0.952   2.538  19.920  0.00  0.00    +0.000 A 
ATOM     13  C   UNL     1       1.158   2.545  18.543  0.00  0.00    +0.000 A 
ATOM     14  C   UNL     1       1.645   3.693  17.912  0.00  0.00    +0.000 A 
ATOM     15  C   UNL     1       1.914   4.861  18.643  0.00  0.00    +0.000 A 
ENDBRANCH   1   2
BRANCH   1  16
ATOM     16  C   UNL     1       4.780   6.588  18.196  0.00  0.00    +0.000 C 
BRANCH  16  17
ATOM     17  C   UNL     1       5.675   5.564  18.889  0.00  0.00    +0.000 C 
BRANCH  17  19
ATOM     18  C   UNL     1       7.333   7.019  17.735  0.00  0.00    +0.000 C 
ATOM     19  N   UNL     1       7.149   5.682  18.481  0.00  0.00    +0.000 N 
ATOM     20  C   UNL     1       8.050   5.775  19.726  0.00  0.00    +0.000 C 
BRANCH  19  21
ATOM     21  C   UNL     1       7.666   4.533  17.603  0.00  0.00    +0.000 C 
BRANCH  21  22
ATOM     22  C   UNL     1       7.003   4.369  16.250  0.00  0.00    +0.000 A 
ATOM     23  C   UNL     1       5.863   3.560  16.126  0.00  0.00    +0.000 A 
ATOM     24  C   UNL     1       5.253   3.362  14.884  0.00  0.00    +0.000 A 
ATOM     25  C   UNL     1       5.780   3.982  13.751  0.00  0.00    +0.000 A 
ATOM     26 CL   UNL     1       5.037   3.738  12.221  0.00  0.00    +0.000 Cl
ATOM     27  C   UNL     1       6.896   4.805  13.856  0.00  0.00    +0.000 A 
ATOM     28  C   UNL     1       7.500   5.008  15.103  0.00  0.00    +0.000 A 
ENDBRANCH  21  22
ENDBRANCH  19  21
ENDBRANCH  17  19
ENDBRANCH  16  17
ENDBRANCH   1  16
TORSDOF 6
ENDMDL
MODEL 2
REMARK VINA RESULT:      -7.4      3.056      5.196
REMARK  Name = 
REMARK  8 active torsions:
REMARK  status: ('A' for Active; 'I' for Inactive)
REMARK    1  A    between atoms: C_1  and  N_2
REMARK    2  A    between atoms: N_2  and  C_3
REMARK    3  A    between atoms: N_2  and  C_4
REMARK    4  A    between atoms: N_2  and  C_21
REMARK    5  A    between atoms: C_4  and  C_5
REMARK    6  A    between atoms: C_5  and  C_6
REMARK    7  A    between atoms: C_6  and  N_7
REMARK    8  A    between atoms: C_21  and  C_22
REMARK                            x       y       z     vdW  Elec       q    Type
REMARK                         _______ _______ _______ _____ _____    ______ ____
ROOT
ATOM      1  C   UNL     1       1.022   9.789  18.353  0.00  0.00    +0.000 C 
ENDROOT
BRANCH   1   2
ATOM      2  N   UNL     1      -0.336   9.764  18.954  0.00  0.00    +0.000 N 
ATOM      3  C   UNL     1      -1.353  10.261  18.094  0.00  0.00    +0.000 A 
ATOM      4  C   UNL     1      -1.647   9.574  16.904  0.00  0.00    +0.000 A 
ATOM      5  C   UNL     1      -2.720   9.960  16.096  0.00  0.00    +0.000 A 
ATOM      6  C   UNL     1      -3.513  11.042  16.465  0.00  0.00    +0.000 A 
ATOM      7  C   UNL     1      -3.227  11.748  17.633  0.00  0.00    +0.000 A 
ATOM      8  C   UNL     1      -2.157  11.361  18.451  0.00  0.00    +0.000 A 
ATOM      9  S   UNL     1      -1.832  12.319  19.921  0.00  0.00    +0.000 S 
ATOM     10  C   UNL     1      -1.025  11.088  20.928  0.00  0.00    +0.000 A 
ATOM     11  C   UNL     1      -1.054  11.258  22.319  0.00  0.00    +0.000 A 
ATOM     12  C   UNL     1      -0.477  10.307  23.158  0.00  0.00    +0.000 A 
ATOM     13  C   UNL     1       0.141   9.187  22.609  0.00  0.00    +0.000 A 
ATOM     14  C   UNL     1       0.206   9.030  21.222  0.00  0.00    +0.000 A 
ATOM     15  C   UNL     1      -0.366   9.978  20.359  0.00  0.00    +0.000 A 
ENDBRANCH   1   2
BRANCH   1  16
ATOM     16  C   UNL     1       1.513   8.374  18.007  0.00  0.00    +0.000 C 
BRANCH  16  17
ATOM     17  C   UNL     1       2.551   7.869  19.006  0.00  0.00    +0.000 C 
BRANCH  17  19
ATOM     18  C   UNL     1       1.958   5.852  20.337  0.00  0.00    +0.000 C 
ATOM     19  N   UNL     1       2.650   6.339  19.048  0.00  0.00    +0.000 N 
ATOM     20  C   UNL     1       1.854   5.713  17.888  0.00  0.00    +0.000 C 
BRANCH  19  21
ATOM     21  C   UNL     1       4.082   5.786  18.998  0.00  0.00    +0.000 C 
BRANCH  21  22
ATOM     22  C   UNL     1       4.600   5.383  17.632  0.00  0.00    +0.000 A 
ATOM     23  C   UNL     1       4.805   4.027  17.336  0.00  0.00    +0.000 A 
ATOM     24  C   UNL     1       5.317   3.630  16.097  0.00  0.00    +0.000 A 
ATOM     25  C   UNL     1       5.622   4.595  15.137  0.00  0.00    +0.000 A 
ATOM     26 CL   UNL     1       6.256   4.114  13.614  0.00  0.00    +0.000 Cl
ATOM     27  C   UNL     1       5.405   5.943  15.403  0.00  0.00    +0.000 A 
ATOM     28  C   UNL     1       4.885   6.336  16.641  0.00  0.00    +0.000 A 
ENDBRANCH  21  22
ENDBRANCH  19  21
ENDBRANCH  17  19
ENDBRANCH  16  17
ENDBRANCH   1  16
TORSDOF 6
ENDMDL
MODEL 3
REMARK VINA RESULT:      -7.3      3.352      7.268
REMARK  Name = 
REMARK  8 active torsions:
REMARK  status: ('A' for Active; 'I' for Inactive)
REMARK    1  A    between atoms: C_1  and  N_2
REMARK    2  A    between atoms: N_2  and  C_3
REMARK    3  A    between atoms: N_2  and  C_4
REMARK    4  A    between atoms: N_2  and  C_21
REMARK    5  A    between atoms: C_4  and  C_5
REMARK    6  A    between atoms: C_5  and  C_6
REMARK    7  A    between atoms: C_6  and  N_7
REMARK    8  A    between atoms: C_21  and  C_22
REMARK                            x       y       z     vdW  Elec       q    Type
REMARK                         _______ _______ _______ _____ _____    ______ ____
ROOT
ATOM      1  C   UNL     1       2.066   6.699  18.469  0.00  0.00    +0.000 C 
ENDROOT
BRANCH   1   2
ATOM      2  N   UNL     1       3.087   5.643  18.687  0.00  0.00    +0.000 N 
ATOM      3  C   UNL     1       3.999   5.494  17.608  0.00  0.00    +0.000 A 
ATOM      4  C   UNL     1       4.869   6.550  17.287  0.00  0.00    +0.000 A 
ATOM      5  C   UNL     1       5.859   6.397  16.314  0.00  0.00    +0.000 A 
ATOM      6  C   UNL     1       5.994   5.185  15.645  0.00  0.00    +0.000 A 
ATOM      7  C   UNL     1       5.131   4.130  15.935  0.00  0.00    +0.000 A 
ATOM      8  C   UNL     1       4.139   4.275  16.915  0.00  0.00    +0.000 A 
ATOM      9  S   UNL     1       3.053   2.894  17.224  0.00  0.00    +0.000 S 
ATOM     10  C   UNL     1       2.589   3.229  18.914  0.00  0.00    +0.000 A 
ATOM     11  C   UNL     1       2.159   2.153  19.701  0.00  0.00    +0.000 A 
ATOM     12  C   UNL     1       1.823   2.348  21.039  0.00  0.00    +0.000 A 
ATOM     13  C   UNL     1       1.905   3.622  21.593  0.00  0.00    +0.000 A 
ATOM     14  C   UNL     1       2.297   4.707  20.803  0.00  0.00    +0.000 A 
ATOM     15  C   UNL     1       2.636   4.532  19.452  0.00  0.00    +0.000 A 
ENDBRANCH   1   2
BRANCH   1  16
ATOM     16  C   UNL     1       2.237   7.864  19.458  0.00  0.00    +0.000 C 
BRANCH  16  17
ATOM     17  C   UNL     1       1.322   7.721  20.671  0.00  0.00    +0.000 C 
BRANCH  17  19
ATOM     18  C   UNL     1      -0.673   8.892  21.590  0.00  0.00    +0.000 C 
ATOM     19  N   UNL     1       0.807   9.068  21.197  0.00  0.00    +0.000 N 
ATOM     20  C   UNL     1       1.537   9.458  22.495  0.00  0.00    +0.000 C 
BRANCH  19  21
ATOM     21  C   UNL     1       0.937  10.235  20.207  0.00  0.00    +0.000 C 
BRANCH  21  22
ATOM     22  C   UNL     1      -0.294  10.560  19.385  0.00  0.00    +0.000 A 
ATOM     23  C   UNL     1      -1.183  11.553  19.821  0.00  0.00    +0.000 A 
ATOM     24  C   UNL     1      -2.345  11.847  19.101  0.00  0.00    +0.000 A 
ATOM     25  C   UNL     1      -2.622  11.147  17.927  0.00  0.00    +0.000 A 
ATOM     26 CL   UNL     1      -4.051  11.500  17.041  0.00  0.00    +0.000 Cl
ATOM     27  C   UNL     1      -1.743  10.173  17.466  0.00  0.00    +0.000 A 
ATOM     28  C   UNL     1      -0.577   9.887  18.185  0.00  0.00    +0.000 A 
ENDBRANCH  21  22
ENDBRANCH  19  21
ENDBRANCH  17  19
ENDBRANCH  16  17
ENDBRANCH   1  16
TORSDOF 6
ENDMDL
MODEL 4
REMARK VINA RESULT:      -7.2      3.697      7.532
REMARK  Name = 
REMARK  8 active torsions:
REMARK  status: ('A' for Active; 'I' for Inactive)
REMARK    1  A    between atoms: C_1  and  N_2
REMARK    2  A    between atoms: N_2  and  C_3
REMARK    3  A    between atoms: N_2  and  C_4
REMARK    4  A    between atoms: N_2  and  C_21
REMARK    5  A    between atoms: C_4  and  C_5
REMARK    6  A    between atoms: C_5  and  C_6
REMARK    7  A    between atoms: C_6  and  N_7
REMARK    8  A    between atoms: C_21  and  C_22
REMARK                            x       y       z     vdW  Elec       q    Type
REMARK                         _______ _______ _______ _____ _____    ______ ____
ROOT
ATOM      1  C   UNL     1       1.928   6.785  18.210  0.00  0.00    +0.000 C 
ENDROOT
BRANCH   1   2
ATOM      2  N   UNL     1       2.980   5.784  18.520  0.00  0.00    +0.000 N 
ATOM      3  C   UNL     1       3.914   5.588  17.467  0.00  0.00    +0.000 A 
ATOM      4  C   UNL     1       4.753   6.647  17.081  0.00  0.00    +0.000 A 
ATOM      5  C   UNL     1       5.764   6.457  16.137  0.00  0.00    +0.000 A 
ATOM      6  C   UNL     1       5.951   5.205  15.560  0.00  0.00    +0.000 A 
ATOM      7  C   UNL     1       5.117   4.145  15.915  0.00  0.00    +0.000 A 
ATOM      8  C   UNL     1       4.106   4.327  16.868  0.00  0.00    +0.000 A 
ATOM      9  S   UNL     1       3.061   2.935  17.262  0.00  0.00    +0.000 S 
ATOM     10  C   UNL     1       2.558   3.377  18.915  0.00  0.00    +0.000 A 
ATOM     11  C   UNL     1       2.151   2.347  19.774  0.00  0.00    +0.000 A 
ATOM     12  C   UNL     1       1.788   2.627  21.089  0.00  0.00    +0.000 A 
ATOM     13  C   UNL     1       1.818   3.940  21.549  0.00  0.00    +0.000 A 
ATOM     14  C   UNL     1       2.187   4.977  20.687  0.00  0.00    +0.000 A 
ATOM     15  C   UNL     1       2.554   4.717  19.357  0.00  0.00    +0.000 A 
ENDBRANCH   1   2
BRANCH   1  16
ATOM     16  C   UNL     1       2.272   8.166  18.795  0.00  0.00    +0.000 C 
BRANCH  16  17
ATOM     17  C   UNL     1       1.507   8.446  20.085  0.00  0.00    +0.000 C 
BRANCH  17  19
ATOM     18  C   UNL     1      -0.655   9.459  20.790  0.00  0.00    +0.000 C 
ATOM     19  N   UNL     1       0.651   9.717  20.011  0.00  0.00    +0.000 N 
ATOM     20  C   UNL     1       1.345  10.881  20.742  0.00  0.00    +0.000 C 
BRANCH  19  21
ATOM     21  C   UNL     1       0.312  10.181  18.587  0.00  0.00    +0.000 C 
BRANCH  21  22
ATOM     22  C   UNL     1      -1.144  10.499  18.311  0.00  0.00    +0.000 A 
ATOM     23  C   UNL     1      -1.852   9.754  17.356  0.00  0.00    +0.000 A 
ATOM     24  C   UNL     1      -3.185  10.050  17.056  0.00  0.00    +0.000 A 
ATOM     25  C   UNL     1      -3.824  11.097  17.720  0.00  0.00    +0.000 A 
ATOM     26 CL   UNL     1      -5.460  11.469  17.351  0.00  0.00    +0.000 Cl
ATOM     27  C   UNL     1      -3.147  11.834  18.686  0.00  0.00    +0.000 A 
ATOM     28  C   UNL     1      -1.814  11.529  18.990  0.00  0.00    +0.000 A 
ENDBRANCH  21  22
ENDBRANCH  19  21
ENDBRANCH  17  19
ENDBRANCH  16  17
ENDBRANCH   1  16
TORSDOF 6
ENDMDL
MODEL 5
REMARK VINA RESULT:      -7.2      4.070      8.163
REMARK  Name = 
REMARK  8 active torsions:
REMARK  status: ('A' for Active; 'I' for Inactive)
REMARK    1  A    between atoms: C_1  and  N_2
REMARK    2  A    between atoms: N_2  and  C_3
REMARK    3  A    between atoms: N_2  and  C_4
REMARK    4  A    between atoms: N_2  and  C_21
REMARK    5  A    between atoms: C_4  and  C_5
REMARK    6  A    between atoms: C_5  and  C_6
REMARK    7  A    between atoms: C_6  and  N_7
REMARK    8  A    between atoms: C_21  and  C_22
REMARK                            x       y       z     vdW  Elec       q    Type
REMARK                         _______ _______ _______ _____ _____    ______ ____
ROOT
ATOM      1  C   UNL     1       1.984   6.752  18.564  0.00  0.00    +0.000 C 
ENDROOT
BRANCH   1   2
ATOM      2  N   UNL     1       3.002   5.687  18.753  0.00  0.00    +0.000 N 
ATOM      3  C   UNL     1       3.886   5.535  17.651  0.00  0.00    +0.000 A 
ATOM      4  C   UNL     1       4.756   6.585  17.314  0.00  0.00    +0.000 A 
ATOM      5  C   UNL     1       5.722   6.428  16.318  0.00  0.00    +0.000 A 
ATOM      6  C   UNL     1       5.831   5.218  15.640  0.00  0.00    +0.000 A 
ATOM      7  C   UNL     1       4.965   4.168  15.947  0.00  0.00    +0.000 A 
ATOM      8  C   UNL     1       3.999   4.318  16.951  0.00  0.00    +0.000 A 
ATOM      9  S   UNL     1       2.909   2.944  17.280  0.00  0.00    +0.000 S 
ATOM     10  C   UNL     1       2.488   3.276  18.981  0.00  0.00    +0.000 A 
ATOM     11  C   UNL     1       2.068   2.200  19.774  0.00  0.00    +0.000 A 
ATOM     12  C   UNL     1       1.766   2.392  21.121  0.00  0.00    +0.000 A 
ATOM     13  C   UNL     1       1.872   3.663  21.678  0.00  0.00    +0.000 A 
ATOM     14  C   UNL     1       2.254   4.747  20.884  0.00  0.00    +0.000 A 
ATOM     15  C   UNL     1       2.559   4.576  19.524  0.00  0.00    +0.000 A 
ENDBRANCH   1   2
BRANCH   1  16
ATOM     16  C   UNL     1       2.260   7.965  19.469  0.00  0.00    +0.000 C 
BRANCH  16  17
ATOM     17  C   UNL     1       0.982   8.725  19.810  0.00  0.00    +0.000 C 
BRANCH  17  19
ATOM     18  C   UNL     1       1.972  10.117  17.998  0.00  0.00    +0.000 C 
ATOM     19  N   UNL     1       0.867  10.066  19.072  0.00  0.00    +0.000 N 
ATOM     20  C   UNL     1      -0.464  10.148  18.301  0.00  0.00    +0.000 C 
BRANCH  19  21
ATOM     21  C   UNL     1       0.973  11.306  19.973  0.00  0.00    +0.000 C 
BRANCH  21  22
ATOM     22  C   UNL     1      -0.147  11.509  20.973  0.00  0.00    +0.000 A 
ATOM     23  C   UNL     1      -1.101  12.514  20.757  0.00  0.00    +0.000 A 
ATOM     24  C   UNL     1      -2.123  12.747  21.681  0.00  0.00    +0.000 A 
ATOM     25  C   UNL     1      -2.201  11.966  22.834  0.00  0.00    +0.000 A 
ATOM     26 CL   UNL     1      -3.452  12.251  23.976  0.00  0.00    +0.000 Cl
ATOM     27  C   UNL     1      -1.277  10.950  23.057  0.00  0.00    +0.000 A 
ATOM     28  C   UNL     1      -0.260  10.713  22.125  0.00  0.00    +0.000 A 
ENDBRANCH  21  22
ENDBRANCH  19  21
ENDBRANCH  17  19
ENDBRANCH  16  17
ENDBRANCH   1  16
TORSDOF 6
ENDMDL
MODEL 6
REMARK VINA RESULT:      -7.1      3.207      7.518
REMARK  Name = 
REMARK  8 active torsions:
REMARK  status: ('A' for Active; 'I' for Inactive)
REMARK    1  A    between atoms: C_1  and  N_2
REMARK    2  A    between atoms: N_2  and  C_3
REMARK    3  A    between atoms: N_2  and  C_4
REMARK    4  A    between atoms: N_2  and  C_21
REMARK    5  A    between atoms: C_4  and  C_5
REMARK    6  A    between atoms: C_5  and  C_6
REMARK    7  A    between atoms: C_6  and  N_7
REMARK    8  A    between atoms: C_21  and  C_22
REMARK                            x       y       z     vdW  Elec       q    Type
REMARK                         _______ _______ _______ _____ _____    ______ ____
ROOT
ATOM      1  C   UNL     1       2.190   6.830  18.171  0.00  0.00    +0.000 C 
ENDROOT
BRANCH   1   2
ATOM      2  N   UNL     1       3.006   5.634  17.839  0.00  0.00    +0.000 N 
ATOM      3  C   UNL     1       2.540   4.436  18.445  0.00  0.00    +0.000 A 
ATOM      4  C   UNL     1       1.280   3.925  18.086  0.00  0.00    +0.000 A 
ATOM      5  C   UNL     1       0.841   2.689  18.566  0.00  0.00    +0.000 A 
ATOM      6  C   UNL     1       1.654   1.945  19.416  0.00  0.00    +0.000 A 
ATOM      7  C   UNL     1       2.900   2.441  19.798  0.00  0.00    +0.000 A 
ATOM      8  C   UNL     1       3.349   3.678  19.313  0.00  0.00    +0.000 A 
ATOM      9  S   UNL     1       4.943   4.265  19.858  0.00  0.00    +0.000 S 
ATOM     10  C   UNL     1       5.374   5.323  18.487  0.00  0.00    +0.000 A 
ATOM     11  C   UNL     1       6.733   5.584  18.263  0.00  0.00    +0.000 A 
ATOM     12  C   UNL     1       7.131   6.369  17.184  0.00  0.00    +0.000 A 
ATOM     13  C   UNL     1       6.172   6.906  16.329  0.00  0.00    +0.000 A 
ATOM     14  C   UNL     1       4.814   6.680  16.569  0.00  0.00    +0.000 A 
ATOM     15  C   UNL     1       4.391   5.895  17.653  0.00  0.00    +0.000 A 
ENDBRANCH   1   2
BRANCH   1  16
ATOM     16  C   UNL     1       2.577   7.415  19.540  0.00  0.00    +0.000 C 
BRANCH  16  17
ATOM     17  C   UNL     1       1.431   7.323  20.545  0.00  0.00    +0.000 C 
BRANCH  17  19
ATOM     18  C   UNL     1      -0.586   8.551  21.329  0.00  0.00    +0.000 C 
ATOM     19  N   UNL     1       0.911   8.696  20.990  0.00  0.00    +0.000 N 
ATOM     20  C   UNL     1       1.592   9.135  22.299  0.00  0.00    +0.000 C 
BRANCH  19  21
ATOM     21  C   UNL     1       1.094   9.818  19.957  0.00  0.00    +0.000 C 
BRANCH  21  22
ATOM     22  C   UNL     1      -0.152  10.259  19.215  0.00  0.00    +0.000 A 
ATOM     23  C   UNL     1      -0.972  11.258  19.760  0.00  0.00    +0.000 A 
ATOM     24  C   UNL     1      -2.146  11.657  19.115  0.00  0.00    +0.000 A 
ATOM     25  C   UNL     1      -2.505  11.059  17.908  0.00  0.00    +0.000 A 
ATOM     26 CL   UNL     1      -3.950  11.542  17.113  0.00  0.00    +0.000 Cl
ATOM     27  C   UNL     1      -1.695  10.082  17.339  0.00  0.00    +0.000 A 
ATOM     28  C   UNL     1      -0.516   9.690  17.984  0.00  0.00    +0.000 A 
ENDBRANCH  21  22
ENDBRANCH  19  21
ENDBRANCH  17  19
ENDBRANCH  16  17
ENDBRANCH   1  16
TORSDOF 6
ENDMDL
MODEL 7
REMARK VINA RESULT:      -7.0      4.094      8.150
REMARK  Name = 
REMARK  8 active torsions:
REMARK  status: ('A' for Active; 'I' for Inactive)
REMARK    1  A    between atoms: C_1  and  N_2
REMARK    2  A    between atoms: N_2  and  C_3
REMARK    3  A    between atoms: N_2  and  C_4
REMARK    4  A    between atoms: N_2  and  C_21
REMARK    5  A    between atoms: C_4  and  C_5
REMARK    6  A    between atoms: C_5  and  C_6
REMARK    7  A    between atoms: C_6  and  N_7
REMARK    8  A    between atoms: C_21  and  C_22
REMARK                            x       y       z     vdW  Elec       q    Type
REMARK                         _______ _______ _______ _____ _____    ______ ____
ROOT
ATOM      1  C   UNL     1       2.252   6.848  17.974  0.00  0.00    +0.000 C 
ENDROOT
BRANCH   1   2
ATOM      2  N   UNL     1       3.222   5.858  18.508  0.00  0.00    +0.000 N 
ATOM      3  C   UNL     1       4.393   5.718  17.716  0.00  0.00    +0.000 A 
ATOM      4  C   UNL     1       5.272   6.807  17.581  0.00  0.00    +0.000 A 
ATOM      5  C   UNL     1       6.491   6.670  16.913  0.00  0.00    +0.000 A 
ATOM      6  C   UNL     1       6.850   5.442  16.366  0.00  0.00    +0.000 A 
ATOM      7  C   UNL     1       5.985   4.354  16.472  0.00  0.00    +0.000 A 
ATOM      8  C   UNL     1       4.763   4.483  17.148  0.00  0.00    +0.000 A 
ATOM      9  S   UNL     1       3.693   3.057  17.230  0.00  0.00    +0.000 S 
ATOM     10  C   UNL     1       2.783   3.432  18.718  0.00  0.00    +0.000 A 
ATOM     11  C   UNL     1       2.206   2.364  19.418  0.00  0.00    +0.000 A 
ATOM     12  C   UNL     1       1.519   2.591  20.609  0.00  0.00    +0.000 A 
ATOM     13  C   UNL     1       1.397   3.888  21.099  0.00  0.00    +0.000 A 
ATOM     14  C   UNL     1       1.939   4.962  20.386  0.00  0.00    +0.000 A 
ATOM     15  C   UNL     1       2.631   4.755  19.182  0.00  0.00    +0.000 A 
ENDBRANCH   1   2
BRANCH   1  16
ATOM     16  C   UNL     1       2.115   8.064  18.906  0.00  0.00    +0.000 C 
BRANCH  16  17
ATOM     17  C   UNL     1       1.747   9.332  18.141  0.00  0.00    +0.000 C 
BRANCH  17  19
ATOM     18  C   UNL     1       1.414  11.752  18.617  0.00  0.00    +0.000 C 
ATOM     19  N   UNL     1       0.943  10.331  18.984  0.00  0.00    +0.000 N 
ATOM     20  C   UNL     1      -0.549  10.279  18.609  0.00  0.00    +0.000 C 
BRANCH  19  21
ATOM     21  C   UNL     1       1.061  10.130  20.503  0.00  0.00    +0.000 C 
BRANCH  21  22
ATOM     22  C   UNL     1       0.243  11.065  21.370  0.00  0.00    +0.000 A 
ATOM     23  C   UNL     1      -0.709  10.540  22.257  0.00  0.00    +0.000 A 
ATOM     24  C   UNL     1      -1.502  11.381  23.042  0.00  0.00    +0.000 A 
ATOM     25  C   UNL     1      -1.342  12.763  22.949  0.00  0.00    +0.000 A 
ATOM     26 CL   UNL     1      -2.318  13.803  23.907  0.00  0.00    +0.000 Cl
ATOM     27  C   UNL     1      -0.389  13.303  22.092  0.00  0.00    +0.000 A 
ATOM     28  C   UNL     1       0.410  12.458  21.314  0.00  0.00    +0.000 A 
ENDBRANCH  21  22
ENDBRANCH  19  21
ENDBRANCH  17  19
ENDBRANCH  16  17
ENDBRANCH   1  16
TORSDOF 6
ENDMDL
MODEL 8
REMARK VINA RESULT:      -7.0      7.940     11.282
REMARK  Name = 
REMARK  8 active torsions:
REMARK  status: ('A' for Active; 'I' for Inactive)
REMARK    1  A    between atoms: C_1  and  N_2
REMARK    2  A    between atoms: N_2  and  C_3
REMARK    3  A    between atoms: N_2  and  C_4
REMARK    4  A    between atoms: N_2  and  C_21
REMARK    5  A    between atoms: C_4  and  C_5
REMARK    6  A    between atoms: C_5  and  C_6
REMARK    7  A    between atoms: C_6  and  N_7
REMARK    8  A    between atoms: C_21  and  C_22
REMARK                            x       y       z     vdW  Elec       q    Type
REMARK                         _______ _______ _______ _____ _____    ______ ____
ROOT
ATOM      1  C   UNL     1       0.089  11.148  18.603  0.00  0.00    +0.000 C 
ENDROOT
BRANCH   1   2
ATOM      2  N   UNL     1       0.241  11.865  19.895  0.00  0.00    +0.000 N 
ATOM      3  C   UNL     1       0.062  11.036  21.036  0.00  0.00    +0.000 A 
ATOM      4  C   UNL     1       0.969   9.991  21.279  0.00  0.00    +0.000 A 
ATOM      5  C   UNL     1       0.898   9.235  22.451  0.00  0.00    +0.000 A 
ATOM      6  C   UNL     1      -0.084   9.510  23.398  0.00  0.00    +0.000 A 
ATOM      7  C   UNL     1      -1.005  10.531  23.168  0.00  0.00    +0.000 A 
ATOM      8  C   UNL     1      -0.934  11.299  21.996  0.00  0.00    +0.000 A 
ATOM      9  S   UNL     1      -2.156  12.576  21.753  0.00  0.00    +0.000 S 
ATOM     10  C   UNL     1      -1.250  13.677  20.681  0.00  0.00    +0.000 A 
ATOM     11  C   UNL     1      -1.634  15.025  20.651  0.00  0.00    +0.000 A 
ATOM     12  C   UNL     1      -0.937  15.939  19.864  0.00  0.00    +0.000 A 
ATOM     13  C   UNL     1       0.140  15.508  19.095  0.00  0.00    +0.000 A 
ATOM     14  C   UNL     1       0.504  14.159  19.090  0.00  0.00    +0.000 A 
ATOM     15  C   UNL     1      -0.188  13.221  19.874  0.00  0.00    +0.000 A 
ENDBRANCH   1   2
BRANCH   1  16
ATOM     16  C   UNL     1      -1.337  10.601  18.424  0.00  0.00    +0.000 C 
BRANCH  16  17
ATOM     17  C   UNL     1      -2.218  11.555  17.622  0.00  0.00    +0.000 C 
BRANCH  17  19
ATOM     18  C   UNL     1      -2.922  10.567  15.448  0.00  0.00    +0.000 C 
ATOM     19  N   UNL     1      -3.369  10.843  16.898  0.00  0.00    +0.000 N 
ATOM     20  C   UNL     1      -3.628   9.459  17.521  0.00  0.00    +0.000 C 
BRANCH  19  21
ATOM     21  C   UNL     1      -4.695  11.617  16.885  0.00  0.00    +0.000 C 
BRANCH  21  22
ATOM     22  C   UNL     1      -5.460  11.663  18.192  0.00  0.00    +0.000 A 
ATOM     23  C   UNL     1      -5.010  12.487  19.235  0.00  0.00    +0.000 A 
ATOM     24  C   UNL     1      -5.676  12.521  20.463  0.00  0.00    +0.000 A 
ATOM     25  C   UNL     1      -6.808  11.729  20.655  0.00  0.00    +0.000 A 
ATOM     26 CL   UNL     1      -7.627  11.762  22.165  0.00  0.00    +0.000 Cl
ATOM     27  C   UNL     1      -7.282  10.921  19.627  0.00  0.00    +0.000 A 
ATOM     28  C   UNL     1      -6.618  10.896  18.395  0.00  0.00    +0.000 A 
ENDBRANCH  21  22
ENDBRANCH  19  21
ENDBRANCH  17  19
ENDBRANCH  16  17
ENDBRANCH   1  16
TORSDOF 6
ENDMDL
MODEL 9
REMARK VINA RESULT:      -6.9      4.156      8.351
REMARK  Name = 
REMARK  8 active torsions:
REMARK  status: ('A' for Active; 'I' for Inactive)
REMARK    1  A    between atoms: C_1  and  N_2
REMARK    2  A    between atoms: N_2  and  C_3
REMARK    3  A    between atoms: N_2  and  C_4
REMARK    4  A    between atoms: N_2  and  C_21
REMARK    5  A    between atoms: C_4  and  C_5
REMARK    6  A    between atoms: C_5  and  C_6
REMARK    7  A    between atoms: C_6  and  N_7
REMARK    8  A    between atoms: C_21  and  C_22
REMARK                            x       y       z     vdW  Elec       q    Type
REMARK                         _______ _______ _______ _____ _____    ______ ____
ROOT
ATOM      1  C   UNL     1       2.332   7.186  17.856  0.00  0.00    +0.000 C 
ENDROOT
BRANCH   1   2
ATOM      2  N   UNL     1       3.194   6.086  18.358  0.00  0.00    +0.000 N 
ATOM      3  C   UNL     1       4.377   5.892  17.595  0.00  0.00    +0.000 A 
ATOM      4  C   UNL     1       5.349   6.906  17.556  0.00  0.00    +0.000 A 
ATOM      5  C   UNL     1       6.576   6.704  16.919  0.00  0.00    +0.000 A 
ATOM      6  C   UNL     1       6.849   5.484  16.309  0.00  0.00    +0.000 A 
ATOM      7  C   UNL     1       5.892   4.471  16.320  0.00  0.00    +0.000 A 
ATOM      8  C   UNL     1       4.662   4.665  16.964  0.00  0.00    +0.000 A 
ATOM      9  S   UNL     1       3.473   3.335  16.924  0.00  0.00    +0.000 S 
ATOM     10  C   UNL     1       2.544   3.699  18.403  0.00  0.00    +0.000 A 
ATOM     11  C   UNL     1       1.853   2.646  19.018  0.00  0.00    +0.000 A 
ATOM     12  C   UNL     1       1.145   2.861  20.198  0.00  0.00    +0.000 A 
ATOM     13  C   UNL     1       1.116   4.133  20.763  0.00  0.00    +0.000 A 
ATOM     14  C   UNL     1       1.772   5.195  20.136  0.00  0.00    +0.000 A 
ATOM     15  C   UNL     1       2.488   5.000  18.944  0.00  0.00    +0.000 A 
ENDBRANCH   1   2
BRANCH   1  16
ATOM     16  C   UNL     1       2.253   8.346  18.863  0.00  0.00    +0.000 C 
BRANCH  16  17
ATOM     17  C   UNL     1       1.616   9.591  18.252  0.00  0.00    +0.000 C 
BRANCH  17  19
ATOM     18  C   UNL     1      -0.818  10.049  17.999  0.00  0.00    +0.000 C 
ATOM     19  N   UNL     1       0.356  10.049  18.999  0.00  0.00    +0.000 N 
ATOM     20  C   UNL     1      -0.028   9.031  20.088  0.00  0.00    +0.000 C 
BRANCH  19  21
ATOM     21  C   UNL     1       0.467  11.433  19.656  0.00  0.00    +0.000 C 
BRANCH  21  22
ATOM     22  C   UNL     1      -0.579  11.767  20.700  0.00  0.00    +0.000 A 
ATOM     23  C   UNL     1      -0.353  11.434  22.044  0.00  0.00    +0.000 A 
ATOM     24  C   UNL     1      -1.316  11.698  23.023  0.00  0.00    +0.000 A 
ATOM     25  C   UNL     1      -2.517  12.307  22.660  0.00  0.00    +0.000 A 
ATOM     26 CL   UNL     1      -3.707  12.628  23.857  0.00  0.00    +0.000 Cl
ATOM     27  C   UNL     1      -2.752  12.664  21.337  0.00  0.00    +0.000 A 
ATOM     28  C   UNL     1      -1.781  12.407  20.361  0.00  0.00    +0.000 A 
ENDBRANCH  21  22
ENDBRANCH  19  21
ENDBRANCH  17  19
ENDBRANCH  16  17
ENDBRANCH   1  16
TORSDOF 6
ENDMDL
