MODEL 1
REMARK VINA RESULT:      -6.5      0.000      0.000
REMARK  Name = 
REMARK  19 active torsions:
REMARK  status: ('A' for Active; 'I' for Inactive)
REMARK    1  A    between atoms: C_2  and  O_3
REMARK    2  A    between atoms: C_2  and  C_4
REMARK    3  A    between atoms: C_4  and  C_5
REMARK    4  A    between atoms: C_5  and  C_6
REMARK    5  A    between atoms: C_7  and  C_8
REMARK    6  A    between atoms: C_8  and  C_9
REMARK    7  A    between atoms: C_10  and  C_11
REMARK    8  A    between atoms: C_11  and  C_12
REMARK    9  A    between atoms: C_12  and  O_13
REMARK   10  A    between atoms: C_12  and  C_14
REMARK   11  A    between atoms: C_15  and  C_16
REMARK   12  A    between atoms: C_17  and  C_18
REMARK   13  A    between atoms: C_19  and  C_20
REMARK   14  A    between atoms: C_20  and  O_21
REMARK   15  A    between atoms: C_20  and  C_22
REMARK   16  A    between atoms: C_22  and  C_23
REMARK   17  A    between atoms: C_24  and  C_25
REMARK   18  A    between atoms: C_25  and  C_26
REMARK   19  A    between atoms: C_26  and  O_27
REMARK                            x       y       z     vdW  Elec       q    Type
REMARK                         _______ _______ _______ _____ _____    ______ ____
ROOT
ATOM      1  C   UNL     1       7.445   6.415  17.623  0.00  0.00    +0.000 C 
ATOM      2  C   UNL     1       8.081   7.401  18.278  0.00  0.00    +0.000 C 
ENDROOT
BRANCH   2   3
ATOM      3  C   UNL     1       8.115   8.786  17.851  0.00  0.00    +0.000 C 
ATOM      4  C   UNL     1       8.888   9.729  18.406  0.00  0.00    +0.000 C 
BRANCH   4   5
ATOM      5  C   UNL     1       9.021  11.067  17.909  0.00  0.00    +0.000 C 
ATOM      6  C   UNL     1       9.968  11.914  18.345  0.00  0.00    +0.000 C 
BRANCH   6   7
ATOM      7  C   UNL     1      11.125  11.644  19.289  0.00  0.00    +0.000 C 
BRANCH   7   8
ATOM      8  O   UNL     1      12.332  11.352  18.582  0.00  0.00    +0.000 OA
ATOM      9  H   UNL     1      12.433  10.384  18.578  0.00  0.00    +0.000 HD
ENDBRANCH   7   8
BRANCH   7  10
ATOM     10  C   UNL     1      11.432  12.841  20.208  0.00  0.00    +0.000 C 
BRANCH  10  11
ATOM     11  C   UNL     1      10.277  13.212  21.099  0.00  0.00    +0.000 C 
ATOM     12  C   UNL     1       9.736  14.432  21.234  0.00  0.00    +0.000 C 
BRANCH  12  13
ATOM     13  C   UNL     1      10.161  15.677  20.506  0.00  0.00    +0.000 C 
BRANCH  13  14
ATOM     14  C   UNL     1       9.570  15.731  19.098  0.00  0.00    +0.000 C 
BRANCH  14  15
ATOM     15  O   UNL     1       8.511  16.681  19.025  0.00  0.00    +0.000 OA
ATOM     16  H   UNL     1       7.729  16.205  18.696  0.00  0.00    +0.000 HD
ENDBRANCH  14  15
ENDBRANCH  13  14
ENDBRANCH  12  13
ENDBRANCH  10  11
ENDBRANCH   7  10
ENDBRANCH   6   7
ENDBRANCH   4   5
ENDBRANCH   2   3
BRANCH   1  17
ATOM     17  C   UNL     1       7.346   4.991  18.080  0.00  0.00    +0.000 C 
BRANCH  17  18
ATOM     18  O   UNL     1       7.971   4.185  17.082  0.00  0.00    +0.000 OA
ATOM     19  H   UNL     1       7.639   3.277  17.191  0.00  0.00    +0.000 HD
ENDBRANCH  17  18
BRANCH  17  20
ATOM     20  C   UNL     1       5.866   4.609  18.231  0.00  0.00    +0.000 C 
BRANCH  20  22
ATOM     21  C   UNL     1       4.266   3.243  16.839  0.00  0.00    +0.000 C 
ATOM     22  C   UNL     1       5.203   4.202  16.938  0.00  0.00    +0.000 C 
BRANCH  21  23
ATOM     23  C   UNL     1       3.762   2.463  18.017  0.00  0.00    +0.000 C 
BRANCH  23  25
ATOM     24  C   UNL     1       1.373   3.212  18.105  0.00  0.00    +0.000 C 
ATOM     25  C   UNL     1       2.280   2.223  18.018  0.00  0.00    +0.000 C 
BRANCH  24  26
ATOM     26  C   UNL     1       1.731   4.675  18.201  0.00  0.00    +0.000 C 
BRANCH  26  27
ATOM     27  C   UNL     1       2.139   5.118  19.602  0.00  0.00    +0.000 C 
BRANCH  27  29
ATOM     28  O   UNL     1       3.007   7.204  18.691  0.00  0.00    +0.000 OA
ATOM     29  C   UNL     1       2.479   6.592  19.610  0.00  0.00    +0.000 C 
BRANCH  29  30
ATOM     30  O   UNL     1       2.121   7.199  20.766  0.00  0.00    +0.000 OA
ATOM     31  H   UNL     1       1.915   8.150  20.663  0.00  0.00    +0.000 HD
ENDBRANCH  29  30
ENDBRANCH  27  29
ENDBRANCH  26  27
ENDBRANCH  24  26
ENDBRANCH  23  25
ENDBRANCH  21  23
ENDBRANCH  20  22
ENDBRANCH  17  20
ENDBRANCH   1  17
TORSDOF 19
ENDMDL
MODEL 2
REMARK VINA RESULT:      -6.4      6.200      8.668
REMARK  Name = 
REMARK  19 active torsions:
REMARK  status: ('A' for Active; 'I' for Inactive)
REMARK    1  A    between atoms: C_2  and  O_3
REMARK    2  A    between atoms: C_2  and  C_4
REMARK    3  A    between atoms: C_4  and  C_5
REMARK    4  A    between atoms: C_5  and  C_6
REMARK    5  A    between atoms: C_7  and  C_8
REMARK    6  A    between atoms: C_8  and  C_9
REMARK    7  A    between atoms: C_10  and  C_11
REMARK    8  A    between atoms: C_11  and  C_12
REMARK    9  A    between atoms: C_12  and  O_13
REMARK   10  A    between atoms: C_12  and  C_14
REMARK   11  A    between atoms: C_15  and  C_16
REMARK   12  A    between atoms: C_17  and  C_18
REMARK   13  A    between atoms: C_19  and  C_20
REMARK   14  A    between atoms: C_20  and  O_21
REMARK   15  A    between atoms: C_20  and  C_22
REMARK   16  A    between atoms: C_22  and  C_23
REMARK   17  A    between atoms: C_24  and  C_25
REMARK   18  A    between atoms: C_25  and  C_26
REMARK   19  A    between atoms: C_26  and  O_27
REMARK                            x       y       z     vdW  Elec       q    Type
REMARK                         _______ _______ _______ _____ _____    ______ ____
ROOT
ATOM      1  C   UNL     1       1.193   4.459  20.394  0.00  0.00    +0.000 C 
ATOM      2  C   UNL     1       1.875   5.612  20.494  0.00  0.00    +0.000 C 
ENDROOT
BRANCH   2   3
ATOM      3  C   UNL     1       1.569   6.819  19.751  0.00  0.00    +0.000 C 
ATOM      4  C   UNL     1       2.470   7.527  19.057  0.00  0.00    +0.000 C 
BRANCH   4   5
ATOM      5  C   UNL     1       2.153   8.646  18.218  0.00  0.00    +0.000 C 
ATOM      6  C   UNL     1       1.262   9.588  18.568  0.00  0.00    +0.000 C 
BRANCH   6   7
ATOM      7  C   UNL     1       0.536   9.768  19.888  0.00  0.00    +0.000 C 
BRANCH   7   8
ATOM      8  O   UNL     1       1.161  10.757  20.709  0.00  0.00    +0.000 OA
ATOM      9  H   UNL     1       2.029  10.403  20.970  0.00  0.00    +0.000 HD
ENDBRANCH   7   8
BRANCH   7  10
ATOM     10  C   UNL     1      -0.928  10.209  19.705  0.00  0.00    +0.000 C 
BRANCH  10  11
ATOM     11  C   UNL     1      -1.068  11.468  18.891  0.00  0.00    +0.000 C 
ATOM     12  C   UNL     1      -1.663  11.580  17.694  0.00  0.00    +0.000 C 
BRANCH  12  13
ATOM     13  C   UNL     1      -2.333  10.472  16.929  0.00  0.00    +0.000 C 
BRANCH  13  14
ATOM     14  C   UNL     1      -3.522  10.990  16.121  0.00  0.00    +0.000 C 
BRANCH  14  15
ATOM     15  O   UNL     1      -3.697  10.233  14.928  0.00  0.00    +0.000 OA
ATOM     16  H   UNL     1      -2.905  10.382  14.382  0.00  0.00    +0.000 HD
ENDBRANCH  14  15
ENDBRANCH  13  14
ENDBRANCH  12  13
ENDBRANCH  10  11
ENDBRANCH   7  10
ENDBRANCH   6   7
ENDBRANCH   4   5
ENDBRANCH   2   3
BRANCH   1  17
ATOM     17  C   UNL     1       1.454   3.222  21.198  0.00  0.00    +0.000 C 
BRANCH  17  18
ATOM     18  O   UNL     1       2.415   3.565  22.196  0.00  0.00    +0.000 OA
ATOM     19  H   UNL     1       3.162   2.948  22.105  0.00  0.00    +0.000 HD
ENDBRANCH  17  18
BRANCH  17  20
ATOM     20  C   UNL     1       2.007   2.126  20.274  0.00  0.00    +0.000 C 
BRANCH  20  22
ATOM     21  C   UNL     1       2.031   2.565  17.790  0.00  0.00    +0.000 C 
ATOM     22  C   UNL     1       1.399   2.126  18.892  0.00  0.00    +0.000 C 
BRANCH  21  23
ATOM     23  C   UNL     1       3.430   3.108  17.806  0.00  0.00    +0.000 C 
BRANCH  23  25
ATOM     24  C   UNL     1       4.683   5.104  16.955  0.00  0.00    +0.000 C 
ATOM     25  C   UNL     1       3.542   4.550  17.405  0.00  0.00    +0.000 C 
BRANCH  24  26
ATOM     26  C   UNL     1       5.976   4.345  16.788  0.00  0.00    +0.000 C 
BRANCH  26  27
ATOM     27  C   UNL     1       6.208   3.827  15.372  0.00  0.00    +0.000 C 
BRANCH  27  29
ATOM     28  O   UNL     1       7.166   4.814  13.363  0.00  0.00    +0.000 OA
ATOM     29  C   UNL     1       7.033   4.814  14.579  0.00  0.00    +0.000 C 
BRANCH  29  30
ATOM     30  O   UNL     1       7.627   5.742  15.366  0.00  0.00    +0.000 OA
ATOM     31  H   UNL     1       7.963   6.518  14.874  0.00  0.00    +0.000 HD
ENDBRANCH  29  30
ENDBRANCH  27  29
ENDBRANCH  26  27
ENDBRANCH  24  26
ENDBRANCH  23  25
ENDBRANCH  21  23
ENDBRANCH  20  22
ENDBRANCH  17  20
ENDBRANCH   1  17
TORSDOF 19
ENDMDL
MODEL 3
REMARK VINA RESULT:      -6.4      2.016      2.405
REMARK  Name = 
REMARK  19 active torsions:
REMARK  status: ('A' for Active; 'I' for Inactive)
REMARK    1  A    between atoms: C_2  and  O_3
REMARK    2  A    between atoms: C_2  and  C_4
REMARK    3  A    between atoms: C_4  and  C_5
REMARK    4  A    between atoms: C_5  and  C_6
REMARK    5  A    between atoms: C_7  and  C_8
REMARK    6  A    between atoms: C_8  and  C_9
REMARK    7  A    between atoms: C_10  and  C_11
REMARK    8  A    between atoms: C_11  and  C_12
REMARK    9  A    between atoms: C_12  and  O_13
REMARK   10  A    between atoms: C_12  and  C_14
REMARK   11  A    between atoms: C_15  and  C_16
REMARK   12  A    between atoms: C_17  and  C_18
REMARK   13  A    between atoms: C_19  and  C_20
REMARK   14  A    between atoms: C_20  and  O_21
REMARK   15  A    between atoms: C_20  and  C_22
REMARK   16  A    between atoms: C_22  and  C_23
REMARK   17  A    between atoms: C_24  and  C_25
REMARK   18  A    between atoms: C_25  and  C_26
REMARK   19  A    between atoms: C_26  and  O_27
REMARK                            x       y       z     vdW  Elec       q    Type
REMARK                         _______ _______ _______ _____ _____    ______ ____
ROOT
ATOM      1  C   UNL     1       6.923   6.457  18.580  0.00  0.00    +0.000 C 
ATOM      2  C   UNL     1       7.772   7.093  17.756  0.00  0.00    +0.000 C 
ENDROOT
BRANCH   2   3
ATOM      3  C   UNL     1       7.806   8.529  17.555  0.00  0.00    +0.000 C 
ATOM      4  C   UNL     1       8.584   9.370  18.250  0.00  0.00    +0.000 C 
BRANCH   4   5
ATOM      5  C   UNL     1       8.718  10.771  17.972  0.00  0.00    +0.000 C 
ATOM      6  C   UNL     1       9.523  11.579  18.680  0.00  0.00    +0.000 C 
BRANCH   6   7
ATOM      7  C   UNL     1      10.518  11.217  19.767  0.00  0.00    +0.000 C 
BRANCH   7   8
ATOM      8  O   UNL     1      11.851  11.590  19.414  0.00  0.00    +0.000 OA
ATOM      9  H   UNL     1      12.075  12.379  19.938  0.00  0.00    +0.000 HD
ENDBRANCH   7   8
BRANCH   7  10
ATOM     10  C   UNL     1      10.208  11.907  21.108  0.00  0.00    +0.000 C 
BRANCH  10  11
ATOM     11  C   UNL     1       9.598  13.273  20.942  0.00  0.00    +0.000 C 
ATOM     12  C   UNL     1       8.498  13.733  21.555  0.00  0.00    +0.000 C 
BRANCH  12  13
ATOM     13  C   UNL     1       7.658  12.984  22.552  0.00  0.00    +0.000 C 
BRANCH  13  14
ATOM     14  C   UNL     1       6.350  13.716  22.844  0.00  0.00    +0.000 C 
BRANCH  14  15
ATOM     15  O   UNL     1       5.304  12.795  23.140  0.00  0.00    +0.000 OA
ATOM     16  H   UNL     1       5.454  12.012  22.582  0.00  0.00    +0.000 HD
ENDBRANCH  14  15
ENDBRANCH  13  14
ENDBRANCH  12  13
ENDBRANCH  10  11
ENDBRANCH   7  10
ENDBRANCH   6   7
ENDBRANCH   4   5
ENDBRANCH   2   3
BRANCH   1  17
ATOM     17  C   UNL     1       6.912   4.982  18.846  0.00  0.00    +0.000 C 
BRANCH  17  18
ATOM     18  O   UNL     1       7.854   4.387  17.955  0.00  0.00    +0.000 OA
ATOM     19  H   UNL     1       7.405   3.650  17.506  0.00  0.00    +0.000 HD
ENDBRANCH  17  18
BRANCH  17  20
ATOM     20  C   UNL     1       5.503   4.431  18.585  0.00  0.00    +0.000 C 
BRANCH  20  22
ATOM     21  C   UNL     1       3.987   3.874  16.647  0.00  0.00    +0.000 C 
ATOM     22  C   UNL     1       5.207   4.169  17.128  0.00  0.00    +0.000 C 
BRANCH  21  23
ATOM     23  C   UNL     1       2.765   3.774  17.511  0.00  0.00    +0.000 C 
BRANCH  23  25
ATOM     24  C   UNL     1       2.552   1.770  19.000  0.00  0.00    +0.000 C 
ATOM     25  C   UNL     1       2.330   2.370  17.816  0.00  0.00    +0.000 C 
BRANCH  24  26
ATOM     26  C   UNL     1       3.251   2.434  20.160  0.00  0.00    +0.000 C 
BRANCH  26  27
ATOM     27  C   UNL     1       2.308   2.882  21.272  0.00  0.00    +0.000 C 
BRANCH  27  29
ATOM     28  O   UNL     1       0.611   4.408  20.422  0.00  0.00    +0.000 OA
ATOM     29  C   UNL     1       1.705   4.228  20.940  0.00  0.00    +0.000 C 
BRANCH  29  30
ATOM     30  O   UNL     1       2.511   5.257  21.292  0.00  0.00    +0.000 OA
ATOM     31  H   UNL     1       2.474   6.014  20.673  0.00  0.00    +0.000 HD
ENDBRANCH  29  30
ENDBRANCH  27  29
ENDBRANCH  26  27
ENDBRANCH  24  26
ENDBRANCH  23  25
ENDBRANCH  21  23
ENDBRANCH  20  22
ENDBRANCH  17  20
ENDBRANCH   1  17
TORSDOF 19
ENDMDL
MODEL 4
REMARK VINA RESULT:      -6.4      4.944      8.229
REMARK  Name = 
REMARK  19 active torsions:
REMARK  status: ('A' for Active; 'I' for Inactive)
REMARK    1  A    between atoms: C_2  and  O_3
REMARK    2  A    between atoms: C_2  and  C_4
REMARK    3  A    between atoms: C_4  and  C_5
REMARK    4  A    between atoms: C_5  and  C_6
REMARK    5  A    between atoms: C_7  and  C_8
REMARK    6  A    between atoms: C_8  and  C_9
REMARK    7  A    between atoms: C_10  and  C_11
REMARK    8  A    between atoms: C_11  and  C_12
REMARK    9  A    between atoms: C_12  and  O_13
REMARK   10  A    between atoms: C_12  and  C_14
REMARK   11  A    between atoms: C_15  and  C_16
REMARK   12  A    between atoms: C_17  and  C_18
REMARK   13  A    between atoms: C_19  and  C_20
REMARK   14  A    between atoms: C_20  and  O_21
REMARK   15  A    between atoms: C_20  and  C_22
REMARK   16  A    between atoms: C_22  and  C_23
REMARK   17  A    between atoms: C_24  and  C_25
REMARK   18  A    between atoms: C_25  and  C_26
REMARK   19  A    between atoms: C_26  and  O_27
REMARK                            x       y       z     vdW  Elec       q    Type
REMARK                         _______ _______ _______ _____ _____    ______ ____
ROOT
ATOM      1  C   UNL     1       1.271   4.664  20.655  0.00  0.00    +0.000 C 
ATOM      2  C   UNL     1       2.260   5.510  20.323  0.00  0.00    +0.000 C 
ENDROOT
BRANCH   2   3
ATOM      3  C   UNL     1       2.080   6.922  20.046  0.00  0.00    +0.000 C 
ATOM      4  C   UNL     1       1.514   7.792  20.894  0.00  0.00    +0.000 C 
BRANCH   4   5
ATOM      5  C   UNL     1       1.448   9.208  20.681  0.00  0.00    +0.000 C 
ATOM      6  C   UNL     1       0.704  10.025  21.445  0.00  0.00    +0.000 C 
BRANCH   6   7
ATOM      7  C   UNL     1      -0.072   9.701  22.709  0.00  0.00    +0.000 C 
BRANCH   7   8
ATOM      8  O   UNL     1       0.776   9.661  23.858  0.00  0.00    +0.000 OA
ATOM      9  H   UNL     1       1.582  10.158  23.635  0.00  0.00    +0.000 HD
ENDBRANCH   7   8
BRANCH   7  10
ATOM     10  C   UNL     1      -1.173  10.734  23.008  0.00  0.00    +0.000 C 
BRANCH  10  11
ATOM     11  C   UNL     1      -0.824  12.122  22.542  0.00  0.00    +0.000 C 
ATOM     12  C   UNL     1      -1.317  12.746  21.463  0.00  0.00    +0.000 C 
BRANCH  12  13
ATOM     13  C   UNL     1      -2.339  12.194  20.507  0.00  0.00    +0.000 C 
BRANCH  13  14
ATOM     14  C   UNL     1      -1.846  12.258  19.063  0.00  0.00    +0.000 C 
BRANCH  14  15
ATOM     15  O   UNL     1      -0.425  12.336  19.012  0.00  0.00    +0.000 OA
ATOM     16  H   UNL     1      -0.194  12.681  18.131  0.00  0.00    +0.000 HD
ENDBRANCH  14  15
ENDBRANCH  13  14
ENDBRANCH  12  13
ENDBRANCH  10  11
ENDBRANCH   7  10
ENDBRANCH   6   7
ENDBRANCH   4   5
ENDBRANCH   2   3
BRANCH   1  17
ATOM     17  C   UNL     1       1.447   3.217  21.004  0.00  0.00    +0.000 C 
BRANCH  17  18
ATOM     18  O   UNL     1       1.871   3.162  22.365  0.00  0.00    +0.000 OA
ATOM     19  H   UNL     1       1.083   3.290  22.922  0.00  0.00    +0.000 HD
ENDBRANCH  17  18
BRANCH  17  20
ATOM     20  C   UNL     1       2.510   2.600  20.084  0.00  0.00    +0.000 C 
BRANCH  20  22
ATOM     21  C   UNL     1       2.473   2.255  17.585  0.00  0.00    +0.000 C 
ATOM     22  C   UNL     1       1.954   2.025  18.803  0.00  0.00    +0.000 C 
BRANCH  21  23
ATOM     23  C   UNL     1       3.680   3.115  17.355  0.00  0.00    +0.000 C 
BRANCH  23  25
ATOM     24  C   UNL     1       4.328   5.513  17.029  0.00  0.00    +0.000 C 
ATOM     25  C   UNL     1       3.377   4.567  17.127  0.00  0.00    +0.000 C 
BRANCH  24  26
ATOM     26  C   UNL     1       5.807   5.231  17.124  0.00  0.00    +0.000 C 
BRANCH  26  27
ATOM     27  C   UNL     1       6.471   5.834  18.358  0.00  0.00    +0.000 C 
BRANCH  27  29
ATOM     28  O   UNL     1       8.414   7.260  18.704  0.00  0.00    +0.000 OA
ATOM     29  C   UNL     1       7.582   6.775  17.950  0.00  0.00    +0.000 C 
BRANCH  29  30
ATOM     30  O   UNL     1       7.580   7.032  16.621  0.00  0.00    +0.000 OA
ATOM     31  H   UNL     1       6.739   6.801  16.177  0.00  0.00    +0.000 HD
ENDBRANCH  29  30
ENDBRANCH  27  29
ENDBRANCH  26  27
ENDBRANCH  24  26
ENDBRANCH  23  25
ENDBRANCH  21  23
ENDBRANCH  20  22
ENDBRANCH  17  20
ENDBRANCH   1  17
TORSDOF 19
ENDMDL
MODEL 5
REMARK VINA RESULT:      -6.4      5.676      8.527
REMARK  Name = 
REMARK  19 active torsions:
REMARK  status: ('A' for Active; 'I' for Inactive)
REMARK    1  A    between atoms: C_2  and  O_3
REMARK    2  A    between atoms: C_2  and  C_4
REMARK    3  A    between atoms: C_4  and  C_5
REMARK    4  A    between atoms: C_5  and  C_6
REMARK    5  A    between atoms: C_7  and  C_8
REMARK    6  A    between atoms: C_8  and  C_9
REMARK    7  A    between atoms: C_10  and  C_11
REMARK    8  A    between atoms: C_11  and  C_12
REMARK    9  A    between atoms: C_12  and  O_13
REMARK   10  A    between atoms: C_12  and  C_14
REMARK   11  A    between atoms: C_15  and  C_16
REMARK   12  A    between atoms: C_17  and  C_18
REMARK   13  A    between atoms: C_19  and  C_20
REMARK   14  A    between atoms: C_20  and  O_21
REMARK   15  A    between atoms: C_20  and  C_22
REMARK   16  A    between atoms: C_22  and  C_23
REMARK   17  A    between atoms: C_24  and  C_25
REMARK   18  A    between atoms: C_25  and  C_26
REMARK   19  A    between atoms: C_26  and  O_27
REMARK                            x       y       z     vdW  Elec       q    Type
REMARK                         _______ _______ _______ _____ _____    ______ ____
ROOT
ATOM      1  C   UNL     1       4.075   2.913  19.067  0.00  0.00    +0.000 C 
ATOM      2  C   UNL     1       4.480   4.015  19.720  0.00  0.00    +0.000 C 
ENDROOT
BRANCH   2   3
ATOM      3  C   UNL     1       5.369   5.020  19.172  0.00  0.00    +0.000 C 
ATOM      4  C   UNL     1       6.612   4.772  18.736  0.00  0.00    +0.000 C 
BRANCH   4   5
ATOM      5  C   UNL     1       7.448   5.732  18.077  0.00  0.00    +0.000 C 
ATOM      6  C   UNL     1       7.196   6.189  16.840  0.00  0.00    +0.000 C 
BRANCH   6   7
ATOM      7  C   UNL     1       5.985   5.935  15.960  0.00  0.00    +0.000 C 
BRANCH   7   8
ATOM      8  O   UNL     1       5.365   7.153  15.543  0.00  0.00    +0.000 OA
ATOM      9  H   UNL     1       5.992   7.872  15.737  0.00  0.00    +0.000 HD
ENDBRANCH   7   8
BRANCH   7  10
ATOM     10  C   UNL     1       6.337   5.159  14.678  0.00  0.00    +0.000 C 
BRANCH  10  11
ATOM     11  C   UNL     1       5.266   4.185  14.264  0.00  0.00    +0.000 C 
ATOM     12  C   UNL     1       5.273   3.412  13.168  0.00  0.00    +0.000 C 
BRANCH  12  13
ATOM     13  C   UNL     1       6.366   3.345  12.136  0.00  0.00    +0.000 C 
BRANCH  13  14
ATOM     14  C   UNL     1       6.231   2.101  11.260  0.00  0.00    +0.000 C 
BRANCH  14  15
ATOM     15  O   UNL     1       7.433   1.338  11.269  0.00  0.00    +0.000 OA
ATOM     16  H   UNL     1       7.724   1.283  12.197  0.00  0.00    +0.000 HD
ENDBRANCH  14  15
ENDBRANCH  13  14
ENDBRANCH  12  13
ENDBRANCH  10  11
ENDBRANCH   7  10
ENDBRANCH   6   7
ENDBRANCH   4   5
ENDBRANCH   2   3
BRANCH   1  17
ATOM     17  C   UNL     1       3.109   1.896  19.593  0.00  0.00    +0.000 C 
BRANCH  17  18
ATOM     18  O   UNL     1       2.246   1.538  18.514  0.00  0.00    +0.000 OA
ATOM     19  H   UNL     1       1.979   2.361  18.070  0.00  0.00    +0.000 HD
ENDBRANCH  17  18
BRANCH  17  20
ATOM     20  C   UNL     1       2.302   2.514  20.745  0.00  0.00    +0.000 C 
BRANCH  20  22
ATOM     21  C   UNL     1       0.797   4.502  20.364  0.00  0.00    +0.000 C 
ATOM     22  C   UNL     1       1.019   3.178  20.307  0.00  0.00    +0.000 C 
BRANCH  21  23
ATOM     23  C   UNL     1       1.812   5.485  20.870  0.00  0.00    +0.000 C 
BRANCH  23  25
ATOM     24  C   UNL     1       1.754   7.897  20.198  0.00  0.00    +0.000 C 
ATOM     25  C   UNL     1       2.098   6.624  19.935  0.00  0.00    +0.000 C 
BRANCH  24  26
ATOM     26  C   UNL     1       1.054   8.336  21.460  0.00  0.00    +0.000 C 
BRANCH  26  27
ATOM     27  C   UNL     1       0.538   9.770  21.412  0.00  0.00    +0.000 C 
BRANCH  27  29
ATOM     28  O   UNL     1       0.248   9.805  23.829  0.00  0.00    +0.000 OA
ATOM     29  C   UNL     1      -0.139  10.130  22.715  0.00  0.00    +0.000 C 
BRANCH  29  30
ATOM     30  O   UNL     1      -1.248  10.884  22.531  0.00  0.00    +0.000 OA
ATOM     31  H   UNL     1      -1.875  10.851  23.282  0.00  0.00    +0.000 HD
ENDBRANCH  29  30
ENDBRANCH  27  29
ENDBRANCH  26  27
ENDBRANCH  24  26
ENDBRANCH  23  25
ENDBRANCH  21  23
ENDBRANCH  20  22
ENDBRANCH  17  20
ENDBRANCH   1  17
TORSDOF 19
ENDMDL
MODEL 6
REMARK VINA RESULT:      -6.3      2.236      2.960
REMARK  Name = 
REMARK  19 active torsions:
REMARK  status: ('A' for Active; 'I' for Inactive)
REMARK    1  A    between atoms: C_2  and  O_3
REMARK    2  A    between atoms: C_2  and  C_4
REMARK    3  A    between atoms: C_4  and  C_5
REMARK    4  A    between atoms: C_5  and  C_6
REMARK    5  A    between atoms: C_7  and  C_8
REMARK    6  A    between atoms: C_8  and  C_9
REMARK    7  A    between atoms: C_10  and  C_11
REMARK    8  A    between atoms: C_11  and  C_12
REMARK    9  A    between atoms: C_12  and  O_13
REMARK   10  A    between atoms: C_12  and  C_14
REMARK   11  A    between atoms: C_15  and  C_16
REMARK   12  A    between atoms: C_17  and  C_18
REMARK   13  A    between atoms: C_19  and  C_20
REMARK   14  A    between atoms: C_20  and  O_21
REMARK   15  A    between atoms: C_20  and  C_22
REMARK   16  A    between atoms: C_22  and  C_23
REMARK   17  A    between atoms: C_24  and  C_25
REMARK   18  A    between atoms: C_25  and  C_26
REMARK   19  A    between atoms: C_26  and  O_27
REMARK                            x       y       z     vdW  Elec       q    Type
REMARK                         _______ _______ _______ _____ _____    ______ ____
ROOT
ATOM      1  C   UNL     1       7.996   7.268  18.454  0.00  0.00    +0.000 C 
ATOM      2  C   UNL     1       8.281   8.555  18.194  0.00  0.00    +0.000 C 
ENDROOT
BRANCH   2   3
ATOM      3  C   UNL     1       8.853   9.483  19.150  0.00  0.00    +0.000 C 
ATOM      4  C   UNL     1       9.642  10.514  18.823  0.00  0.00    +0.000 C 
BRANCH   4   5
ATOM      5  C   UNL     1      10.106  11.508  19.747  0.00  0.00    +0.000 C 
ATOM      6  C   UNL     1      11.078  12.384  19.446  0.00  0.00    +0.000 C 
BRANCH   6   7
ATOM      7  C   UNL     1      11.769  12.618  18.115  0.00  0.00    +0.000 C 
BRANCH   7   8
ATOM      8  O   UNL     1      12.194  11.394  17.513  0.00  0.00    +0.000 OA
ATOM      9  H   UNL     1      11.778  10.671  18.015  0.00  0.00    +0.000 HD
ENDBRANCH   7   8
BRANCH   7  10
ATOM     10  C   UNL     1      10.860  13.321  17.090  0.00  0.00    +0.000 C 
BRANCH  10  11
ATOM     11  C   UNL     1      10.919  14.822  17.181  0.00  0.00    +0.000 C 
ATOM     12  C   UNL     1      10.033  15.617  17.799  0.00  0.00    +0.000 C 
BRANCH  12  13
ATOM     13  C   UNL     1       8.809  15.168  18.549  0.00  0.00    +0.000 C 
BRANCH  13  14
ATOM     14  C   UNL     1       7.538  15.398  17.733  0.00  0.00    +0.000 C 
BRANCH  14  15
ATOM     15  O   UNL     1       6.768  14.203  17.640  0.00  0.00    +0.000 OA
ATOM     16  H   UNL     1       7.397  13.473  17.503  0.00  0.00    +0.000 HD
ENDBRANCH  14  15
ENDBRANCH  13  14
ENDBRANCH  12  13
ENDBRANCH  10  11
ENDBRANCH   7  10
ENDBRANCH   6   7
ENDBRANCH   4   5
ENDBRANCH   2   3
BRANCH   1  17
ATOM     17  C   UNL     1       7.463   6.279  17.462  0.00  0.00    +0.000 C 
BRANCH  17  18
ATOM     18  O   UNL     1       7.695   6.820  16.162  0.00  0.00    +0.000 OA
ATOM     19  H   UNL     1       7.678   6.079  15.531  0.00  0.00    +0.000 HD
ENDBRANCH  17  18
BRANCH  17  20
ATOM     20  C   UNL     1       5.958   6.084  17.702  0.00  0.00    +0.000 C 
BRANCH  20  22
ATOM     21  C   UNL     1       4.425   5.322  19.555  0.00  0.00    +0.000 C 
ATOM     22  C   UNL     1       5.632   5.322  18.964  0.00  0.00    +0.000 C 
BRANCH  21  23
ATOM     23  C   UNL     1       3.248   6.085  19.021  0.00  0.00    +0.000 C 
BRANCH  23  25
ATOM     24  C   UNL     1       1.401   4.446  18.593  0.00  0.00    +0.000 C 
ATOM     25  C   UNL     1       2.342   5.288  18.127  0.00  0.00    +0.000 C 
BRANCH  24  26
ATOM     26  C   UNL     1       1.136   4.211  20.059  0.00  0.00    +0.000 C 
BRANCH  26  27
ATOM     27  C   UNL     1       1.537   2.821  20.541  0.00  0.00    +0.000 C 
BRANCH  27  29
ATOM     28  O   UNL     1       3.406   1.944  19.249  0.00  0.00    +0.000 OA
ATOM     29  C   UNL     1       2.199   2.046  19.424  0.00  0.00    +0.000 C 
BRANCH  29  30
ATOM     30  O   UNL     1       1.301   1.443  18.610  0.00  0.00    +0.000 OA
ATOM     31  H   UNL     1       1.631   1.297  17.701  0.00  0.00    +0.000 HD
ENDBRANCH  29  30
ENDBRANCH  27  29
ENDBRANCH  26  27
ENDBRANCH  24  26
ENDBRANCH  23  25
ENDBRANCH  21  23
ENDBRANCH  20  22
ENDBRANCH  17  20
ENDBRANCH   1  17
TORSDOF 19
ENDMDL
MODEL 7
REMARK VINA RESULT:      -6.3      2.396      3.147
REMARK  Name = 
REMARK  19 active torsions:
REMARK  status: ('A' for Active; 'I' for Inactive)
REMARK    1  A    between atoms: C_2  and  O_3
REMARK    2  A    between atoms: C_2  and  C_4
REMARK    3  A    between atoms: C_4  and  C_5
REMARK    4  A    between atoms: C_5  and  C_6
REMARK    5  A    between atoms: C_7  and  C_8
REMARK    6  A    between atoms: C_8  and  C_9
REMARK    7  A    between atoms: C_10  and  C_11
REMARK    8  A    between atoms: C_11  and  C_12
REMARK    9  A    between atoms: C_12  and  O_13
REMARK   10  A    between atoms: C_12  and  C_14
REMARK   11  A    between atoms: C_15  and  C_16
REMARK   12  A    between atoms: C_17  and  C_18
REMARK   13  A    between atoms: C_19  and  C_20
REMARK   14  A    between atoms: C_20  and  O_21
REMARK   15  A    between atoms: C_20  and  C_22
REMARK   16  A    between atoms: C_22  and  C_23
REMARK   17  A    between atoms: C_24  and  C_25
REMARK   18  A    between atoms: C_25  and  C_26
REMARK   19  A    between atoms: C_26  and  O_27
REMARK                            x       y       z     vdW  Elec       q    Type
REMARK                         _______ _______ _______ _____ _____    ______ ____
ROOT
ATOM      1  C   UNL     1       8.159   7.883  18.052  0.00  0.00    +0.000 C 
ATOM      2  C   UNL     1       8.208   9.224  18.117  0.00  0.00    +0.000 C 
ENDROOT
BRANCH   2   3
ATOM      3  C   UNL     1       9.147   9.978  18.925  0.00  0.00    +0.000 C 
ATOM      4  C   UNL     1      10.144  10.721  18.428  0.00  0.00    +0.000 C 
BRANCH   4   5
ATOM      5  C   UNL     1      10.995  11.568  19.212  0.00  0.00    +0.000 C 
ATOM      6  C   UNL     1      10.877  12.906  19.226  0.00  0.00    +0.000 C 
BRANCH   6   7
ATOM      7  C   UNL     1       9.810  13.774  18.583  0.00  0.00    +0.000 C 
BRANCH   7   8
ATOM      8  O   UNL     1       9.610  13.441  17.209  0.00  0.00    +0.000 OA
ATOM      9  H   UNL     1       8.790  13.882  16.925  0.00  0.00    +0.000 HD
ENDBRANCH   7   8
BRANCH   7  10
ATOM     10  C   UNL     1       8.441  13.639  19.274  0.00  0.00    +0.000 C 
BRANCH  10  11
ATOM     11  C   UNL     1       8.419  14.224  20.660  0.00  0.00    +0.000 C 
ATOM     12  C   UNL     1       8.393  13.539  21.813  0.00  0.00    +0.000 C 
BRANCH  12  13
ATOM     13  C   UNL     1       8.403  12.042  21.956  0.00  0.00    +0.000 C 
BRANCH  13  14
ATOM     14  C   UNL     1       8.247  11.618  23.416  0.00  0.00    +0.000 C 
BRANCH  14  15
ATOM     15  O   UNL     1       8.191  12.754  24.273  0.00  0.00    +0.000 OA
ATOM     16  H   UNL     1       7.696  12.484  25.066  0.00  0.00    +0.000 HD
ENDBRANCH  14  15
ENDBRANCH  13  14
ENDBRANCH  12  13
ENDBRANCH  10  11
ENDBRANCH   7  10
ENDBRANCH   6   7
ENDBRANCH   4   5
ENDBRANCH   2   3
BRANCH   1  17
ATOM     17  C   UNL     1       7.238   7.089  17.177  0.00  0.00    +0.000 C 
BRANCH  17  18
ATOM     18  O   UNL     1       5.908   7.511  17.474  0.00  0.00    +0.000 OA
ATOM     19  H   UNL     1       5.338   6.722  17.443  0.00  0.00    +0.000 HD
ENDBRANCH  17  18
BRANCH  17  20
ATOM     20  C   UNL     1       7.410   5.594  17.488  0.00  0.00    +0.000 C 
BRANCH  20  22
ATOM     21  C   UNL     1       5.770   3.975  16.463  0.00  0.00    +0.000 C 
ATOM     22  C   UNL     1       6.912   4.679  16.395  0.00  0.00    +0.000 C 
BRANCH  21  23
ATOM     23  C   UNL     1       4.844   4.021  17.643  0.00  0.00    +0.000 C 
BRANCH  23  25
ATOM     24  C   UNL     1       2.554   4.870  18.198  0.00  0.00    +0.000 C 
ATOM     25  C   UNL     1       3.421   4.357  17.307  0.00  0.00    +0.000 C 
BRANCH  24  26
ATOM     26  C   UNL     1       2.906   5.179  19.632  0.00  0.00    +0.000 C 
BRANCH  26  27
ATOM     27  C   UNL     1       1.723   5.093  20.589  0.00  0.00    +0.000 C 
BRANCH  27  29
ATOM     28  O   UNL     1       2.289   3.225  22.046  0.00  0.00    +0.000 OA
ATOM     29  C   UNL     1       1.600   3.694  21.150  0.00  0.00    +0.000 C 
BRANCH  29  30
ATOM     30  O   UNL     1       0.613   2.983  20.556  0.00  0.00    +0.000 OA
ATOM     31  H   UNL     1       0.897   2.101  20.242  0.00  0.00    +0.000 HD
ENDBRANCH  29  30
ENDBRANCH  27  29
ENDBRANCH  26  27
ENDBRANCH  24  26
ENDBRANCH  23  25
ENDBRANCH  21  23
ENDBRANCH  20  22
ENDBRANCH  17  20
ENDBRANCH   1  17
TORSDOF 19
ENDMDL
MODEL 8
REMARK VINA RESULT:      -6.2      5.732      8.454
REMARK  Name = 
REMARK  19 active torsions:
REMARK  status: ('A' for Active; 'I' for Inactive)
REMARK    1  A    between atoms: C_2  and  O_3
REMARK    2  A    between atoms: C_2  and  C_4
REMARK    3  A    between atoms: C_4  and  C_5
REMARK    4  A    between atoms: C_5  and  C_6
REMARK    5  A    between atoms: C_7  and  C_8
REMARK    6  A    between atoms: C_8  and  C_9
REMARK    7  A    between atoms: C_10  and  C_11
REMARK    8  A    between atoms: C_11  and  C_12
REMARK    9  A    between atoms: C_12  and  O_13
REMARK   10  A    between atoms: C_12  and  C_14
REMARK   11  A    between atoms: C_15  and  C_16
REMARK   12  A    between atoms: C_17  and  C_18
REMARK   13  A    between atoms: C_19  and  C_20
REMARK   14  A    between atoms: C_20  and  O_21
REMARK   15  A    between atoms: C_20  and  C_22
REMARK   16  A    between atoms: C_22  and  C_23
REMARK   17  A    between atoms: C_24  and  C_25
REMARK   18  A    between atoms: C_25  and  C_26
REMARK   19  A    between atoms: C_26  and  O_27
REMARK                            x       y       z     vdW  Elec       q    Type
REMARK                         _______ _______ _______ _____ _____    ______ ____
ROOT
ATOM      1  C   UNL     1       2.237   4.789  20.562  0.00  0.00    +0.000 C 
ATOM      2  C   UNL     1       1.644   5.993  20.500  0.00  0.00    +0.000 C 
ENDROOT
BRANCH   2   3
ATOM      3  C   UNL     1       2.222   7.166  19.874  0.00  0.00    +0.000 C 
ATOM      4  C   UNL     1       2.048   7.500  18.589  0.00  0.00    +0.000 C 
BRANCH   4   5
ATOM      5  C   UNL     1       2.509   8.722  17.996  0.00  0.00    +0.000 C 
ATOM      6  C   UNL     1       1.791   9.856  18.017  0.00  0.00    +0.000 C 
BRANCH   6   7
ATOM      7  C   UNL     1       0.486  10.144  18.736  0.00  0.00    +0.000 C 
BRANCH   7   8
ATOM      8  O   UNL     1       0.704  10.633  20.060  0.00  0.00    +0.000 OA
ATOM      9  H   UNL     1      -0.051  11.207  20.280  0.00  0.00    +0.000 HD
ENDBRANCH   7   8
BRANCH   7  10
ATOM     10  C   UNL     1      -0.369  11.200  18.012  0.00  0.00    +0.000 C 
BRANCH  10  11
ATOM     11  C   UNL     1      -1.504  11.719  18.853  0.00  0.00    +0.000 C 
ATOM     12  C   UNL     1      -2.812  11.516  18.637  0.00  0.00    +0.000 C 
BRANCH  12  13
ATOM     13  C   UNL     1      -3.413  10.710  17.518  0.00  0.00    +0.000 C 
BRANCH  13  14
ATOM     14  C   UNL     1      -2.652  10.917  16.210  0.00  0.00    +0.000 C 
BRANCH  14  15
ATOM     15  O   UNL     1      -3.450  11.618  15.261  0.00  0.00    +0.000 OA
ATOM     16  H   UNL     1      -3.787  12.413  15.711  0.00  0.00    +0.000 HD
ENDBRANCH  14  15
ENDBRANCH  13  14
ENDBRANCH  12  13
ENDBRANCH  10  11
ENDBRANCH   7  10
ENDBRANCH   6   7
ENDBRANCH   4   5
ENDBRANCH   2   3
BRANCH   1  17
ATOM     17  C   UNL     1       1.631   3.550  21.149  0.00  0.00    +0.000 C 
BRANCH  17  18
ATOM     18  O   UNL     1       2.516   3.093  22.170  0.00  0.00    +0.000 OA
ATOM     19  H   UNL     1       2.133   2.280  22.544  0.00  0.00    +0.000 HD
ENDBRANCH  17  18
BRANCH  17  20
ATOM     20  C   UNL     1       1.485   2.489  20.048  0.00  0.00    +0.000 C 
BRANCH  20  22
ATOM     21  C   UNL     1       3.318   2.034  18.375  0.00  0.00    +0.000 C 
ATOM     22  C   UNL     1       2.794   1.883  19.604  0.00  0.00    +0.000 C 
BRANCH  21  23
ATOM     23  C   UNL     1       2.656   2.836  17.293  0.00  0.00    +0.000 C 
BRANCH  23  25
ATOM     24  C   UNL     1       4.197   4.794  17.027  0.00  0.00    +0.000 C 
ATOM     25  C   UNL     1       2.979   4.302  17.318  0.00  0.00    +0.000 C 
BRANCH  24  26
ATOM     26  C   UNL     1       5.376   3.939  16.633  0.00  0.00    +0.000 C 
BRANCH  26  27
ATOM     27  C   UNL     1       6.724   4.521  17.048  0.00  0.00    +0.000 C 
BRANCH  27  29
ATOM     28  O   UNL     1       7.507   5.392  14.913  0.00  0.00    +0.000 OA
ATOM     29  C   UNL     1       7.160   5.588  16.070  0.00  0.00    +0.000 C 
BRANCH  29  30
ATOM     30  O   UNL     1       7.119   6.829  16.607  0.00  0.00    +0.000 OA
ATOM     31  H   UNL     1       7.999   7.182  16.849  0.00  0.00    +0.000 HD
ENDBRANCH  29  30
ENDBRANCH  27  29
ENDBRANCH  26  27
ENDBRANCH  24  26
ENDBRANCH  23  25
ENDBRANCH  21  23
ENDBRANCH  20  22
ENDBRANCH  17  20
ENDBRANCH   1  17
TORSDOF 19
ENDMDL
MODEL 9
REMARK VINA RESULT:      -6.2      2.019      2.500
REMARK  Name = 
REMARK  19 active torsions:
REMARK  status: ('A' for Active; 'I' for Inactive)
REMARK    1  A    between atoms: C_2  and  O_3
REMARK    2  A    between atoms: C_2  and  C_4
REMARK    3  A    between atoms: C_4  and  C_5
REMARK    4  A    between atoms: C_5  and  C_6
REMARK    5  A    between atoms: C_7  and  C_8
REMARK    6  A    between atoms: C_8  and  C_9
REMARK    7  A    between atoms: C_10  and  C_11
REMARK    8  A    between atoms: C_11  and  C_12
REMARK    9  A    between atoms: C_12  and  O_13
REMARK   10  A    between atoms: C_12  and  C_14
REMARK   11  A    between atoms: C_15  and  C_16
REMARK   12  A    between atoms: C_17  and  C_18
REMARK   13  A    between atoms: C_19  and  C_20
REMARK   14  A    between atoms: C_20  and  O_21
REMARK   15  A    between atoms: C_20  and  C_22
REMARK   16  A    between atoms: C_22  and  C_23
REMARK   17  A    between atoms: C_24  and  C_25
REMARK   18  A    between atoms: C_25  and  C_26
REMARK   19  A    between atoms: C_26  and  O_27
REMARK                            x       y       z     vdW  Elec       q    Type
REMARK                         _______ _______ _______ _____ _____    ______ ____
ROOT
ATOM      1  C   UNL     1       5.881   7.324  17.475  0.00  0.00    +0.000 C 
ATOM      2  C   UNL     1       7.184   7.506  17.207  0.00  0.00    +0.000 C 
ENDROOT
BRANCH   2   3
ATOM      3  C   UNL     1       8.146   8.073  18.132  0.00  0.00    +0.000 C 
ATOM      4  C   UNL     1       8.401   9.384  18.248  0.00  0.00    +0.000 C 
BRANCH   4   5
ATOM      5  C   UNL     1       9.254   9.960  19.246  0.00  0.00    +0.000 C 
ATOM      6  C   UNL     1      10.112  10.958  18.981  0.00  0.00    +0.000 C 
BRANCH   6   7
ATOM      7  C   UNL     1      10.278  11.756  17.700  0.00  0.00    +0.000 C 
BRANCH   7   8
ATOM      8  O   UNL     1       9.308  12.800  17.594  0.00  0.00    +0.000 OA
ATOM      9  H   UNL     1       9.780  13.641  17.724  0.00  0.00    +0.000 HD
ENDBRANCH   7   8
BRANCH   7  10
ATOM     10  C   UNL     1      11.660  12.426  17.594  0.00  0.00    +0.000 C 
BRANCH  10  11
ATOM     11  C   UNL     1      12.329  12.613  18.930  0.00  0.00    +0.000 C 
ATOM     12  C   UNL     1      12.289  13.715  19.693  0.00  0.00    +0.000 C 
BRANCH  12  13
ATOM     13  C   UNL     1      11.548  14.985  19.380  0.00  0.00    +0.000 C 
BRANCH  13  14
ATOM     14  C   UNL     1      10.263  15.099  20.198  0.00  0.00    +0.000 C 
BRANCH  14  15
ATOM     15  O   UNL     1      10.038  13.918  20.963  0.00  0.00    +0.000 OA
ATOM     16  H   UNL     1      10.566  14.005  21.776  0.00  0.00    +0.000 HD
ENDBRANCH  14  15
ENDBRANCH  13  14
ENDBRANCH  12  13
ENDBRANCH  10  11
ENDBRANCH   7  10
ENDBRANCH   6   7
ENDBRANCH   4   5
ENDBRANCH   2   3
BRANCH   1  17
ATOM     17  C   UNL     1       4.885   6.684  16.555  0.00  0.00    +0.000 C 
BRANCH  17  18
ATOM     18  O   UNL     1       3.816   7.613  16.380  0.00  0.00    +0.000 OA
ATOM     19  H   UNL     1       3.725   7.775  15.425  0.00  0.00    +0.000 HD
ENDBRANCH  17  18
BRANCH  17  20
ATOM     20  C   UNL     1       4.370   5.386  17.193  0.00  0.00    +0.000 C 
BRANCH  20  22
ATOM     21  C   UNL     1       4.695   2.890  17.023  0.00  0.00    +0.000 C 
ATOM     22  C   UNL     1       4.917   4.130  16.557  0.00  0.00    +0.000 C 
BRANCH  21  23
ATOM     23  C   UNL     1       3.866   2.605  18.241  0.00  0.00    +0.000 C 
BRANCH  23  25
ATOM     24  C   UNL     1       1.363   2.538  18.319  0.00  0.00    +0.000 C 
ATOM     25  C   UNL     1       2.531   1.981  17.954  0.00  0.00    +0.000 C 
BRANCH  24  26
ATOM     26  C   UNL     1       1.251   3.855  19.046  0.00  0.00    +0.000 C 
BRANCH  26  27
ATOM     27  C   UNL     1       0.851   3.718  20.511  0.00  0.00    +0.000 C 
BRANCH  27  29
ATOM     28  O   UNL     1       2.522   3.009  22.136  0.00  0.00    +0.000 OA
ATOM     29  C   UNL     1       2.062   3.874  21.404  0.00  0.00    +0.000 C 
BRANCH  29  30
ATOM     30  O   UNL     1       2.620   5.104  21.306  0.00  0.00    +0.000 OA
ATOM     31  H   UNL     1       2.487   5.528  20.434  0.00  0.00    +0.000 HD
ENDBRANCH  29  30
ENDBRANCH  27  29
ENDBRANCH  26  27
ENDBRANCH  24  26
ENDBRANCH  23  25
ENDBRANCH  21  23
ENDBRANCH  20  22
ENDBRANCH  17  20
ENDBRANCH   1  17
TORSDOF 19
ENDMDL
