MODEL 1
REMARK VINA RESULT:      -7.0      0.000      0.000
REMARK  Name = 
REMARK  2 active torsions:
REMARK  status: ('A' for Active; 'I' for Inactive)
REMARK    1  A    between atoms: C_5  and  C_6
REMARK    2  A    between atoms: C_6  and  N_7
REMARK                            x       y       z     vdW  Elec       q    Type
REMARK                         _______ _______ _______ _____ _____    ______ ____
ROOT
ATOM      1  N   UNL     1       3.390   3.375  18.264  0.00  0.00    +0.000 N 
ATOM      2  C   UNL     1       2.156   3.968  17.704  0.00  0.00    +0.000 C 
ATOM      3  N   UNL     1       1.064   3.871  18.637  0.00  0.00    +0.000 NA
ATOM      4  C   UNL     1       0.756   2.472  18.852  0.00  0.00    +0.000 C 
ATOM      5  N   UNL     1       1.923   1.790  19.386  0.00  0.00    +0.000 NA
ATOM      6  C   UNL     1       2.240   2.387  20.674  0.00  0.00    +0.000 C 
ATOM      7  N   UNL     1       2.562   3.787  20.488  0.00  0.00    +0.000 NA
ATOM      8  C   UNL     1       1.452   4.503  19.890  0.00  0.00    +0.000 C 
ATOM      9  C   UNL     1       3.722   3.888  19.632  0.00  0.00    +0.000 C 
ATOM     10  C   UNL     1       3.061   1.933  18.489  0.00  0.00    +0.000 C 
ENDROOT
BRANCH   1  11
ATOM     11  C   UNL     1       4.592   3.562  17.329  0.00  0.00    +0.000 C 
BRANCH  11  16
ATOM     12 BR   UNL     1       8.153   8.676  17.778  0.00  0.00    +0.000 Br
ATOM     13  C   UNL     1       7.086   7.125  17.654  0.00  0.00    +0.000 A 
ATOM     14  C   UNL     1       7.545   5.941  18.200  0.00  0.00    +0.000 A 
ATOM     15  C   UNL     1       6.768   4.787  18.097  0.00  0.00    +0.000 A 
ATOM     16  C   UNL     1       5.500   4.783  17.481  0.00  0.00    +0.000 A 
ATOM     17  C   UNL     1       5.071   5.998  16.912  0.00  0.00    +0.000 A 
ATOM     18  C   UNL     1       5.858   7.156  16.993  0.00  0.00    +0.000 A 
ENDBRANCH  11  16
ENDBRANCH   1  11
TORSDOF 2
ENDMDL
MODEL 2
REMARK VINA RESULT:      -7.0      0.121      1.720
REMARK  Name = 
REMARK  2 active torsions:
REMARK  status: ('A' for Active; 'I' for Inactive)
REMARK    1  A    between atoms: C_5  and  C_6
REMARK    2  A    between atoms: C_6  and  N_7
REMARK                            x       y       z     vdW  Elec       q    Type
REMARK                         _______ _______ _______ _____ _____    ______ ____
ROOT
ATOM      1  N   UNL     1       3.403   3.413  18.258  0.00  0.00    +0.000 N 
ATOM      2  C   UNL     1       3.222   1.979  18.575  0.00  0.00    +0.000 C 
ATOM      3  N   UNL     1       2.067   1.774  19.409  0.00  0.00    +0.000 NA
ATOM      4  C   UNL     1       2.289   2.426  20.683  0.00  0.00    +0.000 C 
ATOM      5  N   UNL     1       2.501   3.848  20.475  0.00  0.00    +0.000 NA
ATOM      6  C   UNL     1       1.289   4.401  19.890  0.00  0.00    +0.000 C 
ATOM      7  N   UNL     1       1.047   3.772  18.607  0.00  0.00    +0.000 NA
ATOM      8  C   UNL     1       0.898   2.337  18.748  0.00  0.00    +0.000 C 
ATOM      9  C   UNL     1       2.159   4.061  17.730  0.00  0.00    +0.000 C 
ATOM     10  C   UNL     1       3.625   4.079  19.579  0.00  0.00    +0.000 C 
ENDROOT
BRANCH   1  11
ATOM     11  C   UNL     1       4.566   3.644  17.284  0.00  0.00    +0.000 C 
BRANCH  11  16
ATOM     12 BR   UNL     1       8.189   8.702  17.831  0.00  0.00    +0.000 Br
ATOM     13  C   UNL     1       7.103   7.168  17.677  0.00  0.00    +0.000 A 
ATOM     14  C   UNL     1       7.535   5.974  18.225  0.00  0.00    +0.000 A 
ATOM     15  C   UNL     1       6.743   4.833  18.099  0.00  0.00    +0.000 A 
ATOM     16  C   UNL     1       5.488   4.850  17.460  0.00  0.00    +0.000 A 
ATOM     17  C   UNL     1       5.087   6.075  16.891  0.00  0.00    +0.000 A 
ATOM     18  C   UNL     1       5.889   7.221  16.993  0.00  0.00    +0.000 A 
ENDBRANCH  11  16
ENDBRANCH   1  11
TORSDOF 2
ENDMDL
MODEL 3
REMARK VINA RESULT:      -7.0      0.128      1.662
REMARK  Name = 
REMARK  2 active torsions:
REMARK  status: ('A' for Active; 'I' for Inactive)
REMARK    1  A    between atoms: C_5  and  C_6
REMARK    2  A    between atoms: C_6  and  N_7
REMARK                            x       y       z     vdW  Elec       q    Type
REMARK                         _______ _______ _______ _____ _____    ______ ____
ROOT
ATOM      1  N   UNL     1       3.418   3.425  18.225  0.00  0.00    +0.000 N 
ATOM      2  C   UNL     1       3.612   4.110  19.522  0.00  0.00    +0.000 C 
ATOM      3  N   UNL     1       2.532   3.820  20.428  0.00  0.00    +0.000 NA
ATOM      4  C   UNL     1       1.306   4.366  19.882  0.00  0.00    +0.000 C 
ATOM      5  N   UNL     1       1.037   3.767  18.586  0.00  0.00    +0.000 NA
ATOM      6  C   UNL     1       0.847   2.339  18.783  0.00  0.00    +0.000 C 
ATOM      7  N   UNL     1       2.062   1.763  19.321  0.00  0.00    +0.000 NA
ATOM      8  C   UNL     1       2.417   2.377  20.585  0.00  0.00    +0.000 C 
ATOM      9  C   UNL     1       3.131   1.961  18.368  0.00  0.00    +0.000 C 
ATOM     10  C   UNL     1       2.148   3.990  17.672  0.00  0.00    +0.000 C 
ENDROOT
BRANCH   1  11
ATOM     11  C   UNL     1       4.611   3.633  17.282  0.00  0.00    +0.000 C 
BRANCH  11  16
ATOM     12 BR   UNL     1       8.198   8.719  17.820  0.00  0.00    +0.000 Br
ATOM     13  C   UNL     1       7.122   7.177  17.669  0.00  0.00    +0.000 A 
ATOM     14  C   UNL     1       7.567   5.985  18.211  0.00  0.00    +0.000 A 
ATOM     15  C   UNL     1       6.784   4.838  18.088  0.00  0.00    +0.000 A 
ATOM     16  C   UNL     1       5.524   4.847  17.456  0.00  0.00    +0.000 A 
ATOM     17  C   UNL     1       5.111   6.069  16.892  0.00  0.00    +0.000 A 
ATOM     18  C   UNL     1       5.904   7.222  16.992  0.00  0.00    +0.000 A 
ENDBRANCH  11  16
ENDBRANCH   1  11
TORSDOF 2
ENDMDL
MODEL 4
REMARK VINA RESULT:      -7.0      0.092      1.134
REMARK  Name = 
REMARK  2 active torsions:
REMARK  status: ('A' for Active; 'I' for Inactive)
REMARK    1  A    between atoms: C_5  and  C_6
REMARK    2  A    between atoms: C_6  and  N_7
REMARK                            x       y       z     vdW  Elec       q    Type
REMARK                         _______ _______ _______ _____ _____    ______ ____
ROOT
ATOM      1  N   UNL     1       3.436   3.345  18.209  0.00  0.00    +0.000 N 
ATOM      2  C   UNL     1       2.202   3.901  17.611  0.00  0.00    +0.000 C 
ATOM      3  N   UNL     1       1.093   3.797  18.522  0.00  0.00    +0.000 NA
ATOM      4  C   UNL     1       0.810   2.396  18.757  0.00  0.00    +0.000 C 
ATOM      5  N   UNL     1       1.980   1.750  19.328  0.00  0.00    +0.000 NA
ATOM      6  C   UNL     1       2.255   2.377  20.612  0.00  0.00    +0.000 C 
ATOM      7  N   UNL     1       2.550   3.780  20.406  0.00  0.00    +0.000 NA
ATOM      8  C   UNL     1       1.440   4.461  19.771  0.00  0.00    +0.000 C 
ATOM      9  C   UNL     1       3.727   3.891  19.574  0.00  0.00    +0.000 C 
ATOM     10  C   UNL     1       3.134   1.900  18.454  0.00  0.00    +0.000 C 
ENDROOT
BRANCH   1  11
ATOM     11  C   UNL     1       4.655   3.542  17.298  0.00  0.00    +0.000 C 
BRANCH  11  16
ATOM     12 BR   UNL     1       8.178   8.675  17.806  0.00  0.00    +0.000 Br
ATOM     13  C   UNL     1       7.106   7.132  17.642  0.00  0.00    +0.000 A 
ATOM     14  C   UNL     1       5.868   7.229  17.034  0.00  0.00    +0.000 A 
ATOM     15  C   UNL     1       5.064   6.094  16.924  0.00  0.00    +0.000 A 
ATOM     16  C   UNL     1       5.478   4.827  17.382  0.00  0.00    +0.000 A 
ATOM     17  C   UNL     1       6.732   4.766  18.019  0.00  0.00    +0.000 A 
ATOM     18  C   UNL     1       7.536   5.908  18.153  0.00  0.00    +0.000 A 
ENDBRANCH  11  16
ENDBRANCH   1  11
TORSDOF 2
ENDMDL
MODEL 5
REMARK VINA RESULT:      -6.9      0.116      2.051
REMARK  Name = 
REMARK  2 active torsions:
REMARK  status: ('A' for Active; 'I' for Inactive)
REMARK    1  A    between atoms: C_5  and  C_6
REMARK    2  A    between atoms: C_6  and  N_7
REMARK                            x       y       z     vdW  Elec       q    Type
REMARK                         _______ _______ _______ _____ _____    ______ ____
ROOT
ATOM      1  N   UNL     1       3.403   3.383  18.259  0.00  0.00    +0.000 N 
ATOM      2  C   UNL     1       3.190   1.951  18.564  0.00  0.00    +0.000 C 
ATOM      3  N   UNL     1       2.027   1.764  19.392  0.00  0.00    +0.000 NA
ATOM      4  C   UNL     1       2.260   2.401  20.673  0.00  0.00    +0.000 C 
ATOM      5  N   UNL     1       2.504   3.820  20.477  0.00  0.00    +0.000 NA
ATOM      6  C   UNL     1       1.306   4.404  19.892  0.00  0.00    +0.000 C 
ATOM      7  N   UNL     1       1.055   3.791  18.603  0.00  0.00    +0.000 NA
ATOM      8  C   UNL     1       0.873   2.359  18.732  0.00  0.00    +0.000 C 
ATOM      9  C   UNL     1       2.176   4.062  17.733  0.00  0.00    +0.000 C 
ATOM     10  C   UNL     1       3.636   4.032  19.587  0.00  0.00    +0.000 C 
ENDROOT
BRANCH   1  11
ATOM     11  C   UNL     1       4.574   3.595  17.291  0.00  0.00    +0.000 C 
BRANCH  11  16
ATOM     12 BR   UNL     1       8.218   8.640  17.834  0.00  0.00    +0.000 Br
ATOM     13  C   UNL     1       7.110   7.124  17.659  0.00  0.00    +0.000 A 
ATOM     14  C   UNL     1       5.879   7.252  17.042  0.00  0.00    +0.000 A 
ATOM     15  C   UNL     1       5.048   6.137  16.924  0.00  0.00    +0.000 A 
ATOM     16  C   UNL     1       5.428   4.860  17.383  0.00  0.00    +0.000 A 
ATOM     17  C   UNL     1       6.676   4.767  18.030  0.00  0.00    +0.000 A 
ATOM     18  C   UNL     1       7.506   5.889  18.172  0.00  0.00    +0.000 A 
ENDBRANCH  11  16
ENDBRANCH   1  11
TORSDOF 2
ENDMDL
MODEL 6
REMARK VINA RESULT:      -6.9      3.356      4.355
REMARK  Name = 
REMARK  2 active torsions:
REMARK  status: ('A' for Active; 'I' for Inactive)
REMARK    1  A    between atoms: C_5  and  C_6
REMARK    2  A    between atoms: C_6  and  N_7
REMARK                            x       y       z     vdW  Elec       q    Type
REMARK                         _______ _______ _______ _____ _____    ______ ____
ROOT
ATOM      1  N   UNL     1       3.128   4.813  18.667  0.00  0.00    +0.000 N 
ATOM      2  C   UNL     1       2.852   4.439  20.072  0.00  0.00    +0.000 C 
ATOM      3  N   UNL     1       2.526   3.041  20.182  0.00  0.00    +0.000 NA
ATOM      4  C   UNL     1       1.291   2.792  19.467  0.00  0.00    +0.000 C 
ATOM      5  N   UNL     1       1.454   3.152  18.069  0.00  0.00    +0.000 NA
ATOM      6  C   UNL     1       2.485   2.296  17.503  0.00  0.00    +0.000 C 
ATOM      7  N   UNL     1       3.736   2.531  18.194  0.00  0.00    +0.000 NA
ATOM      8  C   UNL     1       3.611   2.254  19.612  0.00  0.00    +0.000 C 
ATOM      9  C   UNL     1       4.122   3.910  18.002  0.00  0.00    +0.000 C 
ATOM     10  C   UNL     1       1.850   4.546  17.936  0.00  0.00    +0.000 C 
ENDROOT
BRANCH   1  11
ATOM     11  C   UNL     1       3.581   6.273  18.540  0.00  0.00    +0.000 C 
BRANCH  11  16
ATOM     12 BR   UNL     1      -0.374  11.022  19.452  0.00  0.00    +0.000 Br
ATOM     13  C   UNL     1       0.815   9.582  19.189  0.00  0.00    +0.000 A 
ATOM     14  C   UNL     1       1.112   8.746  20.251  0.00  0.00    +0.000 A 
ATOM     15  C   UNL     1       2.003   7.689  20.066  0.00  0.00    +0.000 A 
ATOM     16  C   UNL     1       2.597   7.410  18.819  0.00  0.00    +0.000 A 
ATOM     17  C   UNL     1       2.295   8.294  17.765  0.00  0.00    +0.000 A 
ATOM     18  C   UNL     1       1.418   9.373  17.950  0.00  0.00    +0.000 A 
ENDBRANCH  11  16
ENDBRANCH   1  11
TORSDOF 2
ENDMDL
MODEL 7
REMARK VINA RESULT:      -6.9      3.552      5.631
REMARK  Name = 
REMARK  2 active torsions:
REMARK  status: ('A' for Active; 'I' for Inactive)
REMARK    1  A    between atoms: C_5  and  C_6
REMARK    2  A    between atoms: C_6  and  N_7
REMARK                            x       y       z     vdW  Elec       q    Type
REMARK                         _______ _______ _______ _____ _____    ______ ____
ROOT
ATOM      1  N   UNL     1       4.775   5.515  17.487  0.00  0.00    +0.000 N 
ATOM      2  C   UNL     1       5.634   5.688  18.679  0.00  0.00    +0.000 C 
ATOM      3  N   UNL     1       7.021   5.791  18.307  0.00  0.00    +0.000 NA
ATOM      4  C   UNL     1       7.438   4.540  17.709  0.00  0.00    +0.000 C 
ATOM      5  N   UNL     1       6.631   4.267  16.532  0.00  0.00    +0.000 NA
ATOM      6  C   UNL     1       6.870   5.331  15.568  0.00  0.00    +0.000 C 
ATOM      7  N   UNL     1       6.452   6.595  16.138  0.00  0.00    +0.000 NA
ATOM      8  C   UNL     1       7.178   6.885  17.358  0.00  0.00    +0.000 C 
ATOM      9  C   UNL     1       5.036   6.533  16.419  0.00  0.00    +0.000 C 
ATOM     10  C   UNL     1       5.217   4.225  16.872  0.00  0.00    +0.000 C 
ENDROOT
BRANCH   1  11
ATOM     11  C   UNL     1       3.284   5.510  17.850  0.00  0.00    +0.000 C 
BRANCH  11  16
ATOM     12 BR   UNL     1       0.569  10.491  20.467  0.00  0.00    +0.000 Br
ATOM     13  C   UNL     1       1.393   8.995  19.665  0.00  0.00    +0.000 A 
ATOM     14  C   UNL     1       1.683   9.025  18.313  0.00  0.00    +0.000 A 
ATOM     15  C   UNL     1       2.277   7.915  17.712  0.00  0.00    +0.000 A 
ATOM     16  C   UNL     1       2.632   6.762  18.438  0.00  0.00    +0.000 A 
ATOM     17  C   UNL     1       2.301   6.752  19.807  0.00  0.00    +0.000 A 
ATOM     18  C   UNL     1       1.683   7.855  20.414  0.00  0.00    +0.000 A 
ENDBRANCH  11  16
ENDBRANCH   1  11
TORSDOF 2
ENDMDL
MODEL 8
REMARK VINA RESULT:      -6.9      0.230      2.008
REMARK  Name = 
REMARK  2 active torsions:
REMARK  status: ('A' for Active; 'I' for Inactive)
REMARK    1  A    between atoms: C_5  and  C_6
REMARK    2  A    between atoms: C_6  and  N_7
REMARK                            x       y       z     vdW  Elec       q    Type
REMARK                         _______ _______ _______ _____ _____    ______ ____
ROOT
ATOM      1  N   UNL     1       3.549   3.510  18.255  0.00  0.00    +0.000 N 
ATOM      2  C   UNL     1       3.703   4.224  19.542  0.00  0.00    +0.000 C 
ATOM      3  N   UNL     1       2.602   3.942  20.426  0.00  0.00    +0.000 NA
ATOM      4  C   UNL     1       1.386   4.464  19.838  0.00  0.00    +0.000 C 
ATOM      5  N   UNL     1       1.156   3.836  18.548  0.00  0.00    +0.000 NA
ATOM      6  C   UNL     1       0.975   2.409  18.771  0.00  0.00    +0.000 C 
ATOM      7  N   UNL     1       2.182   1.858  19.352  0.00  0.00    +0.000 NA
ATOM      8  C   UNL     1       2.498   2.501  20.611  0.00  0.00    +0.000 C 
ATOM      9  C   UNL     1       3.273   2.047  18.423  0.00  0.00    +0.000 C 
ATOM     10  C   UNL     1       2.288   4.051  17.659  0.00  0.00    +0.000 C 
ENDROOT
BRANCH   1  11
ATOM     11  C   UNL     1       4.763   3.712  17.339  0.00  0.00    +0.000 C 
BRANCH  11  16
ATOM     12 BR   UNL     1       8.282   8.846  17.860  0.00  0.00    +0.000 Br
ATOM     13  C   UNL     1       7.212   7.303  17.692  0.00  0.00    +0.000 A 
ATOM     14  C   UNL     1       5.984   7.395  17.062  0.00  0.00    +0.000 A 
ATOM     15  C   UNL     1       5.181   6.260  16.949  0.00  0.00    +0.000 A 
ATOM     16  C   UNL     1       5.586   4.997  17.425  0.00  0.00    +0.000 A 
ATOM     17  C   UNL     1       6.829   4.941  18.085  0.00  0.00    +0.000 A 
ATOM     18  C   UNL     1       7.632   6.083  18.222  0.00  0.00    +0.000 A 
ENDBRANCH  11  16
ENDBRANCH   1  11
TORSDOF 2
ENDMDL
MODEL 9
REMARK VINA RESULT:      -6.8      1.876      2.676
REMARK  Name = 
REMARK  2 active torsions:
REMARK  status: ('A' for Active; 'I' for Inactive)
REMARK    1  A    between atoms: C_5  and  C_6
REMARK    2  A    between atoms: C_6  and  N_7
REMARK                            x       y       z     vdW  Elec       q    Type
REMARK                         _______ _______ _______ _____ _____    ______ ____
ROOT
ATOM      1  N   UNL     1       3.464   4.506  19.525  0.00  0.00    +0.000 N 
ATOM      2  C   UNL     1       2.708   5.006  20.694  0.00  0.00    +0.000 C 
ATOM      3  N   UNL     1       1.736   4.039  21.135  0.00  0.00    +0.000 NA
ATOM      4  C   UNL     1       0.752   3.857  20.087  0.00  0.00    +0.000 C 
ATOM      5  N   UNL     1       1.405   3.384  18.879  0.00  0.00    +0.000 NA
ATOM      6  C   UNL     1       2.002   2.089  19.169  0.00  0.00    +0.000 C 
ATOM      7  N   UNL     1       2.999   2.244  20.209  0.00  0.00    +0.000 NA
ATOM      8  C   UNL     1       2.412   2.782  21.420  0.00  0.00    +0.000 C 
ATOM      9  C   UNL     1       4.033   3.135  19.733  0.00  0.00    +0.000 C 
ATOM     10  C   UNL     1       2.440   4.314  18.452  0.00  0.00    +0.000 C 
ENDROOT
BRANCH   1  11
ATOM     11  C   UNL     1       4.578   5.474  19.105  0.00  0.00    +0.000 C 
BRANCH  11  16
ATOM     12 BR   UNL     1       7.435   4.860  13.584  0.00  0.00    +0.000 Br
ATOM     13  C   UNL     1       6.560   5.050  15.244  0.00  0.00    +0.000 A 
ATOM     14  C   UNL     1       5.401   5.802  15.317  0.00  0.00    +0.000 A 
ATOM     15  C   UNL     1       4.759   5.959  16.545  0.00  0.00    +0.000 A 
ATOM     16  C   UNL     1       5.226   5.348  17.726  0.00  0.00    +0.000 A 
ATOM     17  C   UNL     1       6.421   4.611  17.624  0.00  0.00    +0.000 A 
ATOM     18  C   UNL     1       7.085   4.468  16.396  0.00  0.00    +0.000 A 
ENDBRANCH  11  16
ENDBRANCH   1  11
TORSDOF 2
ENDMDL
