MODEL 1
REMARK VINA RESULT:      -8.6      0.000      0.000
REMARK  Name = 
REMARK  6 active torsions:
REMARK  status: ('A' for Active; 'I' for Inactive)
REMARK    1  A    between atoms: C_1  and  C_2
REMARK    2  A    between atoms: C_2  and  C_3
REMARK    3  A    between atoms: C_12  and  C_13
REMARK    4  A    between atoms: C_13  and  C_14
REMARK    5  A    between atoms: N_22  and  C_23
REMARK    6  A    between atoms: C_26  and  O_27
REMARK                            x       y       z     vdW  Elec       q    Type
REMARK                         _______ _______ _______ _____ _____    ______ ____
ROOT
ATOM      1  C   UNL     1       4.265   5.301  17.250  0.00  0.00    +0.000 A 
ATOM      2  C   UNL     1       4.328   6.666  16.954  0.00  0.00    +0.000 A 
ATOM      3  C   UNL     1       3.595   7.590  17.698  0.00  0.00    +0.000 A 
ATOM      4  C   UNL     1       2.804   7.148  18.774  0.00  0.00    +0.000 A 
ATOM      5  N   UNL     1       2.053   7.960  19.590  0.00  0.00    +0.000 NA
ATOM      6  C   UNL     1       1.444   7.270  20.527  0.00  0.00    +0.000 A 
ATOM      7  N   UNL     1       0.595   7.814  21.443  0.00  0.00    +0.000 N 
ATOM      8  C   UNL     1      -0.013   9.071  21.220  0.00  0.00    +0.000 A 
ATOM      9  C   UNL     1      -0.450   9.396  19.951  0.00  0.00    +0.000 A 
ATOM     10  C   UNL     1      -1.025  10.628  19.770  0.00  0.00    +0.000 A 
ATOM     11  N   UNL     1      -1.179  11.491  20.791  0.00  0.00    +0.000 NA
ATOM     12  C   UNL     1      -0.735  11.114  21.998  0.00  0.00    +0.000 A 
ATOM     13  N   UNL     1      -0.801  12.009  23.050  0.00  0.00    +0.000 N 
ATOM     14  N   UNL     1      -0.180   9.914  22.260  0.00  0.00    +0.000 NA
ATOM     15  S   UNL     1       1.761   5.577  20.475  0.00  0.00    +0.000 S 
ATOM     16  C   UNL     1       2.749   5.790  19.074  0.00  0.00    +0.000 A 
ATOM     17  C   UNL     1       3.450   4.842  18.304  0.00  0.00    +0.000 A 
ATOM     18  H   UNL     1       0.838   7.712  22.419  0.00  0.00    +0.000 HD
ATOM     19  H   UNL     1      -0.622  11.528  23.920  0.00  0.00    +0.000 HD
ENDROOT
BRANCH  13  20
ATOM     20  C   UNL     1      -1.837  13.037  23.037  0.00  0.00    +0.000 C 
ATOM     21  C   UNL     1      -3.165  12.468  23.561  0.00  0.00    +0.000 C 
ATOM     22  C   UNL     1      -4.238  13.552  23.671  0.00  0.00    +0.000 C 
ATOM     23  C   UNL     1      -3.767  14.715  24.541  0.00  0.00    +0.000 C 
ATOM     24  C   UNL     1      -2.450  15.293  24.027  0.00  0.00    +0.000 C 
ATOM     25  C   UNL     1      -1.374  14.217  23.909  0.00  0.00    +0.000 C 
BRANCH  23  26
ATOM     26  O   UNL     1      -4.765  15.730  24.568  0.00  0.00    +0.000 OA
ATOM     27  H   UNL     1      -5.623  15.321  24.368  0.00  0.00    +0.000 HD
ENDBRANCH  23  26
ENDBRANCH  13  20
BRANCH   1  29
ATOM     28  C   UNL     1       5.644   4.964  15.203  0.00  0.00    +0.000 C 
ATOM     29  C   UNL     1       5.149   4.336  16.498  0.00  0.00    +0.000 C 
ENDBRANCH   1  29
BRANCH  10  30
ATOM     30  C   UNL     1      -1.475  11.047  18.391  0.00  0.00    +0.000 C 
BRANCH  30  31
ATOM     31  C   UNL     1      -2.949  11.370  18.287  0.00  0.00    +0.000 A 
ATOM     32  C   UNL     1      -3.615  12.048  19.318  0.00  0.00    +0.000 A 
ATOM     33  C   UNL     1      -4.961  12.399  19.184  0.00  0.00    +0.000 A 
ATOM     34  C   UNL     1      -5.655  12.070  18.020  0.00  0.00    +0.000 A 
ATOM     35  C   UNL     1      -5.010  11.380  16.997  0.00  0.00    +0.000 A 
ATOM     36  C   UNL     1      -3.666  11.030  17.130  0.00  0.00    +0.000 A 
ENDBRANCH  30  31
ENDBRANCH  10  30
TORSDOF 5
ENDMDL
MODEL 2
REMARK VINA RESULT:      -8.5      4.146     10.412
REMARK  Name = 
REMARK  6 active torsions:
REMARK  status: ('A' for Active; 'I' for Inactive)
REMARK    1  A    between atoms: C_1  and  C_2
REMARK    2  A    between atoms: C_2  and  C_3
REMARK    3  A    between atoms: C_12  and  C_13
REMARK    4  A    between atoms: C_13  and  C_14
REMARK    5  A    between atoms: N_22  and  C_23
REMARK    6  A    between atoms: C_26  and  O_27
REMARK                            x       y       z     vdW  Elec       q    Type
REMARK                         _______ _______ _______ _____ _____    ______ ____
ROOT
ATOM      1  C   UNL     1      -2.600  13.567  22.351  0.00  0.00    +0.000 A 
ATOM      2  C   UNL     1      -1.430  13.120  22.974  0.00  0.00    +0.000 A 
ATOM      3  C   UNL     1      -0.531  12.300  22.293  0.00  0.00    +0.000 A 
ATOM      4  C   UNL     1      -0.789  11.940  20.958  0.00  0.00    +0.000 A 
ATOM      5  N   UNL     1       0.027  11.156  20.178  0.00  0.00    +0.000 NA
ATOM      6  C   UNL     1      -0.456  11.016  18.964  0.00  0.00    +0.000 A 
ATOM      7  N   UNL     1       0.122  10.250  17.998  0.00  0.00    +0.000 N 
ATOM      8  C   UNL     1       1.049   9.233  18.329  0.00  0.00    +0.000 A 
ATOM      9  C   UNL     1       0.831   8.458  19.451  0.00  0.00    +0.000 A 
ATOM     10  C   UNL     1       1.756   7.489  19.746  0.00  0.00    +0.000 A 
ATOM     11  N   UNL     1       2.833   7.282  18.965  0.00  0.00    +0.000 NA
ATOM     12  C   UNL     1       2.984   8.068  17.890  0.00  0.00    +0.000 A 
ATOM     13  N   UNL     1       4.122   7.937  17.115  0.00  0.00    +0.000 N 
ATOM     14  N   UNL     1       2.110   9.024  17.522  0.00  0.00    +0.000 NA
ATOM     15  S   UNL     1      -1.942  11.848  18.697  0.00  0.00    +0.000 S 
ATOM     16  C   UNL     1      -1.948  12.395  20.336  0.00  0.00    +0.000 A 
ATOM     17  C   UNL     1      -2.885  13.187  21.025  0.00  0.00    +0.000 A 
ATOM     18  H   UNL     1       0.401  10.712  17.144  0.00  0.00    +0.000 HD
ATOM     19  H   UNL     1       4.005   8.441  16.248  0.00  0.00    +0.000 HD
ENDROOT
BRANCH  13  20
ATOM     20  C   UNL     1       4.800   6.645  17.069  0.00  0.00    +0.000 C 
ATOM     21  C   UNL     1       5.152   6.275  15.620  0.00  0.00    +0.000 C 
ATOM     22  C   UNL     1       5.967   4.983  15.551  0.00  0.00    +0.000 C 
ATOM     23  C   UNL     1       7.228   5.073  16.408  0.00  0.00    +0.000 C 
ATOM     24  C   UNL     1       6.890   5.435  17.853  0.00  0.00    +0.000 C 
ATOM     25  C   UNL     1       6.071   6.721  17.932  0.00  0.00    +0.000 C 
BRANCH  23  26
ATOM     26  O   UNL     1       7.926   3.834  16.370  0.00  0.00    +0.000 OA
ATOM     27  H   UNL     1       7.682   3.320  17.158  0.00  0.00    +0.000 HD
ENDBRANCH  23  26
ENDBRANCH  13  20
BRANCH   1  29
ATOM     28  C   UNL     1      -3.465  14.284  24.575  0.00  0.00    +0.000 C 
ATOM     29  C   UNL     1      -3.501  14.538  23.075  0.00  0.00    +0.000 C 
ENDBRANCH   1  29
BRANCH  10  30
ATOM     30  C   UNL     1       1.587   6.648  20.988  0.00  0.00    +0.000 C 
BRANCH  30  31
ATOM     31  C   UNL     1       1.661   5.156  20.747  0.00  0.00    +0.000 A 
ATOM     32  C   UNL     1       2.573   4.355  21.449  0.00  0.00    +0.000 A 
ATOM     33  C   UNL     1       2.589   2.970  21.266  0.00  0.00    +0.000 A 
ATOM     34  C   UNL     1       1.697   2.373  20.376  0.00  0.00    +0.000 A 
ATOM     35  C   UNL     1       0.799   3.160  19.659  0.00  0.00    +0.000 A 
ATOM     36  C   UNL     1       0.783   4.544  19.841  0.00  0.00    +0.000 A 
ENDBRANCH  30  31
ENDBRANCH  10  30
TORSDOF 5
ENDMDL
MODEL 3
REMARK VINA RESULT:      -8.3      4.105     10.387
REMARK  Name = 
REMARK  6 active torsions:
REMARK  status: ('A' for Active; 'I' for Inactive)
REMARK    1  A    between atoms: C_1  and  C_2
REMARK    2  A    between atoms: C_2  and  C_3
REMARK    3  A    between atoms: C_12  and  C_13
REMARK    4  A    between atoms: C_13  and  C_14
REMARK    5  A    between atoms: N_22  and  C_23
REMARK    6  A    between atoms: C_26  and  O_27
REMARK                            x       y       z     vdW  Elec       q    Type
REMARK                         _______ _______ _______ _____ _____    ______ ____
ROOT
ATOM      1  C   UNL     1      -2.576  13.399  22.269  0.00  0.00    +0.000 A 
ATOM      2  C   UNL     1      -1.442  12.920  22.932  0.00  0.00    +0.000 A 
ATOM      3  C   UNL     1      -0.521  12.107  22.270  0.00  0.00    +0.000 A 
ATOM      4  C   UNL     1      -0.721  11.789  20.915  0.00  0.00    +0.000 A 
ATOM      5  N   UNL     1       0.121  11.016  20.151  0.00  0.00    +0.000 NA
ATOM      6  C   UNL     1      -0.306  10.916  18.913  0.00  0.00    +0.000 A 
ATOM      7  N   UNL     1       0.307  10.170  17.954  0.00  0.00    +0.000 N 
ATOM      8  C   UNL     1       1.206   9.133  18.298  0.00  0.00    +0.000 A 
ATOM      9  C   UNL     1       0.927   8.329  19.386  0.00  0.00    +0.000 A 
ATOM     10  C   UNL     1       1.826   7.341  19.696  0.00  0.00    +0.000 A 
ATOM     11  N   UNL     1       2.935   7.141  18.960  0.00  0.00    +0.000 NA
ATOM     12  C   UNL     1       3.146   7.955  17.916  0.00  0.00    +0.000 A 
ATOM     13  N   UNL     1       4.318   7.831  17.192  0.00  0.00    +0.000 N 
ATOM     14  N   UNL     1       2.301   8.933  17.535  0.00  0.00    +0.000 NA
ATOM     15  S   UNL     1      -1.768  11.775  18.601  0.00  0.00    +0.000 S 
ATOM     16  C   UNL     1      -1.844  12.276  20.253  0.00  0.00    +0.000 A 
ATOM     17  C   UNL     1      -2.804  13.061  20.920  0.00  0.00    +0.000 A 
ATOM     18  H   UNL     1       0.632  10.652  17.127  0.00  0.00    +0.000 HD
ATOM     19  H   UNL     1       4.246   8.361  16.335  0.00  0.00    +0.000 HD
ENDROOT
BRANCH  13  20
ATOM     20  C   UNL     1       4.981   6.532  17.140  0.00  0.00    +0.000 C 
ATOM     21  C   UNL     1       3.952   5.398  17.258  0.00  0.00    +0.000 C 
ATOM     22  C   UNL     1       4.603   4.025  17.089  0.00  0.00    +0.000 C 
ATOM     23  C   UNL     1       5.364   3.929  15.767  0.00  0.00    +0.000 C 
ATOM     24  C   UNL     1       6.394   5.049  15.640  0.00  0.00    +0.000 C 
ATOM     25  C   UNL     1       5.754   6.424  15.814  0.00  0.00    +0.000 C 
BRANCH  23  26
ATOM     26  O   UNL     1       6.008   2.664  15.674  0.00  0.00    +0.000 OA
ATOM     27  H   UNL     1       6.899   2.745  16.055  0.00  0.00    +0.000 HD
ENDBRANCH  23  26
ENDBRANCH  13  20
BRANCH   1  29
ATOM     28  C   UNL     1      -2.699  15.376  23.780  0.00  0.00    +0.000 C 
ATOM     29  C   UNL     1      -3.499  14.361  22.977  0.00  0.00    +0.000 C 
ENDBRANCH   1  29
BRANCH  10  30
ATOM     30  C   UNL     1       1.589   6.467  20.904  0.00  0.00    +0.000 C 
BRANCH  30  31
ATOM     31  C   UNL     1       1.669   4.982  20.626  0.00  0.00    +0.000 A 
ATOM     32  C   UNL     1       2.307   4.113  21.523  0.00  0.00    +0.000 A 
ATOM     33  C   UNL     1       2.318   2.736  21.290  0.00  0.00    +0.000 A 
ATOM     34  C   UNL     1       1.698   2.214  20.156  0.00  0.00    +0.000 A 
ATOM     35  C   UNL     1       1.078   3.069  19.247  0.00  0.00    +0.000 A 
ATOM     36  C   UNL     1       1.065   4.445  19.480  0.00  0.00    +0.000 A 
ENDBRANCH  30  31
ENDBRANCH  10  30
TORSDOF 5
ENDMDL
MODEL 4
REMARK VINA RESULT:      -8.2      1.284      1.577
REMARK  Name = 
REMARK  6 active torsions:
REMARK  status: ('A' for Active; 'I' for Inactive)
REMARK    1  A    between atoms: C_1  and  C_2
REMARK    2  A    between atoms: C_2  and  C_3
REMARK    3  A    between atoms: C_12  and  C_13
REMARK    4  A    between atoms: C_13  and  C_14
REMARK    5  A    between atoms: N_22  and  C_23
REMARK    6  A    between atoms: C_26  and  O_27
REMARK                            x       y       z     vdW  Elec       q    Type
REMARK                         _______ _______ _______ _____ _____    ______ ____
ROOT
ATOM      1  C   UNL     1       5.289   4.781  16.138  0.00  0.00    +0.000 A 
ATOM      2  C   UNL     1       5.236   6.121  15.744  0.00  0.00    +0.000 A 
ATOM      3  C   UNL     1       4.518   7.055  16.490  0.00  0.00    +0.000 A 
ATOM      4  C   UNL     1       3.863   6.651  17.667  0.00  0.00    +0.000 A 
ATOM      5  N   UNL     1       3.142   7.477  18.496  0.00  0.00    +0.000 NA
ATOM      6  C   UNL     1       2.669   6.826  19.534  0.00  0.00    +0.000 A 
ATOM      7  N   UNL     1       1.878   7.388  20.489  0.00  0.00    +0.000 N 
ATOM      8  C   UNL     1       1.172   8.588  20.241  0.00  0.00    +0.000 A 
ATOM      9  C   UNL     1       0.597   8.791  19.002  0.00  0.00    +0.000 A 
ATOM     10  C   UNL     1      -0.070   9.971  18.793  0.00  0.00    +0.000 A 
ATOM     11  N   UNL     1      -0.182  10.898  19.763  0.00  0.00    +0.000 NA
ATOM     12  C   UNL     1       0.397  10.639  20.943  0.00  0.00    +0.000 A 
ATOM     13  N   UNL     1       0.373  11.605  21.932  0.00  0.00    +0.000 N 
ATOM     14  N   UNL     1       1.050   9.495  21.232  0.00  0.00    +0.000 NA
ATOM     15  S   UNL     1       3.089   5.155  19.568  0.00  0.00    +0.000 S 
ATOM     16  C   UNL     1       3.924   5.318  18.064  0.00  0.00    +0.000 A 
ATOM     17  C   UNL     1       4.609   4.357  17.297  0.00  0.00    +0.000 A 
ATOM     18  H   UNL     1       2.218   7.374  21.441  0.00  0.00    +0.000 HD
ATOM     19  H   UNL     1       0.664  11.202  22.811  0.00  0.00    +0.000 HD
ENDROOT
BRANCH  13  20
ATOM     20  C   UNL     1      -0.723  12.568  21.950  0.00  0.00    +0.000 C 
ATOM     21  C   UNL     1      -1.813  12.123  22.938  0.00  0.00    +0.000 C 
ATOM     22  C   UNL     1      -2.919  13.171  23.067  0.00  0.00    +0.000 C 
ATOM     23  C   UNL     1      -2.352  14.532  23.465  0.00  0.00    +0.000 C 
ATOM     24  C   UNL     1      -1.271  14.988  22.487  0.00  0.00    +0.000 C 
ATOM     25  C   UNL     1      -0.165  13.946  22.347  0.00  0.00    +0.000 C 
BRANCH  23  26
ATOM     26  O   UNL     1      -3.400  15.494  23.513  0.00  0.00    +0.000 OA
ATOM     27  H   UNL     1      -3.116  16.282  23.019  0.00  0.00    +0.000 HD
ENDBRANCH  23  26
ENDBRANCH  13  20
BRANCH   1  29
ATOM     28  C   UNL     1       6.001   4.029  13.873  0.00  0.00    +0.000 C 
ATOM     29  C   UNL     1       6.158   3.814  15.371  0.00  0.00    +0.000 C 
ENDBRANCH   1  29
BRANCH  10  30
ATOM     30  C   UNL     1      -0.674  10.259  17.440  0.00  0.00    +0.000 C 
BRANCH  30  31
ATOM     31  C   UNL     1      -2.122  10.697  17.483  0.00  0.00    +0.000 A 
ATOM     32  C   UNL     1      -2.663  11.291  18.633  0.00  0.00    +0.000 A 
ATOM     33  C   UNL     1      -3.982  11.751  18.640  0.00  0.00    +0.000 A 
ATOM     34  C   UNL     1      -4.775  11.617  17.501  0.00  0.00    +0.000 A 
ATOM     35  C   UNL     1      -4.254  11.012  16.359  0.00  0.00    +0.000 A 
ATOM     36  C   UNL     1      -2.936  10.553  16.351  0.00  0.00    +0.000 A 
ENDBRANCH  30  31
ENDBRANCH  10  30
TORSDOF 5
ENDMDL
MODEL 5
REMARK VINA RESULT:      -8.1      4.141     10.492
REMARK  Name = 
REMARK  6 active torsions:
REMARK  status: ('A' for Active; 'I' for Inactive)
REMARK    1  A    between atoms: C_1  and  C_2
REMARK    2  A    between atoms: C_2  and  C_3
REMARK    3  A    between atoms: C_12  and  C_13
REMARK    4  A    between atoms: C_13  and  C_14
REMARK    5  A    between atoms: N_22  and  C_23
REMARK    6  A    between atoms: C_26  and  O_27
REMARK                            x       y       z     vdW  Elec       q    Type
REMARK                         _______ _______ _______ _____ _____    ______ ____
ROOT
ATOM      1  C   UNL     1      -2.661  12.796  22.618  0.00  0.00    +0.000 A 
ATOM      2  C   UNL     1      -1.570  12.227  23.282  0.00  0.00    +0.000 A 
ATOM      3  C   UNL     1      -0.617  11.488  22.581  0.00  0.00    +0.000 A 
ATOM      4  C   UNL     1      -0.739  11.337  21.188  0.00  0.00    +0.000 A 
ATOM      5  N   UNL     1       0.143  10.652  20.387  0.00  0.00    +0.000 NA
ATOM      6  C   UNL     1      -0.213  10.706  19.123  0.00  0.00    +0.000 A 
ATOM      7  N   UNL     1       0.451  10.073  18.117  0.00  0.00    +0.000 N 
ATOM      8  C   UNL     1       1.323   8.991  18.385  0.00  0.00    +0.000 A 
ATOM      9  C   UNL     1       0.978   8.066  19.350  0.00  0.00    +0.000 A 
ATOM     10  C   UNL     1       1.852   7.037  19.590  0.00  0.00    +0.000 A 
ATOM     11  N   UNL     1       3.002   6.914  18.901  0.00  0.00    +0.000 NA
ATOM     12  C   UNL     1       3.277   7.844  17.976  0.00  0.00    +0.000 A 
ATOM     13  N   UNL     1       4.487   7.794  17.309  0.00  0.00    +0.000 N 
ATOM     14  N   UNL     1       2.460   8.871  17.667  0.00  0.00    +0.000 NA
ATOM     15  S   UNL     1      -1.650  11.613  18.834  0.00  0.00    +0.000 S 
ATOM     16  C   UNL     1      -1.819  11.913  20.527  0.00  0.00    +0.000 A 
ATOM     17  C   UNL     1      -2.812  12.624  21.227  0.00  0.00    +0.000 A 
ATOM     18  H   UNL     1       0.826  10.647  17.375  0.00  0.00    +0.000 HD
ATOM     19  H   UNL     1       4.469   8.424  16.520  0.00  0.00    +0.000 HD
ENDROOT
BRANCH  13  20
ATOM     20  C   UNL     1       5.146   6.503  17.140  0.00  0.00    +0.000 C 
ATOM     21  C   UNL     1       4.105   5.377  17.038  0.00  0.00    +0.000 C 
ATOM     22  C   UNL     1       4.761   4.028  16.741  0.00  0.00    +0.000 C 
ATOM     23  C   UNL     1       5.615   4.091  15.477  0.00  0.00    +0.000 C 
ATOM     24  C   UNL     1       6.658   5.203  15.568  0.00  0.00    +0.000 C 
ATOM     25  C   UNL     1       6.014   6.553  15.870  0.00  0.00    +0.000 C 
BRANCH  23  26
ATOM     26  O   UNL     1       6.258   2.838  15.268  0.00  0.00    +0.000 OA
ATOM     27  H   UNL     1       6.498   2.770  14.329  0.00  0.00    +0.000 HD
ENDBRANCH  23  26
ENDBRANCH  13  20
BRANCH   1  29
ATOM     28  C   UNL     1      -4.402  12.858  24.399  0.00  0.00    +0.000 C 
ATOM     29  C   UNL     1      -3.619  13.677  23.383  0.00  0.00    +0.000 C 
ENDBRANCH   1  29
BRANCH  10  30
ATOM     30  C   UNL     1       1.541   6.028  20.669  0.00  0.00    +0.000 C 
BRANCH  30  31
ATOM     31  C   UNL     1       1.800   4.591  20.273  0.00  0.00    +0.000 A 
ATOM     32  C   UNL     1       1.157   4.020  19.165  0.00  0.00    +0.000 A 
ATOM     33  C   UNL     1       1.452   2.713  18.770  0.00  0.00    +0.000 A 
ATOM     34  C   UNL     1       2.387   1.962  19.480  0.00  0.00    +0.000 A 
ATOM     35  C   UNL     1       3.019   2.511  20.594  0.00  0.00    +0.000 A 
ATOM     36  C   UNL     1       2.725   3.818  20.989  0.00  0.00    +0.000 A 
ENDBRANCH  30  31
ENDBRANCH  10  30
TORSDOF 5
ENDMDL
MODEL 6
REMARK VINA RESULT:      -7.9      0.653      1.129
REMARK  Name = 
REMARK  6 active torsions:
REMARK  status: ('A' for Active; 'I' for Inactive)
REMARK    1  A    between atoms: C_1  and  C_2
REMARK    2  A    between atoms: C_2  and  C_3
REMARK    3  A    between atoms: C_12  and  C_13
REMARK    4  A    between atoms: C_13  and  C_14
REMARK    5  A    between atoms: N_22  and  C_23
REMARK    6  A    between atoms: C_26  and  O_27
REMARK                            x       y       z     vdW  Elec       q    Type
REMARK                         _______ _______ _______ _____ _____    ______ ____
ROOT
ATOM      1  C   UNL     1       3.931   5.610  17.474  0.00  0.00    +0.000 A 
ATOM      2  C   UNL     1       4.093   6.973  17.208  0.00  0.00    +0.000 A 
ATOM      3  C   UNL     1       3.399   7.930  17.949  0.00  0.00    +0.000 A 
ATOM      4  C   UNL     1       2.548   7.521  18.991  0.00  0.00    +0.000 A 
ATOM      5  N   UNL     1       1.827   8.366  19.801  0.00  0.00    +0.000 NA
ATOM      6  C   UNL     1       1.145   7.700  20.705  0.00  0.00    +0.000 A 
ATOM      7  N   UNL     1       0.306   8.282  21.607  0.00  0.00    +0.000 N 
ATOM      8  C   UNL     1      -0.211   9.581  21.392  0.00  0.00    +0.000 A 
ATOM      9  C   UNL     1      -0.586   9.958  20.117  0.00  0.00    +0.000 A 
ATOM     10  C   UNL     1      -1.073  11.229  19.945  0.00  0.00    +0.000 A 
ATOM     11  N   UNL     1      -1.201  12.080  20.979  0.00  0.00    +0.000 NA
ATOM     12  C   UNL     1      -0.821  11.652  22.191  0.00  0.00    +0.000 A 
ATOM     13  N   UNL     1      -0.861  12.530  23.258  0.00  0.00    +0.000 N 
ATOM     14  N   UNL     1      -0.354  10.413  22.444  0.00  0.00    +0.000 NA
ATOM     15  S   UNL     1       1.352   5.991  20.627  0.00  0.00    +0.000 S 
ATOM     16  C   UNL     1       2.395   6.165  19.261  0.00  0.00    +0.000 A 
ATOM     17  C   UNL     1       3.056   5.187  18.493  0.00  0.00    +0.000 A 
ATOM     18  H   UNL     1       0.511   8.146  22.587  0.00  0.00    +0.000 HD
ATOM     19  H   UNL     1      -0.741  12.021  24.123  0.00  0.00    +0.000 HD
ENDROOT
BRANCH  13  20
ATOM     20  C   UNL     1      -1.826  13.624  23.236  0.00  0.00    +0.000 C 
ATOM     21  C   UNL     1      -3.202  13.137  23.715  0.00  0.00    +0.000 C 
ATOM     22  C   UNL     1      -4.204  14.287  23.816  0.00  0.00    +0.000 C 
ATOM     23  C   UNL     1      -3.681  15.403  24.718  0.00  0.00    +0.000 C 
ATOM     24  C   UNL     1      -2.316  15.900  24.248  0.00  0.00    +0.000 C 
ATOM     25  C   UNL     1      -1.310  14.758  24.140  0.00  0.00    +0.000 C 
BRANCH  23  26
ATOM     26  O   UNL     1      -4.610  16.482  24.736  0.00  0.00    +0.000 OA
ATOM     27  H   UNL     1      -4.351  17.097  25.443  0.00  0.00    +0.000 HD
ENDBRANCH  23  26
ENDBRANCH  13  20
BRANCH   1  29
ATOM     28  C   UNL     1       4.443   3.190  17.184  0.00  0.00    +0.000 C 
ATOM     29  C   UNL     1       4.773   4.603  16.728  0.00  0.00    +0.000 C 
ENDBRANCH   1  29
BRANCH  10  30
ATOM     30  C   UNL     1      -1.451  11.703  18.562  0.00  0.00    +0.000 C 
BRANCH  30  31
ATOM     31  C   UNL     1      -2.929  11.610  18.253  0.00  0.00    +0.000 A 
ATOM     32  C   UNL     1      -3.382  11.045  17.052  0.00  0.00    +0.000 A 
ATOM     33  C   UNL     1      -4.749  10.906  16.804  0.00  0.00    +0.000 A 
ATOM     34  C   UNL     1      -5.678  11.334  17.752  0.00  0.00    +0.000 A 
ATOM     35  C   UNL     1      -5.241  11.914  18.941  0.00  0.00    +0.000 A 
ATOM     36  C   UNL     1      -3.875  12.053  19.189  0.00  0.00    +0.000 A 
ENDBRANCH  30  31
ENDBRANCH  10  30
TORSDOF 5
ENDMDL
MODEL 7
REMARK VINA RESULT:      -7.8      1.400      1.838
REMARK  Name = 
REMARK  6 active torsions:
REMARK  status: ('A' for Active; 'I' for Inactive)
REMARK    1  A    between atoms: C_1  and  C_2
REMARK    2  A    between atoms: C_2  and  C_3
REMARK    3  A    between atoms: C_12  and  C_13
REMARK    4  A    between atoms: C_13  and  C_14
REMARK    5  A    between atoms: N_22  and  C_23
REMARK    6  A    between atoms: C_26  and  O_27
REMARK                            x       y       z     vdW  Elec       q    Type
REMARK                         _______ _______ _______ _____ _____    ______ ____
ROOT
ATOM      1  C   UNL     1       5.059   4.748  16.431  0.00  0.00    +0.000 A 
ATOM      2  C   UNL     1       5.030   6.065  15.964  0.00  0.00    +0.000 A 
ATOM      3  C   UNL     1       4.337   7.053  16.663  0.00  0.00    +0.000 A 
ATOM      4  C   UNL     1       3.683   6.727  17.866  0.00  0.00    +0.000 A 
ATOM      5  N   UNL     1       2.986   7.612  18.653  0.00  0.00    +0.000 NA
ATOM      6  C   UNL     1       2.510   7.028  19.729  0.00  0.00    +0.000 A 
ATOM      7  N   UNL     1       1.738   7.656  20.658  0.00  0.00    +0.000 N 
ATOM      8  C   UNL     1       1.054   8.856  20.350  0.00  0.00    +0.000 A 
ATOM      9  C   UNL     1       0.473   9.002  19.106  0.00  0.00    +0.000 A 
ATOM     10  C   UNL     1      -0.173  10.182  18.838  0.00  0.00    +0.000 A 
ATOM     11  N   UNL     1      -0.258  11.163  19.756  0.00  0.00    +0.000 NA
ATOM     12  C   UNL     1       0.326  10.957  20.945  0.00  0.00    +0.000 A 
ATOM     13  N   UNL     1       0.330  11.976  21.879  0.00  0.00    +0.000 N 
ATOM     14  N   UNL     1       0.959   9.818  21.291  0.00  0.00    +0.000 NA
ATOM     15  S   UNL     1       2.897   5.353  19.851  0.00  0.00    +0.000 S 
ATOM     16  C   UNL     1       3.722   5.417  18.335  0.00  0.00    +0.000 A 
ATOM     17  C   UNL     1       4.381   4.401  17.616  0.00  0.00    +0.000 A 
ATOM     18  H   UNL     1       2.086   7.688  21.606  0.00  0.00    +0.000 HD
ATOM     19  H   UNL     1       0.621  11.615  22.777  0.00  0.00    +0.000 HD
ENDROOT
BRANCH  13  20
ATOM     20  C   UNL     1      -0.747  12.961  21.853  0.00  0.00    +0.000 C 
ATOM     21  C   UNL     1      -1.299  13.191  23.269  0.00  0.00    +0.000 C 
ATOM     22  C   UNL     1      -2.348  14.303  23.291  0.00  0.00    +0.000 C 
ATOM     23  C   UNL     1      -1.794  15.602  22.709  0.00  0.00    +0.000 C 
ATOM     24  C   UNL     1      -1.247  15.387  21.299  0.00  0.00    +0.000 C 
ATOM     25  C   UNL     1      -0.203  14.274  21.266  0.00  0.00    +0.000 C 
BRANCH  23  26
ATOM     26  O   UNL     1      -2.814  16.594  22.687  0.00  0.00    +0.000 OA
ATOM     27  H   UNL     1      -3.425  16.389  21.959  0.00  0.00    +0.000 HD
ENDBRANCH  23  26
ENDBRANCH  13  20
BRANCH   1  29
ATOM     28  C   UNL     1       6.266   4.215  14.317  0.00  0.00    +0.000 C 
ATOM     29  C   UNL     1       5.902   3.724  15.711  0.00  0.00    +0.000 C 
ENDBRANCH   1  29
BRANCH  10  30
ATOM     30  C   UNL     1      -0.783  10.408  17.476  0.00  0.00    +0.000 C 
BRANCH  30  31
ATOM     31  C   UNL     1      -2.220  10.882  17.506  0.00  0.00    +0.000 A 
ATOM     32  C   UNL     1      -3.041  10.768  16.375  0.00  0.00    +0.000 A 
ATOM     33  C   UNL     1      -4.384  11.149  16.432  0.00  0.00    +0.000 A 
ATOM     34  C   UNL     1      -4.918  11.652  17.619  0.00  0.00    +0.000 A 
ATOM     35  C   UNL     1      -4.107  11.787  18.743  0.00  0.00    +0.000 A 
ATOM     36  C   UNL     1      -2.765  11.407  18.687  0.00  0.00    +0.000 A 
ENDBRANCH  30  31
ENDBRANCH  10  30
TORSDOF 5
ENDMDL
MODEL 8
REMARK VINA RESULT:      -7.6      4.586     10.147
REMARK  Name = 
REMARK  6 active torsions:
REMARK  status: ('A' for Active; 'I' for Inactive)
REMARK    1  A    between atoms: C_1  and  C_2
REMARK    2  A    between atoms: C_2  and  C_3
REMARK    3  A    between atoms: C_12  and  C_13
REMARK    4  A    between atoms: C_13  and  C_14
REMARK    5  A    between atoms: N_22  and  C_23
REMARK    6  A    between atoms: C_26  and  O_27
REMARK                            x       y       z     vdW  Elec       q    Type
REMARK                         _______ _______ _______ _____ _____    ______ ____
ROOT
ATOM      1  C   UNL     1      -0.180  14.269  19.120  0.00  0.00    +0.000 A 
ATOM      2  C   UNL     1      -0.402  13.387  18.059  0.00  0.00    +0.000 A 
ATOM      3  C   UNL     1      -0.211  12.015  18.222  0.00  0.00    +0.000 A 
ATOM      4  C   UNL     1       0.183  11.511  19.475  0.00  0.00    +0.000 A 
ATOM      5  N   UNL     1       0.384  10.183  19.766  0.00  0.00    +0.000 NA
ATOM      6  C   UNL     1       0.718  10.010  21.025  0.00  0.00    +0.000 A 
ATOM      7  N   UNL     1       1.024   8.802  21.573  0.00  0.00    +0.000 N 
ATOM      8  C   UNL     1       1.402   7.706  20.761  0.00  0.00    +0.000 A 
ATOM      9  C   UNL     1       2.213   7.923  19.665  0.00  0.00    +0.000 A 
ATOM     10  C   UNL     1       2.550   6.839  18.896  0.00  0.00    +0.000 A 
ATOM     11  N   UNL     1       2.124   5.600  19.200  0.00  0.00    +0.000 NA
ATOM     12  C   UNL     1       1.341   5.456  20.279  0.00  0.00    +0.000 A 
ATOM     13  N   UNL     1       0.819   4.210  20.571  0.00  0.00    +0.000 N 
ATOM     14  N   UNL     1       0.985   6.467  21.096  0.00  0.00    +0.000 NA
ATOM     15  S   UNL     1       0.795  11.469  21.939  0.00  0.00    +0.000 S 
ATOM     16  C   UNL     1       0.394  12.390  20.534  0.00  0.00    +0.000 A 
ATOM     17  C   UNL     1       0.247  13.780  20.371  0.00  0.00    +0.000 A 
ATOM     18  H   UNL     1       0.454   8.484  22.344  0.00  0.00    +0.000 HD
ATOM     19  H   UNL     1       0.424   4.214  21.500  0.00  0.00    +0.000 HD
ENDROOT
BRANCH  13  20
ATOM     20  C   UNL     1       1.549   3.021  20.143  0.00  0.00    +0.000 C 
ATOM     21  C   UNL     1       1.359   2.786  18.636  0.00  0.00    +0.000 C 
ATOM     22  C   UNL     1       2.208   1.616  18.137  0.00  0.00    +0.000 C 
ATOM     23  C   UNL     1       3.684   1.817  18.470  0.00  0.00    +0.000 C 
ATOM     24  C   UNL     1       3.887   2.046  19.967  0.00  0.00    +0.000 C 
ATOM     25  C   UNL     1       3.040   3.209  20.476  0.00  0.00    +0.000 C 
BRANCH  23  26
ATOM     26  O   UNL     1       4.432   0.682  18.048  0.00  0.00    +0.000 OA
ATOM     27  H   UNL     1       3.897   0.185  17.406  0.00  0.00    +0.000 HD
ENDBRANCH  23  26
ENDBRANCH  13  20
BRANCH   1  29
ATOM     28  C   UNL     1       0.769  16.573  19.080  0.00  0.00    +0.000 C 
ATOM     29  C   UNL     1      -0.495  15.735  18.945  0.00  0.00    +0.000 C 
ENDBRANCH   1  29
BRANCH  10  30
ATOM     30  C   UNL     1       3.395   7.034  17.660  0.00  0.00    +0.000 C 
BRANCH  30  31
ATOM     31  C   UNL     1       4.565   6.081  17.548  0.00  0.00    +0.000 A 
ATOM     32  C   UNL     1       4.558   5.035  16.614  0.00  0.00    +0.000 A 
ATOM     33  C   UNL     1       5.670   4.202  16.473  0.00  0.00    +0.000 A 
ATOM     34  C   UNL     1       6.798   4.402  17.268  0.00  0.00    +0.000 A 
ATOM     35  C   UNL     1       6.810   5.425  18.213  0.00  0.00    +0.000 A 
ATOM     36  C   UNL     1       5.699   6.259  18.353  0.00  0.00    +0.000 A 
ENDBRANCH  30  31
ENDBRANCH  10  30
TORSDOF 5
ENDMDL
MODEL 9
REMARK VINA RESULT:      -7.6      1.219      1.380
REMARK  Name = 
REMARK  6 active torsions:
REMARK  status: ('A' for Active; 'I' for Inactive)
REMARK    1  A    between atoms: C_1  and  C_2
REMARK    2  A    between atoms: C_2  and  C_3
REMARK    3  A    between atoms: C_12  and  C_13
REMARK    4  A    between atoms: C_13  and  C_14
REMARK    5  A    between atoms: N_22  and  C_23
REMARK    6  A    between atoms: C_26  and  O_27
REMARK                            x       y       z     vdW  Elec       q    Type
REMARK                         _______ _______ _______ _____ _____    ______ ____
ROOT
ATOM      1  C   UNL     1       3.770   4.873  17.808  0.00  0.00    +0.000 A 
ATOM      2  C   UNL     1       4.004   6.138  17.261  0.00  0.00    +0.000 A 
ATOM      3  C   UNL     1       3.436   7.277  17.833  0.00  0.00    +0.000 A 
ATOM      4  C   UNL     1       2.642   7.154  18.988  0.00  0.00    +0.000 A 
ATOM      5  N   UNL     1       2.046   8.199  19.652  0.00  0.00    +0.000 NA
ATOM      6  C   UNL     1       1.392   7.784  20.714  0.00  0.00    +0.000 A 
ATOM      7  N   UNL     1       0.667   8.600  21.528  0.00  0.00    +0.000 N 
ATOM      8  C   UNL     1       0.225   9.869  21.086  0.00  0.00    +0.000 A 
ATOM      9  C   UNL     1      -0.221  10.016  19.787  0.00  0.00    +0.000 A 
ATOM     10  C   UNL     1      -0.632  11.262  19.390  0.00  0.00    +0.000 A 
ATOM     11  N   UNL     1      -0.621  12.310  20.235  0.00  0.00    +0.000 NA
ATOM     12  C   UNL     1      -0.178  12.100  21.482  0.00  0.00    +0.000 A 
ATOM     13  N   UNL     1      -0.075  13.173  22.349  0.00  0.00    +0.000 N 
ATOM     14  N   UNL     1       0.221  10.902  21.954  0.00  0.00    +0.000 NA
ATOM     15  S   UNL     1       1.476   6.082  20.973  0.00  0.00    +0.000 S 
ATOM     16  C   UNL     1       2.419   5.895  19.537  0.00  0.00    +0.000 A 
ATOM     17  C   UNL     1       2.950   4.733  18.945  0.00  0.00    +0.000 A 
ATOM     18  H   UNL     1       0.938   8.645  22.501  0.00  0.00    +0.000 HD
ATOM     19  H   UNL     1       0.077  12.838  23.290  0.00  0.00    +0.000 HD
ENDROOT
BRANCH  13  20
ATOM     20  C   UNL     1      -0.962  14.317  22.165  0.00  0.00    +0.000 C 
ATOM     21  C   UNL     1      -2.422  13.912  22.425  0.00  0.00    +0.000 C 
ATOM     22  C   UNL     1      -3.361  15.117  22.355  0.00  0.00    +0.000 C 
ATOM     23  C   UNL     1      -2.926  16.219  23.318  0.00  0.00    +0.000 C 
ATOM     24  C   UNL     1      -1.478  16.633  23.066  0.00  0.00    +0.000 C 
ATOM     25  C   UNL     1      -0.533  15.437  23.129  0.00  0.00    +0.000 C 
BRANCH  23  26
ATOM     26  O   UNL     1      -3.784  17.346  23.180  0.00  0.00    +0.000 OA
ATOM     27  H   UNL     1      -3.669  17.916  23.959  0.00  0.00    +0.000 HD
ENDBRANCH  23  26
ENDBRANCH  13  20
BRANCH   1  29
ATOM     28  C   UNL     1       3.854   2.384  17.745  0.00  0.00    +0.000 C 
ATOM     29  C   UNL     1       4.481   3.672  17.232  0.00  0.00    +0.000 C 
ENDBRANCH   1  29
BRANCH  10  30
ATOM     30  C   UNL     1      -1.083  11.482  17.966  0.00  0.00    +0.000 C 
BRANCH  30  31
ATOM     31  C   UNL     1      -2.583  11.453  17.775  0.00  0.00    +0.000 A 
ATOM     32  C   UNL     1      -3.453  11.742  18.837  0.00  0.00    +0.000 A 
ATOM     33  C   UNL     1      -4.834  11.775  18.634  0.00  0.00    +0.000 A 
ATOM     34  C   UNL     1      -5.361  11.515  17.370  0.00  0.00    +0.000 A 
ATOM     35  C   UNL     1      -4.509  11.207  16.311  0.00  0.00    +0.000 A 
ATOM     36  C   UNL     1      -3.128  11.174  16.513  0.00  0.00    +0.000 A 
ENDBRANCH  30  31
ENDBRANCH  10  30
TORSDOF 5
ENDMDL
