MODEL 1
REMARK VINA RESULT:      -7.2      0.000      0.000
REMARK  Name = 
REMARK  6 active torsions:
REMARK  status: ('A' for Active; 'I' for Inactive)
REMARK    1  A    between atoms: C_1  and  O_2
REMARK    2  A    between atoms: O_2  and  C_3
REMARK    3  A    between atoms: C_11  and  C_12
REMARK    4  A    between atoms: C_12  and  O_14
REMARK    5  A    between atoms: O_14  and  C_15
REMARK    6  A    between atoms: C_15  and  C_16
REMARK                            x       y       z     vdW  Elec       q    Type
REMARK                         _______ _______ _______ _____ _____    ______ ____
ROOT
ATOM      1  C   UNL     1      -0.133  11.014  19.963  0.00  0.00    +0.000 A 
ATOM      2  C   UNL     1      -0.943  11.613  20.947  0.00  0.00    +0.000 A 
ATOM      3  C   UNL     1      -1.020  11.089  22.230  0.00  0.00    +0.000 A 
ATOM      4 CL   UNL     1      -2.021  11.857  23.403  0.00  0.00    +0.000 Cl
ATOM      5  C   UNL     1      -0.306   9.951  22.585  0.00  0.00    +0.000 A 
ATOM      6  C   UNL     1       0.471   9.337  21.595  0.00  0.00    +0.000 A 
ATOM      7  N   UNL     1       1.240   8.204  21.693  0.00  0.00    +0.000 N 
ATOM      8  C   UNL     1       1.827   7.934  20.494  0.00  0.00    +0.000 A 
ATOM      9  C   UNL     1       1.462   8.911  19.576  0.00  0.00    +0.000 A 
ATOM     10  C   UNL     1       0.581   9.822  20.279  0.00  0.00    +0.000 A 
ATOM     11  H   UNL     1       1.351   7.653  22.534  0.00  0.00    +0.000 HD
ENDROOT
BRANCH   1  13
ATOM     12  C   UNL     1      -0.979  12.562  18.375  0.00  0.00    +0.000 C 
ATOM     13  O   UNL     1      -0.060  11.520  18.688  0.00  0.00    +0.000 OA
ENDBRANCH   1  13
BRANCH   9  14
ATOM     14  C   UNL     1       1.990   8.892  18.209  0.00  0.00    +0.000 C 
ATOM     15  O   UNL     1       2.151   9.925  17.560  0.00  0.00    +0.000 OA
BRANCH  14  16
ATOM     16  O   UNL     1       2.214   7.650  17.701  0.00  0.00    +0.000 OA
BRANCH  16  17
ATOM     17  C   UNL     1       3.582   7.229  17.619  0.00  0.00    +0.000 C 
BRANCH  17  18
ATOM     18  C   UNL     1       3.771   5.720  17.819  0.00  0.00    +0.000 C 
ATOM     19  C   UNL     1       4.498   5.372  19.137  0.00  0.00    +0.000 C 
ATOM     20  C   UNL     1       4.541   3.842  19.309  0.00  0.00    +0.000 C 
ATOM     21  N   UNL     1       3.978   3.132  18.140  0.00  0.00    +0.000 NA
ATOM     22  C   UNL     1       4.710   3.554  16.927  0.00  0.00    +0.000 C 
ATOM     23  C   UNL     1       4.583   5.065  16.679  0.00  0.00    +0.000 C 
ATOM     24  C   UNL     1       2.560   3.506  17.982  0.00  0.00    +0.000 C 
ATOM     25  C   UNL     1       2.387   5.028  17.879  0.00  0.00    +0.000 C 
ENDBRANCH  17  18
ENDBRANCH  16  17
ENDBRANCH  14  16
ENDBRANCH   9  14
TORSDOF 5
ENDMDL
MODEL 2
REMARK VINA RESULT:      -7.1      1.643      2.047
REMARK  Name = 
REMARK  6 active torsions:
REMARK  status: ('A' for Active; 'I' for Inactive)
REMARK    1  A    between atoms: C_1  and  O_2
REMARK    2  A    between atoms: O_2  and  C_3
REMARK    3  A    between atoms: C_11  and  C_12
REMARK    4  A    between atoms: C_12  and  O_14
REMARK    5  A    between atoms: O_14  and  C_15
REMARK    6  A    between atoms: C_15  and  C_16
REMARK                            x       y       z     vdW  Elec       q    Type
REMARK                         _______ _______ _______ _____ _____    ______ ____
ROOT
ATOM      1  C   UNL     1      -0.661  10.975  19.774  0.00  0.00    +0.000 A 
ATOM      2  C   UNL     1      -1.595  11.909  20.263  0.00  0.00    +0.000 A 
ATOM      3  C   UNL     1      -1.810  12.062  21.626  0.00  0.00    +0.000 A 
ATOM      4 CL   UNL     1      -2.960  13.220  22.179  0.00  0.00    +0.000 Cl
ATOM      5  C   UNL     1      -1.117  11.294  22.554  0.00  0.00    +0.000 A 
ATOM      6  C   UNL     1      -0.215  10.342  22.063  0.00  0.00    +0.000 A 
ATOM      7  N   UNL     1       0.563   9.459  22.770  0.00  0.00    +0.000 N 
ATOM      8  C   UNL     1       1.293   8.691  21.914  0.00  0.00    +0.000 A 
ATOM      9  C   UNL     1       1.016   9.075  20.607  0.00  0.00    +0.000 A 
ATOM     10  C   UNL     1       0.038  10.141  20.694  0.00  0.00    +0.000 A 
ATOM     11  H   UNL     1       0.586   9.390  23.779  0.00  0.00    +0.000 HD
ENDROOT
BRANCH   1  13
ATOM     12  C   UNL     1      -1.519  10.220  17.694  0.00  0.00    +0.000 C 
ATOM     13  O   UNL     1      -0.450  10.810  18.427  0.00  0.00    +0.000 OA
ENDBRANCH   1  13
BRANCH   9  14
ATOM     14  C   UNL     1       1.702   8.443  19.478  0.00  0.00    +0.000 C 
ATOM     15  O   UNL     1       1.639   8.903  18.338  0.00  0.00    +0.000 OA
BRANCH  14  16
ATOM     16  O   UNL     1       2.345   7.282  19.778  0.00  0.00    +0.000 OA
BRANCH  16  17
ATOM     17  C   UNL     1       2.457   6.319  18.721  0.00  0.00    +0.000 C 
BRANCH  17  18
ATOM     18  C   UNL     1       2.273   4.870  19.190  0.00  0.00    +0.000 C 
ATOM     19  C   UNL     1       1.476   4.760  20.509  0.00  0.00    +0.000 C 
ATOM     20  C   UNL     1       1.241   3.274  20.842  0.00  0.00    +0.000 C 
ATOM     21  N   UNL     1       1.916   2.374  19.883  0.00  0.00    +0.000 NA
ATOM     22  C   UNL     1       3.358   2.693  19.861  0.00  0.00    +0.000 C 
ATOM     23  C   UNL     1       3.615   4.144  19.422  0.00  0.00    +0.000 C 
ATOM     24  C   UNL     1       1.367   2.603  18.533  0.00  0.00    +0.000 C 
ATOM     25  C   UNL     1       1.477   4.078  18.124  0.00  0.00    +0.000 C 
ENDBRANCH  17  18
ENDBRANCH  16  17
ENDBRANCH  14  16
ENDBRANCH   9  14
TORSDOF 5
ENDMDL
MODEL 3
REMARK VINA RESULT:      -7.1      1.778      2.495
REMARK  Name = 
REMARK  6 active torsions:
REMARK  status: ('A' for Active; 'I' for Inactive)
REMARK    1  A    between atoms: C_1  and  O_2
REMARK    2  A    between atoms: O_2  and  C_3
REMARK    3  A    between atoms: C_11  and  C_12
REMARK    4  A    between atoms: C_12  and  O_14
REMARK    5  A    between atoms: O_14  and  C_15
REMARK    6  A    between atoms: C_15  and  C_16
REMARK                            x       y       z     vdW  Elec       q    Type
REMARK                         _______ _______ _______ _____ _____    ______ ____
ROOT
ATOM      1  C   UNL     1       0.658  11.761  20.715  0.00  0.00    +0.000 A 
ATOM      2  C   UNL     1       0.091  12.878  21.358  0.00  0.00    +0.000 A 
ATOM      3  C   UNL     1      -0.743  12.727  22.457  0.00  0.00    +0.000 A 
ATOM      4 CL   UNL     1      -1.412  14.123  23.214  0.00  0.00    +0.000 Cl
ATOM      5  C   UNL     1      -1.053  11.468  22.956  0.00  0.00    +0.000 A 
ATOM      6  C   UNL     1      -0.516  10.357  22.294  0.00  0.00    +0.000 A 
ATOM      7  N   UNL     1      -0.691   9.027  22.578  0.00  0.00    +0.000 N 
ATOM      8  C   UNL     1      -0.006   8.263  21.683  0.00  0.00    +0.000 A 
ATOM      9  C   UNL     1       0.657   9.094  20.788  0.00  0.00    +0.000 A 
ATOM     10  C   UNL     1       0.329  10.452  21.174  0.00  0.00    +0.000 A 
ATOM     11  H   UNL     1      -1.250   8.669  23.343  0.00  0.00    +0.000 HD
ENDROOT
BRANCH   1  13
ATOM     12  C   UNL     1       1.128  12.938  18.709  0.00  0.00    +0.000 C 
ATOM     13  O   UNL     1       1.476  11.901  19.620  0.00  0.00    +0.000 OA
ENDBRANCH   1  13
BRANCH   9  14
ATOM     14  C   UNL     1       1.513   8.537  19.738  0.00  0.00    +0.000 C 
ATOM     15  O   UNL     1       1.540   9.009  18.602  0.00  0.00    +0.000 OA
BRANCH  14  16
ATOM     16  O   UNL     1       2.210   7.426  20.100  0.00  0.00    +0.000 OA
BRANCH  16  17
ATOM     17  C   UNL     1       2.629   6.557  19.039  0.00  0.00    +0.000 C 
BRANCH  17  18
ATOM     18  C   UNL     1       2.324   5.077  19.302  0.00  0.00    +0.000 C 
ATOM     19  C   UNL     1       1.618   4.386  18.115  0.00  0.00    +0.000 C 
ATOM     20  C   UNL     1       1.455   2.885  18.419  0.00  0.00    +0.000 C 
ATOM     21  N   UNL     1       1.917   2.538  19.781  0.00  0.00    +0.000 NA
ATOM     22  C   UNL     1       1.180   3.364  20.760  0.00  0.00    +0.000 C 
ATOM     23  C   UNL     1       1.422   4.866  20.538  0.00  0.00    +0.000 C 
ATOM     24  C   UNL     1       3.355   2.847  19.899  0.00  0.00    +0.000 C 
ATOM     25  C   UNL     1       3.648   4.309  19.539  0.00  0.00    +0.000 C 
ENDBRANCH  17  18
ENDBRANCH  16  17
ENDBRANCH  14  16
ENDBRANCH   9  14
TORSDOF 5
ENDMDL
MODEL 4
REMARK VINA RESULT:      -7.0      0.308      1.261
REMARK  Name = 
REMARK  6 active torsions:
REMARK  status: ('A' for Active; 'I' for Inactive)
REMARK    1  A    between atoms: C_1  and  O_2
REMARK    2  A    between atoms: O_2  and  C_3
REMARK    3  A    between atoms: C_11  and  C_12
REMARK    4  A    between atoms: C_12  and  O_14
REMARK    5  A    between atoms: O_14  and  C_15
REMARK    6  A    between atoms: C_15  and  C_16
REMARK                            x       y       z     vdW  Elec       q    Type
REMARK                         _______ _______ _______ _____ _____    ______ ____
ROOT
ATOM      1  C   UNL     1      -0.110  11.111  19.968  0.00  0.00    +0.000 A 
ATOM      2  C   UNL     1      -0.906  11.745  20.941  0.00  0.00    +0.000 A 
ATOM      3  C   UNL     1      -1.000  11.242  22.231  0.00  0.00    +0.000 A 
ATOM      4 CL   UNL     1      -1.982  12.053  23.390  0.00  0.00    +0.000 Cl
ATOM      5  C   UNL     1      -0.317  10.090  22.604  0.00  0.00    +0.000 A 
ATOM      6  C   UNL     1       0.445   9.442  21.625  0.00  0.00    +0.000 A 
ATOM      7  N   UNL     1       1.183   8.290  21.740  0.00  0.00    +0.000 N 
ATOM      8  C   UNL     1       1.765   7.987  20.548  0.00  0.00    +0.000 A 
ATOM      9  C   UNL     1       1.429   8.961  19.614  0.00  0.00    +0.000 A 
ATOM     10  C   UNL     1       0.571   9.905  20.303  0.00  0.00    +0.000 A 
ATOM     11  H   UNL     1       1.277   7.748  22.590  0.00  0.00    +0.000 HD
ENDROOT
BRANCH   1  13
ATOM     12  C   UNL     1       0.369  12.960  18.559  0.00  0.00    +0.000 C 
ATOM     13  O   UNL     1      -0.021  11.596  18.685  0.00  0.00    +0.000 OA
ENDBRANCH   1  13
BRANCH   9  14
ATOM     14  C   UNL     1       1.959   8.908  18.250  0.00  0.00    +0.000 C 
ATOM     15  O   UNL     1       2.151   9.927  17.587  0.00  0.00    +0.000 OA
BRANCH  14  16
ATOM     16  O   UNL     1       2.150   7.653  17.759  0.00  0.00    +0.000 OA
BRANCH  16  17
ATOM     17  C   UNL     1       3.507   7.203  17.663  0.00  0.00    +0.000 C 
BRANCH  17  18
ATOM     18  C   UNL     1       3.662   5.685  17.826  0.00  0.00    +0.000 C 
ATOM     19  C   UNL     1       4.476   5.035  16.686  0.00  0.00    +0.000 C 
ATOM     20  C   UNL     1       4.678   3.539  16.990  0.00  0.00    +0.000 C 
ATOM     21  N   UNL     1       3.965   3.117  18.214  0.00  0.00    +0.000 NA
ATOM     22  C   UNL     1       2.531   3.442  18.069  0.00  0.00    +0.000 C 
ATOM     23  C   UNL     1       2.305   4.950  17.876  0.00  0.00    +0.000 C 
ATOM     24  C   UNL     1       4.498   3.865  19.369  0.00  0.00    +0.000 C 
ATOM     25  C   UNL     1       4.420   5.380  19.142  0.00  0.00    +0.000 C 
ENDBRANCH  17  18
ENDBRANCH  16  17
ENDBRANCH  14  16
ENDBRANCH   9  14
TORSDOF 5
ENDMDL
MODEL 5
REMARK VINA RESULT:      -7.0      2.094      2.662
REMARK  Name = 
REMARK  6 active torsions:
REMARK  status: ('A' for Active; 'I' for Inactive)
REMARK    1  A    between atoms: C_1  and  O_2
REMARK    2  A    between atoms: O_2  and  C_3
REMARK    3  A    between atoms: C_11  and  C_12
REMARK    4  A    between atoms: C_12  and  O_14
REMARK    5  A    between atoms: O_14  and  C_15
REMARK    6  A    between atoms: C_15  and  C_16
REMARK                            x       y       z     vdW  Elec       q    Type
REMARK                         _______ _______ _______ _____ _____    ______ ____
ROOT
ATOM      1  C   UNL     1      -1.730  10.633  18.230  0.00  0.00    +0.000 A 
ATOM      2  C   UNL     1      -2.947  11.314  18.419  0.00  0.00    +0.000 A 
ATOM      3  C   UNL     1      -3.154  12.119  19.531  0.00  0.00    +0.000 A 
ATOM      4 CL   UNL     1      -4.659  12.937  19.720  0.00  0.00    +0.000 Cl
ATOM      5  C   UNL     1      -2.170  12.272  20.501  0.00  0.00    +0.000 A 
ATOM      6  C   UNL     1      -0.974  11.565  20.328  0.00  0.00    +0.000 A 
ATOM      7  N   UNL     1       0.126  11.535  21.148  0.00  0.00    +0.000 N 
ATOM      8  C   UNL     1       1.076  10.711  20.625  0.00  0.00    +0.000 A 
ATOM      9  C   UNL     1       0.615  10.189  19.422  0.00  0.00    +0.000 A 
ATOM     10  C   UNL     1      -0.713  10.734  19.224  0.00  0.00    +0.000 A 
ATOM     11  H   UNL     1       0.215  12.051  22.014  0.00  0.00    +0.000 HD
ENDROOT
BRANCH   1  13
ATOM     12  C   UNL     1      -2.469   9.945  16.082  0.00  0.00    +0.000 C 
ATOM     13  O   UNL     1      -1.520   9.827  17.137  0.00  0.00    +0.000 OA
ENDBRANCH   1  13
BRANCH   9  14
ATOM     14  C   UNL     1       1.458   9.300  18.617  0.00  0.00    +0.000 C 
ATOM     15  O   UNL     1       1.767   9.572  17.457  0.00  0.00    +0.000 OA
BRANCH  14  16
ATOM     16  O   UNL     1       1.804   8.135  19.227  0.00  0.00    +0.000 OA
BRANCH  16  17
ATOM     17  C   UNL     1       2.713   7.284  18.516  0.00  0.00    +0.000 C 
BRANCH  17  18
ATOM     18  C   UNL     1       2.632   5.812  18.940  0.00  0.00    +0.000 C 
ATOM     19  C   UNL     1       4.021   5.155  19.105  0.00  0.00    +0.000 C 
ATOM     20  C   UNL     1       3.847   3.721  19.640  0.00  0.00    +0.000 C 
ATOM     21  N   UNL     1       2.425   3.334  19.750  0.00  0.00    +0.000 NA
ATOM     22  C   UNL     1       1.782   3.492  18.429  0.00  0.00    +0.000 C 
ATOM     23  C   UNL     1       1.848   4.944  17.931  0.00  0.00    +0.000 C 
ATOM     24  C   UNL     1       1.750   4.233  20.706  0.00  0.00    +0.000 C 
ATOM     25  C   UNL     1       1.925   5.706  20.314  0.00  0.00    +0.000 C 
ENDBRANCH  17  18
ENDBRANCH  16  17
ENDBRANCH  14  16
ENDBRANCH   9  14
TORSDOF 5
ENDMDL
MODEL 6
REMARK VINA RESULT:      -7.0      2.013      2.831
REMARK  Name = 
REMARK  6 active torsions:
REMARK  status: ('A' for Active; 'I' for Inactive)
REMARK    1  A    between atoms: C_1  and  O_2
REMARK    2  A    between atoms: O_2  and  C_3
REMARK    3  A    between atoms: C_11  and  C_12
REMARK    4  A    between atoms: C_12  and  O_14
REMARK    5  A    between atoms: O_14  and  C_15
REMARK    6  A    between atoms: C_15  and  C_16
REMARK                            x       y       z     vdW  Elec       q    Type
REMARK                         _______ _______ _______ _____ _____    ______ ____
ROOT
ATOM      1  C   UNL     1      -0.114   9.977  20.813  0.00  0.00    +0.000 A 
ATOM      2  C   UNL     1      -0.851  11.169  20.943  0.00  0.00    +0.000 A 
ATOM      3  C   UNL     1      -0.802  12.154  19.966  0.00  0.00    +0.000 A 
ATOM      4 CL   UNL     1      -1.724  13.595  20.166  0.00  0.00    +0.000 Cl
ATOM      5  C   UNL     1      -0.018  12.000  18.829  0.00  0.00    +0.000 A 
ATOM      6  C   UNL     1       0.742  10.829  18.719  0.00  0.00    +0.000 A 
ATOM      7  N   UNL     1       1.600  10.459  17.715  0.00  0.00    +0.000 N 
ATOM      8  C   UNL     1       2.154   9.247  17.995  0.00  0.00    +0.000 A 
ATOM      9  C   UNL     1       1.646   8.782  19.203  0.00  0.00    +0.000 A 
ATOM     10  C   UNL     1       0.734   9.802  19.680  0.00  0.00    +0.000 A 
ATOM     11  H   UNL     1       1.792  11.010  16.888  0.00  0.00    +0.000 HD
ENDROOT
BRANCH   1  13
ATOM     12  C   UNL     1       0.037   9.444  23.121  0.00  0.00    +0.000 C 
ATOM     13  O   UNL     1      -0.148   9.001  21.780  0.00  0.00    +0.000 OA
ENDBRANCH   1  13
BRANCH   9  14
ATOM     14  C   UNL     1       2.039   7.471  19.728  0.00  0.00    +0.000 C 
ATOM     15  O   UNL     1       1.640   7.061  20.817  0.00  0.00    +0.000 OA
BRANCH  14  16
ATOM     16  O   UNL     1       2.924   6.788  18.953  0.00  0.00    +0.000 OA
BRANCH  16  17
ATOM     17  C   UNL     1       2.373   5.823  18.048  0.00  0.00    +0.000 C 
BRANCH  17  18
ATOM     18  C   UNL     1       2.597   4.371  18.489  0.00  0.00    +0.000 C 
ATOM     19  C   UNL     1       3.763   4.218  19.490  0.00  0.00    +0.000 C 
ATOM     20  C   UNL     1       3.842   2.755  19.964  0.00  0.00    +0.000 C 
ATOM     21  N   UNL     1       2.865   1.889  19.269  0.00  0.00    +0.000 NA
ATOM     22  C   UNL     1       3.089   1.990  17.812  0.00  0.00    +0.000 C 
ATOM     23  C   UNL     1       2.904   3.429  17.304  0.00  0.00    +0.000 C 
ATOM     24  C   UNL     1       1.500   2.363  19.565  0.00  0.00    +0.000 C 
ATOM     25  C   UNL     1       1.328   3.845  19.203  0.00  0.00    +0.000 C 
ENDBRANCH  17  18
ENDBRANCH  16  17
ENDBRANCH  14  16
ENDBRANCH   9  14
TORSDOF 5
ENDMDL
MODEL 7
REMARK VINA RESULT:      -7.0      2.042      2.590
REMARK  Name = 
REMARK  6 active torsions:
REMARK  status: ('A' for Active; 'I' for Inactive)
REMARK    1  A    between atoms: C_1  and  O_2
REMARK    2  A    between atoms: O_2  and  C_3
REMARK    3  A    between atoms: C_11  and  C_12
REMARK    4  A    between atoms: C_12  and  O_14
REMARK    5  A    between atoms: O_14  and  C_15
REMARK    6  A    between atoms: C_15  and  C_16
REMARK                            x       y       z     vdW  Elec       q    Type
REMARK                         _______ _______ _______ _____ _____    ______ ____
ROOT
ATOM      1  C   UNL     1      -1.667  10.742  18.295  0.00  0.00    +0.000 A 
ATOM      2  C   UNL     1      -2.878  11.432  18.493  0.00  0.00    +0.000 A 
ATOM      3  C   UNL     1      -3.101  12.174  19.646  0.00  0.00    +0.000 A 
ATOM      4 CL   UNL     1      -4.597  13.006  19.844  0.00  0.00    +0.000 Cl
ATOM      5  C   UNL     1      -2.140  12.253  20.647  0.00  0.00    +0.000 A 
ATOM      6  C   UNL     1      -0.952  11.536  20.463  0.00  0.00    +0.000 A 
ATOM      7  N   UNL     1       0.126  11.439  21.307  0.00  0.00    +0.000 N 
ATOM      8  C   UNL     1       1.076  10.630  20.760  0.00  0.00    +0.000 A 
ATOM      9  C   UNL     1       0.638  10.187  19.518  0.00  0.00    +0.000 A 
ATOM     10  C   UNL     1      -0.675  10.766  19.318  0.00  0.00    +0.000 A 
ATOM     11  H   UNL     1       0.200  11.902  22.203  0.00  0.00    +0.000 HD
ENDROOT
BRANCH   1  13
ATOM     12  C   UNL     1      -2.518   9.936  16.231  0.00  0.00    +0.000 C 
ATOM     13  O   UNL     1      -1.442   9.997  17.163  0.00  0.00    +0.000 OA
ENDBRANCH   1  13
BRANCH   9  14
ATOM     14  C   UNL     1       1.487   9.333  18.683  0.00  0.00    +0.000 C 
ATOM     15  O   UNL     1       1.758   9.624  17.519  0.00  0.00    +0.000 OA
BRANCH  14  16
ATOM     16  O   UNL     1       1.884   8.173  19.273  0.00  0.00    +0.000 OA
BRANCH  16  17
ATOM     17  C   UNL     1       2.626   7.259  18.455  0.00  0.00    +0.000 C 
BRANCH  17  18
ATOM     18  C   UNL     1       2.593   5.813  18.967  0.00  0.00    +0.000 C 
ATOM     19  C   UNL     1       1.858   5.668  20.318  0.00  0.00    +0.000 C 
ATOM     20  C   UNL     1       1.773   4.177  20.697  0.00  0.00    +0.000 C 
ATOM     21  N   UNL     1       2.493   3.315  19.736  0.00  0.00    +0.000 NA
ATOM     22  C   UNL     1       3.898   3.764  19.651  0.00  0.00    +0.000 C 
ATOM     23  C   UNL     1       4.004   5.219  19.165  0.00  0.00    +0.000 C 
ATOM     24  C   UNL     1       1.878   3.454  18.403  0.00  0.00    +0.000 C 
ATOM     25  C   UNL     1       1.835   4.921  17.953  0.00  0.00    +0.000 C 
ENDBRANCH  17  18
ENDBRANCH  16  17
ENDBRANCH  14  16
ENDBRANCH   9  14
TORSDOF 5
ENDMDL
MODEL 8
REMARK VINA RESULT:      -7.0      2.145      3.255
REMARK  Name = 
REMARK  6 active torsions:
REMARK  status: ('A' for Active; 'I' for Inactive)
REMARK    1  A    between atoms: C_1  and  O_2
REMARK    2  A    between atoms: O_2  and  C_3
REMARK    3  A    between atoms: C_11  and  C_12
REMARK    4  A    between atoms: C_12  and  O_14
REMARK    5  A    between atoms: O_14  and  C_15
REMARK    6  A    between atoms: C_15  and  C_16
REMARK                            x       y       z     vdW  Elec       q    Type
REMARK                         _______ _______ _______ _____ _____    ______ ____
ROOT
ATOM      1  C   UNL     1      -0.263  10.264  20.834  0.00  0.00    +0.000 A 
ATOM      2  C   UNL     1      -0.948  11.487  20.959  0.00  0.00    +0.000 A 
ATOM      3  C   UNL     1      -0.811  12.487  20.006  0.00  0.00    +0.000 A 
ATOM      4 CL   UNL     1      -1.672  13.967  20.198  0.00  0.00    +0.000 Cl
ATOM      5  C   UNL     1       0.013  12.318  18.900  0.00  0.00    +0.000 A 
ATOM      6  C   UNL     1       0.720  11.114  18.796  0.00  0.00    +0.000 A 
ATOM      7  N   UNL     1       1.603  10.723  17.821  0.00  0.00    +0.000 N 
ATOM      8  C   UNL     1       2.086   9.480  18.098  0.00  0.00    +0.000 A 
ATOM      9  C   UNL     1       1.506   9.017  19.273  0.00  0.00    +0.000 A 
ATOM     10  C   UNL     1       0.623  10.070  19.734  0.00  0.00    +0.000 A 
ATOM     11  H   UNL     1       1.855  11.280  17.015  0.00  0.00    +0.000 HD
ENDROOT
BRANCH   1  13
ATOM     12  C   UNL     1      -0.126   9.657  23.125  0.00  0.00    +0.000 C 
ATOM     13  O   UNL     1      -0.384   9.273  21.778  0.00  0.00    +0.000 OA
ENDBRANCH   1  13
BRANCH   9  14
ATOM     14  C   UNL     1       1.813   7.679  19.786  0.00  0.00    +0.000 C 
ATOM     15  O   UNL     1       1.609   7.370  20.959  0.00  0.00    +0.000 OA
BRANCH  14  16
ATOM     16  O   UNL     1       2.402   6.845  18.887  0.00  0.00    +0.000 OA
BRANCH  16  17
ATOM     17  C   UNL     1       3.322   5.881  19.413  0.00  0.00    +0.000 C 
BRANCH  17  18
ATOM     18  C   UNL     1       2.765   4.451  19.437  0.00  0.00    +0.000 C 
ATOM     19  C   UNL     1       1.592   4.244  18.453  0.00  0.00    +0.000 C 
ATOM     20  C   UNL     1       1.174   2.762  18.460  0.00  0.00    +0.000 C 
ATOM     21  N   UNL     1       1.925   1.975  19.462  0.00  0.00    +0.000 NA
ATOM     22  C   UNL     1       1.735   2.589  20.793  0.00  0.00    +0.000 C 
ATOM     23  C   UNL     1       2.251   4.036  20.833  0.00  0.00    +0.000 C 
ATOM     24  C   UNL     1       3.362   2.014  19.132  0.00  0.00    +0.000 C 
ATOM     25  C   UNL     1       3.875   3.455  19.020  0.00  0.00    +0.000 C 
ENDBRANCH  17  18
ENDBRANCH  16  17
ENDBRANCH  14  16
ENDBRANCH   9  14
TORSDOF 5
ENDMDL
MODEL 9
REMARK VINA RESULT:      -6.9      1.889      2.643
REMARK  Name = 
REMARK  6 active torsions:
REMARK  status: ('A' for Active; 'I' for Inactive)
REMARK    1  A    between atoms: C_1  and  O_2
REMARK    2  A    between atoms: O_2  and  C_3
REMARK    3  A    between atoms: C_11  and  C_12
REMARK    4  A    between atoms: C_12  and  O_14
REMARK    5  A    between atoms: O_14  and  C_15
REMARK    6  A    between atoms: C_15  and  C_16
REMARK                            x       y       z     vdW  Elec       q    Type
REMARK                         _______ _______ _______ _____ _____    ______ ____
ROOT
ATOM      1  C   UNL     1      -0.991  10.791  19.111  0.00  0.00    +0.000 A 
ATOM      2  C   UNL     1      -2.008  11.743  19.315  0.00  0.00    +0.000 A 
ATOM      3  C   UNL     1      -2.271  12.253  20.579  0.00  0.00    +0.000 A 
ATOM      4 CL   UNL     1      -3.524  13.419  20.780  0.00  0.00    +0.000 Cl
ATOM      5  C   UNL     1      -1.544  11.836  21.687  0.00  0.00    +0.000 A 
ATOM      6  C   UNL     1      -0.557  10.864  21.488  0.00  0.00    +0.000 A 
ATOM      7  N   UNL     1       0.269  10.282  22.416  0.00  0.00    +0.000 N 
ATOM      8  C   UNL     1       1.080   9.370  21.813  0.00  0.00    +0.000 A 
ATOM      9  C   UNL     1       0.809   9.348  20.450  0.00  0.00    +0.000 A 
ATOM     10  C   UNL     1      -0.253  10.310  20.231  0.00  0.00    +0.000 A 
ATOM     11  H   UNL     1       0.271  10.501  23.404  0.00  0.00    +0.000 HD
ENDROOT
BRANCH   1  13
ATOM     12  C   UNL     1      -1.869   9.933  17.080  0.00  0.00    +0.000 C 
ATOM     13  O   UNL     1      -0.731  10.273  17.865  0.00  0.00    +0.000 OA
ENDBRANCH   1  13
BRANCH   9  14
ATOM     14  C   UNL     1       1.572   8.484  19.546  0.00  0.00    +0.000 C 
ATOM     15  O   UNL     1       1.807   8.806  18.382  0.00  0.00    +0.000 OA
BRANCH  14  16
ATOM     16  O   UNL     1       1.932   7.282  20.074  0.00  0.00    +0.000 OA
BRANCH  16  17
ATOM     17  C   UNL     1       2.703   6.417  19.230  0.00  0.00    +0.000 C 
BRANCH  17  18
ATOM     18  C   UNL     1       2.361   4.931  19.401  0.00  0.00    +0.000 C 
ATOM     19  C   UNL     1       1.656   4.328  18.166  0.00  0.00    +0.000 C 
ATOM     20  C   UNL     1       1.456   2.815  18.379  0.00  0.00    +0.000 C 
ATOM     21  N   UNL     1       1.891   2.378  19.723  0.00  0.00    +0.000 NA
ATOM     22  C   UNL     1       1.160   3.161  20.741  0.00  0.00    +0.000 C 
ATOM     23  C   UNL     1       1.438   4.668  20.611  0.00  0.00    +0.000 C 
ATOM     24  C   UNL     1       3.334   2.646  19.878  0.00  0.00    +0.000 C 
ATOM     25  C   UNL     1       3.665   4.120  19.608  0.00  0.00    +0.000 C 
ENDBRANCH  17  18
ENDBRANCH  16  17
ENDBRANCH  14  16
ENDBRANCH   9  14
TORSDOF 5
ENDMDL
