MODEL 1
REMARK VINA RESULT:      -8.9      0.000      0.000
REMARK  Name = 
REMARK  6 active torsions:
REMARK  status: ('A' for Active; 'I' for Inactive)
REMARK    1  A    between atoms: C_1  and  C_2
REMARK    2  A    between atoms: C_2  and  O_4
REMARK    3  A    between atoms: O_4  and  C_5
REMARK    4  A    between atoms: N_19  and  C_20
REMARK    5  A    between atoms: C_20  and  C_21
REMARK    6  A    between atoms: C_21  and  C_22
REMARK                            x       y       z     vdW  Elec       q    Type
REMARK                         _______ _______ _______ _____ _____    ______ ____
ROOT
ATOM      1  C   UNL     1       6.221   5.255  16.773  0.00  0.00    +0.000 A 
ATOM      2  C   UNL     1       5.451   6.355  16.413  0.00  0.00    +0.000 A 
ATOM      3  C   UNL     1       4.263   6.640  17.078  0.00  0.00    +0.000 A 
ATOM      4  C   UNL     1       3.848   5.775  18.103  0.00  0.00    +0.000 A 
ATOM      5  C   UNL     1       4.588   4.636  18.458  0.00  0.00    +0.000 A 
ATOM      6  C   UNL     1       5.800   4.371  17.774  0.00  0.00    +0.000 A 
ATOM      7  C   UNL     1       3.855   3.979  19.485  0.00  0.00    +0.000 A 
ATOM      8  C   UNL     1       4.113   2.764  20.208  0.00  0.00    +0.000 A 
ATOM      9  O   UNL     1       5.098   2.071  19.980  0.00  0.00    +0.000 OA
ATOM     10  O   UNL     1       3.220   2.378  21.163  0.00  0.00    +0.000 OA
ATOM     11  C   UNL     1       2.120   3.115  21.420  0.00  0.00    +0.000 A 
ATOM     12  O   UNL     1       1.288   2.824  22.260  0.00  0.00    +0.000 OA
ATOM     13  N   UNL     1       1.859   4.301  20.685  0.00  0.00    +0.000 N 
ATOM     14  C   UNL     1       2.737   4.723  19.732  0.00  0.00    +0.000 A 
ATOM     15  N   UNL     1       2.722   5.821  18.918  0.00  0.00    +0.000 N 
ATOM     16  H   UNL     1       1.025   4.801  20.947  0.00  0.00    +0.000 HD
ENDROOT
BRANCH   1  17
ATOM     17  O   UNL     1       7.377   4.925  16.040  0.00  0.00    +0.000 OA
BRANCH  17  19
ATOM     18  C   UNL     1       6.281   3.825  14.265  0.00  0.00    +0.000 C 
ATOM     19  C   UNL     1       7.264   4.888  14.649  0.00  0.00    +0.000 C 
ATOM     20  O   UNL     1       7.834   5.621  13.851  0.00  0.00    +0.000 OA
ENDBRANCH  17  19
ENDBRANCH   1  17
BRANCH  15  21
ATOM     21  C   UNL     1       1.719   6.870  18.806  0.00  0.00    +0.000 C 
BRANCH  21  22
ATOM     22  C   UNL     1       2.102   8.295  19.218  0.00  0.00    +0.000 C 
BRANCH  22  23
ATOM     23  C   UNL     1       1.224   8.944  20.262  0.00  0.00    +0.000 A 
ATOM     24  C   UNL     1       1.227   8.534  21.604  0.00  0.00    +0.000 A 
ATOM     25  C   UNL     1       0.404   9.160  22.541  0.00  0.00    +0.000 A 
ATOM     26  C   UNL     1      -0.415  10.217  22.156  0.00  0.00    +0.000 A 
ATOM     27  C   UNL     1      -0.401  10.660  20.836  0.00  0.00    +0.000 A 
ATOM     28  C   UNL     1       0.418  10.033  19.896  0.00  0.00    +0.000 A 
ENDBRANCH  22  23
ENDBRANCH  21  22
ENDBRANCH  15  21
TORSDOF 5
ENDMDL
MODEL 2
REMARK VINA RESULT:      -8.9      0.918      1.221
REMARK  Name = 
REMARK  6 active torsions:
REMARK  status: ('A' for Active; 'I' for Inactive)
REMARK    1  A    between atoms: C_1  and  C_2
REMARK    2  A    between atoms: C_2  and  O_4
REMARK    3  A    between atoms: O_4  and  C_5
REMARK    4  A    between atoms: N_19  and  C_20
REMARK    5  A    between atoms: C_20  and  C_21
REMARK    6  A    between atoms: C_21  and  C_22
REMARK                            x       y       z     vdW  Elec       q    Type
REMARK                         _______ _______ _______ _____ _____    ______ ____
ROOT
ATOM      1  C   UNL     1       5.336   6.212  16.597  0.00  0.00    +0.000 A 
ATOM      2  C   UNL     1       4.583   7.378  16.654  0.00  0.00    +0.000 A 
ATOM      3  C   UNL     1       3.590   7.539  17.614  0.00  0.00    +0.000 A 
ATOM      4  C   UNL     1       3.350   6.482  18.508  0.00  0.00    +0.000 A 
ATOM      5  C   UNL     1       4.071   5.280  18.446  0.00  0.00    +0.000 A 
ATOM      6  C   UNL     1       5.085   5.143  17.466  0.00  0.00    +0.000 A 
ATOM      7  C   UNL     1       3.537   4.433  19.457  0.00  0.00    +0.000 A 
ATOM      8  C   UNL     1       3.863   3.087  19.840  0.00  0.00    +0.000 A 
ATOM      9  O   UNL     1       4.726   2.439  19.257  0.00  0.00    +0.000 OA
ATOM     10  O   UNL     1       3.175   2.523  20.873  0.00  0.00    +0.000 OA
ATOM     11  C   UNL     1       2.210   3.211  21.517  0.00  0.00    +0.000 A 
ATOM     12  O   UNL     1       1.563   2.763  22.447  0.00  0.00    +0.000 OA
ATOM     13  N   UNL     1       1.876   4.530  21.118  0.00  0.00    +0.000 N 
ATOM     14  C   UNL     1       2.551   5.129  20.097  0.00  0.00    +0.000 A 
ATOM     15  N   UNL     1       2.434   6.376  19.549  0.00  0.00    +0.000 N 
ATOM     16  H   UNL     1       1.154   4.980  21.659  0.00  0.00    +0.000 HD
ENDROOT
BRANCH   1  17
ATOM     17  O   UNL     1       6.281   6.023  15.570  0.00  0.00    +0.000 OA
BRANCH  17  19
ATOM     18  C   UNL     1       6.328   3.938  14.468  0.00  0.00    +0.000 C 
ATOM     19  C   UNL     1       6.945   4.796  15.531  0.00  0.00    +0.000 C 
ATOM     20  O   UNL     1       7.904   4.463  16.215  0.00  0.00    +0.000 OA
ENDBRANCH  17  19
ENDBRANCH   1  17
BRANCH  15  21
ATOM     21  C   UNL     1       1.504   7.445  19.884  0.00  0.00    +0.000 C 
BRANCH  21  22
ATOM     22  C   UNL     1       1.419   7.911  21.340  0.00  0.00    +0.000 C 
BRANCH  22  23
ATOM     23  C   UNL     1       0.527   9.100  21.607  0.00  0.00    +0.000 A 
ATOM     24  C   UNL     1       0.011   9.378  22.881  0.00  0.00    +0.000 A 
ATOM     25  C   UNL     1      -0.809  10.489  23.090  0.00  0.00    +0.000 A 
ATOM     26  C   UNL     1      -1.104  11.348  22.036  0.00  0.00    +0.000 A 
ATOM     27  C   UNL     1      -0.568  11.106  20.774  0.00  0.00    +0.000 A 
ATOM     28  C   UNL     1       0.247   9.994  20.561  0.00  0.00    +0.000 A 
ENDBRANCH  22  23
ENDBRANCH  21  22
ENDBRANCH  15  21
TORSDOF 5
ENDMDL
MODEL 3
REMARK VINA RESULT:      -8.8      1.119      1.611
REMARK  Name = 
REMARK  6 active torsions:
REMARK  status: ('A' for Active; 'I' for Inactive)
REMARK    1  A    between atoms: C_1  and  C_2
REMARK    2  A    between atoms: C_2  and  O_4
REMARK    3  A    between atoms: O_4  and  C_5
REMARK    4  A    between atoms: N_19  and  C_20
REMARK    5  A    between atoms: C_20  and  C_21
REMARK    6  A    between atoms: C_21  and  C_22
REMARK                            x       y       z     vdW  Elec       q    Type
REMARK                         _______ _______ _______ _____ _____    ______ ____
ROOT
ATOM      1  C   UNL     1       4.876   6.044  16.265  0.00  0.00    +0.000 A 
ATOM      2  C   UNL     1       4.491   7.324  16.643  0.00  0.00    +0.000 A 
ATOM      3  C   UNL     1       3.752   7.533  17.803  0.00  0.00    +0.000 A 
ATOM      4  C   UNL     1       3.382   6.414  18.568  0.00  0.00    +0.000 A 
ATOM      5  C   UNL     1       3.726   5.108  18.186  0.00  0.00    +0.000 A 
ATOM      6  C   UNL     1       4.488   4.921  17.007  0.00  0.00    +0.000 A 
ATOM      7  C   UNL     1       3.153   4.238  19.156  0.00  0.00    +0.000 A 
ATOM      8  C   UNL     1       3.156   2.805  19.266  0.00  0.00    +0.000 A 
ATOM      9  O   UNL     1       3.701   2.092  18.431  0.00  0.00    +0.000 OA
ATOM     10  O   UNL     1       2.520   2.237  20.329  0.00  0.00    +0.000 OA
ATOM     11  C   UNL     1       1.899   3.000  21.252  0.00  0.00    +0.000 A 
ATOM     12  O   UNL     1       1.316   2.552  22.223  0.00  0.00    +0.000 OA
ATOM     13  N   UNL     1       1.879   4.413  21.123  0.00  0.00    +0.000 N 
ATOM     14  C   UNL     1       2.515   5.015  20.079  0.00  0.00    +0.000 A 
ATOM     15  N   UNL     1       2.656   6.335  19.751  0.00  0.00    +0.000 N 
ATOM     16  H   UNL     1       1.407   4.911  21.861  0.00  0.00    +0.000 HD
ENDROOT
BRANCH   1  17
ATOM     17  O   UNL     1       5.551   5.833  15.048  0.00  0.00    +0.000 OA
BRANCH  17  19
ATOM     18  C   UNL     1       6.261   3.833  14.017  0.00  0.00    +0.000 C 
ATOM     19  C   UNL     1       6.574   4.883  15.040  0.00  0.00    +0.000 C 
ATOM     20  O   UNL     1       7.592   4.901  15.720  0.00  0.00    +0.000 OA
ENDBRANCH  17  19
ENDBRANCH   1  17
BRANCH  15  21
ATOM     21  C   UNL     1       2.123   7.512  20.421  0.00  0.00    +0.000 C 
BRANCH  21  22
ATOM     22  C   UNL     1       0.646   7.518  20.828  0.00  0.00    +0.000 C 
BRANCH  22  23
ATOM     23  C   UNL     1       0.091   8.841  21.296  0.00  0.00    +0.000 A 
ATOM     24  C   UNL     1      -0.175   9.897  20.412  0.00  0.00    +0.000 A 
ATOM     25  C   UNL     1      -0.692  11.106  20.882  0.00  0.00    +0.000 A 
ATOM     26  C   UNL     1      -0.972  11.267  22.236  0.00  0.00    +0.000 A 
ATOM     27  C   UNL     1      -0.749  10.215  23.120  0.00  0.00    +0.000 A 
ATOM     28  C   UNL     1      -0.228   9.007  22.653  0.00  0.00    +0.000 A 
ENDBRANCH  22  23
ENDBRANCH  21  22
ENDBRANCH  15  21
TORSDOF 5
ENDMDL
MODEL 4
REMARK VINA RESULT:      -8.7      1.642      2.053
REMARK  Name = 
REMARK  6 active torsions:
REMARK  status: ('A' for Active; 'I' for Inactive)
REMARK    1  A    between atoms: C_1  and  C_2
REMARK    2  A    between atoms: C_2  and  O_4
REMARK    3  A    between atoms: O_4  and  C_5
REMARK    4  A    between atoms: N_19  and  C_20
REMARK    5  A    between atoms: C_20  and  C_21
REMARK    6  A    between atoms: C_21  and  C_22
REMARK                            x       y       z     vdW  Elec       q    Type
REMARK                         _______ _______ _______ _____ _____    ______ ____
ROOT
ATOM      1  C   UNL     1       5.896   4.418  15.186  0.00  0.00    +0.000 A 
ATOM      2  C   UNL     1       5.800   5.804  15.200  0.00  0.00    +0.000 A 
ATOM      3  C   UNL     1       5.035   6.456  16.162  0.00  0.00    +0.000 A 
ATOM      4  C   UNL     1       4.343   5.676  17.103  0.00  0.00    +0.000 A 
ATOM      5  C   UNL     1       4.393   4.274  17.086  0.00  0.00    +0.000 A 
ATOM      6  C   UNL     1       5.187   3.633  16.104  0.00  0.00    +0.000 A 
ATOM      7  C   UNL     1       3.547   3.824  18.138  0.00  0.00    +0.000 A 
ATOM      8  C   UNL     1       3.195   2.501  18.576  0.00  0.00    +0.000 A 
ATOM      9  O   UNL     1       3.622   1.499  18.013  0.00  0.00    +0.000 OA
ATOM     10  O   UNL     1       2.352   2.374  19.639  0.00  0.00    +0.000 OA
ATOM     11  C   UNL     1       1.856   3.463  20.262  0.00  0.00    +0.000 A 
ATOM     12  O   UNL     1       1.101   3.414  21.217  0.00  0.00    +0.000 OA
ATOM     13  N   UNL     1       2.188   4.766  19.809  0.00  0.00    +0.000 N 
ATOM     14  C   UNL     1       3.038   4.930  18.757  0.00  0.00    +0.000 A 
ATOM     15  N   UNL     1       3.519   6.060  18.156  0.00  0.00    +0.000 N 
ATOM     16  H   UNL     1       1.789   5.526  20.337  0.00  0.00    +0.000 HD
ENDROOT
BRANCH   1  17
ATOM     17  O   UNL     1       6.602   3.763  14.159  0.00  0.00    +0.000 OA
BRANCH  17  19
ATOM     18  C   UNL     1       7.060   3.736  11.846  0.00  0.00    +0.000 C 
ATOM     19  C   UNL     1       5.998   3.708  12.902  0.00  0.00    +0.000 C 
ATOM     20  O   UNL     1       4.799   3.613  12.672  0.00  0.00    +0.000 OA
ENDBRANCH  17  19
ENDBRANCH   1  17
BRANCH  15  21
ATOM     21  C   UNL     1       3.230   7.455  18.454  0.00  0.00    +0.000 C 
BRANCH  21  22
ATOM     22  C   UNL     1       2.029   8.115  17.771  0.00  0.00    +0.000 C 
BRANCH  22  23
ATOM     23  C   UNL     1       1.172   9.001  18.644  0.00  0.00    +0.000 A 
ATOM     24  C   UNL     1       0.232   9.896  18.109  0.00  0.00    +0.000 A 
ATOM     25  C   UNL     1      -0.545  10.697  18.948  0.00  0.00    +0.000 A 
ATOM     26  C   UNL     1      -0.411  10.598  20.330  0.00  0.00    +0.000 A 
ATOM     27  C   UNL     1       0.491   9.688  20.875  0.00  0.00    +0.000 A 
ATOM     28  C   UNL     1       1.272   8.890  20.039  0.00  0.00    +0.000 A 
ENDBRANCH  22  23
ENDBRANCH  21  22
ENDBRANCH  15  21
TORSDOF 5
ENDMDL
MODEL 5
REMARK VINA RESULT:      -8.7      0.754      1.261
REMARK  Name = 
REMARK  6 active torsions:
REMARK  status: ('A' for Active; 'I' for Inactive)
REMARK    1  A    between atoms: C_1  and  C_2
REMARK    2  A    between atoms: C_2  and  O_4
REMARK    3  A    between atoms: O_4  and  C_5
REMARK    4  A    between atoms: N_19  and  C_20
REMARK    5  A    between atoms: C_20  and  C_21
REMARK    6  A    between atoms: C_21  and  C_22
REMARK                            x       y       z     vdW  Elec       q    Type
REMARK                         _______ _______ _______ _____ _____    ______ ____
ROOT
ATOM      1  C   UNL     1       6.195   5.266  16.584  0.00  0.00    +0.000 A 
ATOM      2  C   UNL     1       5.568   6.498  16.439  0.00  0.00    +0.000 A 
ATOM      3  C   UNL     1       4.513   6.861  17.269  0.00  0.00    +0.000 A 
ATOM      4  C   UNL     1       4.079   5.942  18.238  0.00  0.00    +0.000 A 
ATOM      5  C   UNL     1       4.671   4.677  18.377  0.00  0.00    +0.000 A 
ATOM      6  C   UNL     1       5.751   4.333  17.529  0.00  0.00    +0.000 A 
ATOM      7  C   UNL     1       3.957   4.006  19.409  0.00  0.00    +0.000 A 
ATOM      8  C   UNL     1       4.100   2.687  19.962  0.00  0.00    +0.000 A 
ATOM      9  O   UNL     1       4.939   1.898  19.544  0.00  0.00    +0.000 OA
ATOM     10  O   UNL     1       3.262   2.314  20.970  0.00  0.00    +0.000 OA
ATOM     11  C   UNL     1       2.320   3.159  21.435  0.00  0.00    +0.000 A 
ATOM     12  O   UNL     1       1.545   2.885  22.334  0.00  0.00    +0.000 OA
ATOM     13  N   UNL     1       2.168   4.451  20.868  0.00  0.00    +0.000 N 
ATOM     14  C   UNL     1       2.996   4.862  19.867  0.00  0.00    +0.000 A 
ATOM     15  N   UNL     1       3.063   6.043  19.183  0.00  0.00    +0.000 N 
ATOM     16  H   UNL     1       1.451   5.026  21.281  0.00  0.00    +0.000 HD
ENDROOT
BRANCH   1  17
ATOM     17  O   UNL     1       7.206   4.871  15.686  0.00  0.00    +0.000 OA
BRANCH  17  19
ATOM     18  C   UNL     1       7.816   5.228  13.436  0.00  0.00    +0.000 C 
ATOM     19  C   UNL     1       6.824   4.605  14.370  0.00  0.00    +0.000 C 
ATOM     20  O   UNL     1       5.861   3.940  14.010  0.00  0.00    +0.000 OA
ENDBRANCH  17  19
ENDBRANCH   1  17
BRANCH  15  21
ATOM     21  C   UNL     1       2.226   7.227  19.305  0.00  0.00    +0.000 C 
BRANCH  21  22
ATOM     22  C   UNL     1       1.777   7.665  20.702  0.00  0.00    +0.000 C 
BRANCH  22  23
ATOM     23  C   UNL     1       0.921   8.907  20.768  0.00  0.00    +0.000 A 
ATOM     24  C   UNL     1       0.645   9.687  19.634  0.00  0.00    +0.000 A 
ATOM     25  C   UNL     1      -0.153  10.828  19.733  0.00  0.00    +0.000 A 
ATOM     26  C   UNL     1      -0.704  11.192  20.958  0.00  0.00    +0.000 A 
ATOM     27  C   UNL     1      -0.469  10.407  22.084  0.00  0.00    +0.000 A 
ATOM     28  C   UNL     1       0.332   9.269  21.989  0.00  0.00    +0.000 A 
ENDBRANCH  22  23
ENDBRANCH  21  22
ENDBRANCH  15  21
TORSDOF 5
ENDMDL
MODEL 6
REMARK VINA RESULT:      -8.6      2.658      7.194
REMARK  Name = 
REMARK  6 active torsions:
REMARK  status: ('A' for Active; 'I' for Inactive)
REMARK    1  A    between atoms: C_1  and  C_2
REMARK    2  A    between atoms: C_2  and  O_4
REMARK    3  A    between atoms: O_4  and  C_5
REMARK    4  A    between atoms: N_19  and  C_20
REMARK    5  A    between atoms: C_20  and  C_21
REMARK    6  A    between atoms: C_21  and  C_22
REMARK                            x       y       z     vdW  Elec       q    Type
REMARK                         _______ _______ _______ _____ _____    ______ ____
ROOT
ATOM      1  C   UNL     1       2.051   8.102  18.970  0.00  0.00    +0.000 A 
ATOM      2  C   UNL     1       2.843   8.363  17.859  0.00  0.00    +0.000 A 
ATOM      3  C   UNL     1       3.740   7.411  17.384  0.00  0.00    +0.000 A 
ATOM      4  C   UNL     1       3.842   6.190  18.071  0.00  0.00    +0.000 A 
ATOM      5  C   UNL     1       3.080   5.919  19.218  0.00  0.00    +0.000 A 
ATOM      6  C   UNL     1       2.167   6.899  19.677  0.00  0.00    +0.000 A 
ATOM      7  C   UNL     1       3.473   4.627  19.670  0.00  0.00    +0.000 A 
ATOM      8  C   UNL     1       3.053   3.848  20.802  0.00  0.00    +0.000 A 
ATOM      9  O   UNL     1       2.227   4.267  21.605  0.00  0.00    +0.000 OA
ATOM     10  O   UNL     1       3.607   2.616  20.980  0.00  0.00    +0.000 OA
ATOM     11  C   UNL     1       4.530   2.141  20.119  0.00  0.00    +0.000 A 
ATOM     12  O   UNL     1       5.060   1.049  20.224  0.00  0.00    +0.000 OA
ATOM     13  N   UNL     1       4.959   2.927  19.017  0.00  0.00    +0.000 N 
ATOM     14  C   UNL     1       4.417   4.158  18.802  0.00  0.00    +0.000 A 
ATOM     15  N   UNL     1       4.642   5.081  17.819  0.00  0.00    +0.000 N 
ATOM     16  H   UNL     1       5.640   2.495  18.413  0.00  0.00    +0.000 HD
ENDROOT
BRANCH   1  17
ATOM     17  O   UNL     1       1.209   9.101  19.495  0.00  0.00    +0.000 OA
BRANCH  17  19
ATOM     18  C   UNL     1       1.171  11.365  18.835  0.00  0.00    +0.000 C 
ATOM     19  C   UNL     1       0.629   9.990  18.587  0.00  0.00    +0.000 C 
ATOM     20  O   UNL     1      -0.165   9.711  17.698  0.00  0.00    +0.000 OA
ENDBRANCH  17  19
ENDBRANCH   1  17
BRANCH  15  21
ATOM     21  C   UNL     1       5.577   5.029  16.705  0.00  0.00    +0.000 C 
BRANCH  21  22
ATOM     22  C   UNL     1       5.412   3.921  15.661  0.00  0.00    +0.000 C 
BRANCH  22  23
ATOM     23  C   UNL     1       6.127   4.132  14.348  0.00  0.00    +0.000 A 
ATOM     24  C   UNL     1       5.749   3.464  13.173  0.00  0.00    +0.000 A 
ATOM     25  C   UNL     1       6.432   3.686  11.976  0.00  0.00    +0.000 A 
ATOM     26  C   UNL     1       7.484   4.596  11.931  0.00  0.00    +0.000 A 
ATOM     27  C   UNL     1       7.846   5.295  13.079  0.00  0.00    +0.000 A 
ATOM     28  C   UNL     1       7.168   5.071  14.278  0.00  0.00    +0.000 A 
ENDBRANCH  22  23
ENDBRANCH  21  22
ENDBRANCH  15  21
TORSDOF 5
ENDMDL
MODEL 7
REMARK VINA RESULT:      -8.6      1.104      1.451
REMARK  Name = 
REMARK  6 active torsions:
REMARK  status: ('A' for Active; 'I' for Inactive)
REMARK    1  A    between atoms: C_1  and  C_2
REMARK    2  A    between atoms: C_2  and  O_4
REMARK    3  A    between atoms: O_4  and  C_5
REMARK    4  A    between atoms: N_19  and  C_20
REMARK    5  A    between atoms: C_20  and  C_21
REMARK    6  A    between atoms: C_21  and  C_22
REMARK                            x       y       z     vdW  Elec       q    Type
REMARK                         _______ _______ _______ _____ _____    ______ ____
ROOT
ATOM      1  C   UNL     1       5.106   4.940  15.710  0.00  0.00    +0.000 A 
ATOM      2  C   UNL     1       4.985   6.297  15.984  0.00  0.00    +0.000 A 
ATOM      3  C   UNL     1       4.364   6.735  17.150  0.00  0.00    +0.000 A 
ATOM      4  C   UNL     1       3.841   5.772  18.028  0.00  0.00    +0.000 A 
ATOM      5  C   UNL     1       3.917   4.398  17.754  0.00  0.00    +0.000 A 
ATOM      6  C   UNL     1       4.563   3.975  16.567  0.00  0.00    +0.000 A 
ATOM      7  C   UNL     1       3.252   3.734  18.822  0.00  0.00    +0.000 A 
ATOM      8  C   UNL     1       2.998   2.340  19.064  0.00  0.00    +0.000 A 
ATOM      9  O   UNL     1       3.354   1.472  18.275  0.00  0.00    +0.000 OA
ATOM     10  O   UNL     1       2.331   1.991  20.200  0.00  0.00    +0.000 OA
ATOM     11  C   UNL     1       1.915   2.931  21.073  0.00  0.00    +0.000 A 
ATOM     12  O   UNL     1       1.317   2.681  22.105  0.00  0.00    +0.000 OA
ATOM     13  N   UNL     1       2.146   4.307  20.816  0.00  0.00    +0.000 N 
ATOM     14  C   UNL     1       2.821   4.691  19.696  0.00  0.00    +0.000 A 
ATOM     15  N   UNL     1       3.181   5.928  19.243  0.00  0.00    +0.000 N 
ATOM     16  H   UNL     1       1.817   4.944  21.525  0.00  0.00    +0.000 HD
ENDROOT
BRANCH   1  17
ATOM     17  O   UNL     1       5.660   4.507  14.490  0.00  0.00    +0.000 OA
BRANCH  17  19
ATOM     18  C   UNL     1       7.262   4.648  12.764  0.00  0.00    +0.000 C 
ATOM     19  C   UNL     1       6.977   4.881  14.216  0.00  0.00    +0.000 C 
ATOM     20  O   UNL     1       7.778   5.362  15.008  0.00  0.00    +0.000 OA
ENDBRANCH  17  19
ENDBRANCH   1  17
BRANCH  15  21
ATOM     21  C   UNL     1       2.913   7.236  19.824  0.00  0.00    +0.000 C 
BRANCH  21  22
ATOM     22  C   UNL     1       1.730   8.046  19.287  0.00  0.00    +0.000 C 
BRANCH  22  23
ATOM     23  C   UNL     1       1.001   8.905  20.293  0.00  0.00    +0.000 A 
ATOM     24  C   UNL     1       0.179   9.975  19.908  0.00  0.00    +0.000 A 
ATOM     25  C   UNL     1      -0.482  10.745  20.867  0.00  0.00    +0.000 A 
ATOM     26  C   UNL     1      -0.350  10.442  22.219  0.00  0.00    +0.000 A 
ATOM     27  C   UNL     1       0.432   9.360  22.614  0.00  0.00    +0.000 A 
ATOM     28  C   UNL     1       1.097   8.592  21.657  0.00  0.00    +0.000 A 
ENDBRANCH  22  23
ENDBRANCH  21  22
ENDBRANCH  15  21
TORSDOF 5
ENDMDL
MODEL 8
REMARK VINA RESULT:      -8.5      1.307      1.498
REMARK  Name = 
REMARK  6 active torsions:
REMARK  status: ('A' for Active; 'I' for Inactive)
REMARK    1  A    between atoms: C_1  and  C_2
REMARK    2  A    between atoms: C_2  and  O_4
REMARK    3  A    between atoms: O_4  and  C_5
REMARK    4  A    between atoms: N_19  and  C_20
REMARK    5  A    between atoms: C_20  and  C_21
REMARK    6  A    between atoms: C_21  and  C_22
REMARK                            x       y       z     vdW  Elec       q    Type
REMARK                         _______ _______ _______ _____ _____    ______ ____
ROOT
ATOM      1  C   UNL     1       6.470   4.955  16.229  0.00  0.00    +0.000 A 
ATOM      2  C   UNL     1       6.283   6.316  16.439  0.00  0.00    +0.000 A 
ATOM      3  C   UNL     1       5.264   6.776  17.267  0.00  0.00    +0.000 A 
ATOM      4  C   UNL     1       4.414   5.831  17.866  0.00  0.00    +0.000 A 
ATOM      5  C   UNL     1       4.559   4.454  17.638  0.00  0.00    +0.000 A 
ATOM      6  C   UNL     1       5.609   4.009  16.800  0.00  0.00    +0.000 A 
ATOM      7  C   UNL     1       3.511   3.812  18.356  0.00  0.00    +0.000 A 
ATOM      8  C   UNL     1       3.149   2.426  18.473  0.00  0.00    +0.000 A 
ATOM      9  O   UNL     1       3.766   1.545  17.885  0.00  0.00    +0.000 OA
ATOM     10  O   UNL     1       2.081   2.100  19.254  0.00  0.00    +0.000 OA
ATOM     11  C   UNL     1       1.377   3.055  19.897  0.00  0.00    +0.000 A 
ATOM     12  O   UNL     1       0.416   2.826  20.608  0.00  0.00    +0.000 OA
ATOM     13  N   UNL     1       1.724   4.423  19.756  0.00  0.00    +0.000 N 
ATOM     14  C   UNL     1       2.794   4.784  18.994  0.00  0.00    +0.000 A 
ATOM     15  N   UNL     1       3.334   6.010  18.723  0.00  0.00    +0.000 N 
ATOM     16  H   UNL     1       1.158   5.072  20.280  0.00  0.00    +0.000 HD
ENDROOT
BRANCH   1  17
ATOM     17  O   UNL     1       7.448   4.501  15.324  0.00  0.00    +0.000 OA
BRANCH  17  19
ATOM     18  C   UNL     1       6.186   3.874  13.433  0.00  0.00    +0.000 C 
ATOM     19  C   UNL     1       7.247   4.784  13.972  0.00  0.00    +0.000 C 
ATOM     20  O   UNL     1       7.806   5.655  13.317  0.00  0.00    +0.000 OA
ENDBRANCH  17  19
ENDBRANCH   1  17
BRANCH  15  21
ATOM     21  C   UNL     1       2.890   7.327  19.156  0.00  0.00    +0.000 C 
BRANCH  21  22
ATOM     22  C   UNL     1       2.115   8.201  18.165  0.00  0.00    +0.000 C 
BRANCH  22  23
ATOM     23  C   UNL     1       1.072   9.117  18.760  0.00  0.00    +0.000 A 
ATOM     24  C   UNL     1       0.939   9.302  20.144  0.00  0.00    +0.000 A 
ATOM     25  C   UNL     1      -0.035  10.160  20.658  0.00  0.00    +0.000 A 
ATOM     26  C   UNL     1      -0.874  10.860  19.796  0.00  0.00    +0.000 A 
ATOM     27  C   UNL     1      -0.730  10.715  18.419  0.00  0.00    +0.000 A 
ATOM     28  C   UNL     1       0.241   9.854  17.903  0.00  0.00    +0.000 A 
ENDBRANCH  22  23
ENDBRANCH  21  22
ENDBRANCH  15  21
TORSDOF 5
ENDMDL
MODEL 9
REMARK VINA RESULT:      -8.5      1.055      1.426
REMARK  Name = 
REMARK  6 active torsions:
REMARK  status: ('A' for Active; 'I' for Inactive)
REMARK    1  A    between atoms: C_1  and  C_2
REMARK    2  A    between atoms: C_2  and  O_4
REMARK    3  A    between atoms: O_4  and  C_5
REMARK    4  A    between atoms: N_19  and  C_20
REMARK    5  A    between atoms: C_20  and  C_21
REMARK    6  A    between atoms: C_21  and  C_22
REMARK                            x       y       z     vdW  Elec       q    Type
REMARK                         _______ _______ _______ _____ _____    ______ ____
ROOT
ATOM      1  C   UNL     1       6.174   4.877  16.035  0.00  0.00    +0.000 A 
ATOM      2  C   UNL     1       5.815   6.219  16.015  0.00  0.00    +0.000 A 
ATOM      3  C   UNL     1       4.760   6.686  16.792  0.00  0.00    +0.000 A 
ATOM      4  C   UNL     1       4.052   5.762  17.578  0.00  0.00    +0.000 A 
ATOM      5  C   UNL     1       4.371   4.396  17.585  0.00  0.00    +0.000 A 
ATOM      6  C   UNL     1       5.455   3.945  16.794  0.00  0.00    +0.000 A 
ATOM      7  C   UNL     1       3.429   3.764  18.445  0.00  0.00    +0.000 A 
ATOM      8  C   UNL     1       3.254   2.385  18.813  0.00  0.00    +0.000 A 
ATOM      9  O   UNL     1       3.969   1.499  18.361  0.00  0.00    +0.000 OA
ATOM     10  O   UNL     1       2.251   2.070  19.681  0.00  0.00    +0.000 OA
ATOM     11  C   UNL     1       1.441   3.027  20.178  0.00  0.00    +0.000 A 
ATOM     12  O   UNL     1       0.530   2.809  20.957  0.00  0.00    +0.000 OA
ATOM     13  N   UNL     1       1.604   4.382  19.791  0.00  0.00    +0.000 N 
ATOM     14  C   UNL     1       2.603   4.735  18.934  0.00  0.00    +0.000 A 
ATOM     15  N   UNL     1       2.973   5.952  18.435  0.00  0.00    +0.000 N 
ATOM     16  H   UNL     1       0.968   5.037  20.218  0.00  0.00    +0.000 HD
ENDROOT
BRANCH   1  17
ATOM     17  O   UNL     1       7.187   4.397  15.182  0.00  0.00    +0.000 OA
BRANCH  17  19
ATOM     18  C   UNL     1       6.012   3.887  13.201  0.00  0.00    +0.000 C 
ATOM     19  C   UNL     1       7.088   4.721  13.827  0.00  0.00    +0.000 C 
ATOM     20  O   UNL     1       7.735   5.572  13.231  0.00  0.00    +0.000 OA
ENDBRANCH  17  19
ENDBRANCH   1  17
BRANCH  15  21
ATOM     21  C   UNL     1       2.369   7.259  18.653  0.00  0.00    +0.000 C 
BRANCH  21  22
ATOM     22  C   UNL     1       2.030   7.679  20.086  0.00  0.00    +0.000 C 
BRANCH  22  23
ATOM     23  C   UNL     1       1.107   8.865  20.231  0.00  0.00    +0.000 A 
ATOM     24  C   UNL     1       0.799   9.711  19.154  0.00  0.00    +0.000 A 
ATOM     25  C   UNL     1      -0.061  10.797  19.326  0.00  0.00    +0.000 A 
ATOM     26  C   UNL     1      -0.643  11.038  20.567  0.00  0.00    +0.000 A 
ATOM     27  C   UNL     1      -0.377  10.186  21.634  0.00  0.00    +0.000 A 
ATOM     28  C   UNL     1       0.487   9.102  21.467  0.00  0.00    +0.000 A 
ENDBRANCH  22  23
ENDBRANCH  21  22
ENDBRANCH  15  21
TORSDOF 5
ENDMDL
