MODEL 1
REMARK VINA RESULT:      -8.6      0.000      0.000
REMARK  Name = 
REMARK  3 active torsions:
REMARK  status: ('A' for Active; 'I' for Inactive)
REMARK    1  A    between atoms: C_1  and  C_2
REMARK    2  A    between atoms: C_5  and  C_6
REMARK    3  A    between atoms: C_11  and  N_12
REMARK                            x       y       z     vdW  Elec       q    Type
REMARK                         _______ _______ _______ _____ _____    ______ ____
ROOT
ATOM      1  C   UNL     1       2.319   6.795  19.776  0.00  0.00    +0.000 A 
ATOM      2  C   UNL     1       1.614   5.900  20.479  0.00  0.00    +0.000 A 
ATOM      3  C   UNL     1       2.195   4.570  20.680  0.00  0.00    +0.000 A 
ATOM      4  O   UNL     1       1.621   3.719  21.347  0.00  0.00    +0.000 OA
ATOM      5  C   UNL     1       3.481   4.297  20.027  0.00  0.00    +0.000 A 
ATOM      6  C   UNL     1       4.119   5.262  19.346  0.00  0.00    +0.000 A 
ATOM      7  O   UNL     1       3.577   6.549  19.252  0.00  0.00    +0.000 OA
ENDROOT
BRANCH   1  12
ATOM      8  C   UNL     1       0.460  12.143  18.538  0.00  0.00    +0.000 C 
ATOM      9  C   UNL     1       0.896  10.750  18.916  0.00  0.00    +0.000 A 
ATOM     10  C   UNL     1       1.567   9.981  17.955  0.00  0.00    +0.000 A 
ATOM     11  C   UNL     1       1.994   8.690  18.252  0.00  0.00    +0.000 A 
ATOM     12  C   UNL     1       1.765   8.135  19.517  0.00  0.00    +0.000 A 
ATOM     13  C   UNL     1       1.091   8.892  20.516  0.00  0.00    +0.000 A 
ATOM     14  C   UNL     1       0.843   8.395  21.818  0.00  0.00    +0.000 A 
ATOM     15  C   UNL     1       0.196   9.157  22.793  0.00  0.00    +0.000 A 
ATOM     16  C   UNL     1      -0.232  10.438  22.489  0.00  0.00    +0.000 A 
ATOM     17  C   UNL     1      -0.008  10.957  21.216  0.00  0.00    +0.000 A 
ATOM     18  C   UNL     1       0.652  10.214  20.208  0.00  0.00    +0.000 A 
ENDBRANCH   1  12
BRANCH   6  19
ATOM     19  N   UNL     1       5.325   5.056  18.681  0.00  0.00    +0.000 N 
ATOM     20  C   UNL     1       6.632   5.465  19.232  0.00  0.00    +0.000 C 
ATOM     21  C   UNL     1       7.441   6.228  18.173  0.00  0.00    +0.000 C 
ATOM     22  O   UNL     1       7.581   5.470  16.958  0.00  0.00    +0.000 OA
ATOM     23  C   UNL     1       6.288   5.154  16.420  0.00  0.00    +0.000 C 
ATOM     24  C   UNL     1       5.461   4.319  17.410  0.00  0.00    +0.000 C 
ENDBRANCH   6  19
TORSDOF 2
ENDMDL
MODEL 2
REMARK VINA RESULT:      -8.6      3.374      7.176
REMARK  Name = 
REMARK  3 active torsions:
REMARK  status: ('A' for Active; 'I' for Inactive)
REMARK    1  A    between atoms: C_1  and  C_2
REMARK    2  A    between atoms: C_5  and  C_6
REMARK    3  A    between atoms: C_11  and  N_12
REMARK                            x       y       z     vdW  Elec       q    Type
REMARK                         _______ _______ _______ _____ _____    ______ ____
ROOT
ATOM      1  C   UNL     1       1.376   8.380  20.107  0.00  0.00    +0.000 A 
ATOM      2  C   UNL     1       1.551   8.541  21.424  0.00  0.00    +0.000 A 
ATOM      3  C   UNL     1       0.682   9.491  22.124  0.00  0.00    +0.000 A 
ATOM      4  O   UNL     1       0.762   9.655  23.334  0.00  0.00    +0.000 OA
ATOM      5  C   UNL     1      -0.268  10.255  21.306  0.00  0.00    +0.000 A 
ATOM      6  C   UNL     1      -0.377  10.021  19.989  0.00  0.00    +0.000 A 
ATOM      7  O   UNL     1       0.405   9.038  19.370  0.00  0.00    +0.000 OA
ENDROOT
BRANCH   1  12
ATOM      8  C   UNL     1       4.688   4.958  16.805  0.00  0.00    +0.000 C 
ATOM      9  C   UNL     1       3.830   5.798  17.716  0.00  0.00    +0.000 A 
ATOM     10  C   UNL     1       3.713   7.167  17.443  0.00  0.00    +0.000 A 
ATOM     11  C   UNL     1       2.931   7.989  18.251  0.00  0.00    +0.000 A 
ATOM     12  C   UNL     1       2.244   7.461  19.351  0.00  0.00    +0.000 A 
ATOM     13  C   UNL     1       2.338   6.074  19.653  0.00  0.00    +0.000 A 
ATOM     14  C   UNL     1       1.655   5.477  20.741  0.00  0.00    +0.000 A 
ATOM     15  C   UNL     1       1.744   4.110  21.013  0.00  0.00    +0.000 A 
ATOM     16  C   UNL     1       2.528   3.301  20.209  0.00  0.00    +0.000 A 
ATOM     17  C   UNL     1       3.217   3.856  19.132  0.00  0.00    +0.000 A 
ATOM     18  C   UNL     1       3.142   5.235  18.825  0.00  0.00    +0.000 A 
ENDBRANCH   1  12
BRANCH   6  19
ATOM     19  N   UNL     1      -1.237  10.731  19.156  0.00  0.00    +0.000 N 
ATOM     20  C   UNL     1      -1.804  12.047  19.514  0.00  0.00    +0.000 C 
ATOM     21  C   UNL     1      -3.319  12.060  19.259  0.00  0.00    +0.000 C 
ATOM     22  O   UNL     1      -3.638  11.684  17.907  0.00  0.00    +0.000 OA
ATOM     23  C   UNL     1      -3.128  10.372  17.625  0.00  0.00    +0.000 C 
ATOM     24  C   UNL     1      -1.600  10.320  17.786  0.00  0.00    +0.000 C 
ENDBRANCH   6  19
TORSDOF 2
ENDMDL
MODEL 3
REMARK VINA RESULT:      -8.4      0.688      1.202
REMARK  Name = 
REMARK  3 active torsions:
REMARK  status: ('A' for Active; 'I' for Inactive)
REMARK    1  A    between atoms: C_1  and  C_2
REMARK    2  A    between atoms: C_5  and  C_6
REMARK    3  A    between atoms: C_11  and  N_12
REMARK                            x       y       z     vdW  Elec       q    Type
REMARK                         _______ _______ _______ _____ _____    ______ ____
ROOT
ATOM      1  C   UNL     1       2.371   7.073  19.520  0.00  0.00    +0.000 A 
ATOM      2  C   UNL     1       1.894   6.133  20.345  0.00  0.00    +0.000 A 
ATOM      3  C   UNL     1       2.635   4.873  20.456  0.00  0.00    +0.000 A 
ATOM      4  O   UNL     1       2.276   3.989  21.222  0.00  0.00    +0.000 OA
ATOM      5  C   UNL     1       3.808   4.710  19.590  0.00  0.00    +0.000 A 
ATOM      6  C   UNL     1       4.216   5.713  18.796  0.00  0.00    +0.000 A 
ATOM      7  O   UNL     1       3.537   6.938  18.786  0.00  0.00    +0.000 OA
ENDROOT
BRANCH   1  12
ATOM      8  C   UNL     1      -0.195  12.186  18.594  0.00  0.00    +0.000 C 
ATOM      9  C   UNL     1       0.432  10.848  18.895  0.00  0.00    +0.000 A 
ATOM     10  C   UNL     1       1.079  10.169  17.854  0.00  0.00    +0.000 A 
ATOM     11  C   UNL     1       1.677   8.932  18.078  0.00  0.00    +0.000 A 
ATOM     12  C   UNL     1       1.646   8.344  19.348  0.00  0.00    +0.000 A 
ATOM     13  C   UNL     1       1.001   9.010  20.428  0.00  0.00    +0.000 A 
ATOM     14  C   UNL     1       0.949   8.476  21.738  0.00  0.00    +0.000 A 
ATOM     15  C   UNL     1       0.327   9.151  22.790  0.00  0.00    +0.000 A 
ATOM     16  C   UNL     1      -0.271  10.378  22.559  0.00  0.00    +0.000 A 
ATOM     17  C   UNL     1      -0.242  10.931  21.281  0.00  0.00    +0.000 A 
ATOM     18  C   UNL     1       0.387  10.276  20.195  0.00  0.00    +0.000 A 
ENDBRANCH   1  12
BRANCH   6  19
ATOM     19  N   UNL     1       5.302   5.609  17.932  0.00  0.00    +0.000 N 
ATOM     20  C   UNL     1       5.164   5.295  16.495  0.00  0.00    +0.000 C 
ATOM     21  C   UNL     1       6.144   4.180  16.098  0.00  0.00    +0.000 C 
ATOM     22  O   UNL     1       7.500   4.509  16.451  0.00  0.00    +0.000 OA
ATOM     23  C   UNL     1       7.601   4.738  17.865  0.00  0.00    +0.000 C 
ATOM     24  C   UNL     1       6.699   5.901  18.308  0.00  0.00    +0.000 C 
ENDBRANCH   6  19
TORSDOF 2
ENDMDL
MODEL 4
REMARK VINA RESULT:      -8.0      3.023      6.866
REMARK  Name = 
REMARK  3 active torsions:
REMARK  status: ('A' for Active; 'I' for Inactive)
REMARK    1  A    between atoms: C_1  and  C_2
REMARK    2  A    between atoms: C_5  and  C_6
REMARK    3  A    between atoms: C_11  and  N_12
REMARK                            x       y       z     vdW  Elec       q    Type
REMARK                         _______ _______ _______ _____ _____    ______ ____
ROOT
ATOM      1  C   UNL     1       1.843   8.021  19.949  0.00  0.00    +0.000 A 
ATOM      2  C   UNL     1       1.761   7.965  21.283  0.00  0.00    +0.000 A 
ATOM      3  C   UNL     1       1.139   9.092  21.983  0.00  0.00    +0.000 A 
ATOM      4  O   UNL     1       0.996   9.086  23.199  0.00  0.00    +0.000 OA
ATOM      5  C   UNL     1       0.720  10.237  21.166  0.00  0.00    +0.000 A 
ATOM      6  C   UNL     1       0.836  10.200  19.829  0.00  0.00    +0.000 A 
ATOM      7  O   UNL     1       1.350   9.068  19.187  0.00  0.00    +0.000 OA
ENDROOT
BRANCH   1  12
ATOM      8  C   UNL     1       4.344   3.943  16.676  0.00  0.00    +0.000 C 
ATOM      9  C   UNL     1       3.682   4.954  17.579  0.00  0.00    +0.000 A 
ATOM     10  C   UNL     1       3.916   6.314  17.337  0.00  0.00    +0.000 A 
ATOM     11  C   UNL     1       3.328   7.289  18.138  0.00  0.00    +0.000 A 
ATOM     12  C   UNL     1       2.490   6.929  19.199  0.00  0.00    +0.000 A 
ATOM     13  C   UNL     1       2.227   5.557  19.469  0.00  0.00    +0.000 A 
ATOM     14  C   UNL     1       1.377   5.129  20.517  0.00  0.00    +0.000 A 
ATOM     15  C   UNL     1       1.117   3.778  20.756  0.00  0.00    +0.000 A 
ATOM     16  C   UNL     1       1.709   2.814  19.959  0.00  0.00    +0.000 A 
ATOM     17  C   UNL     1       2.556   3.199  18.922  0.00  0.00    +0.000 A 
ATOM     18  C   UNL     1       2.834   4.560  18.648  0.00  0.00    +0.000 A 
ENDBRANCH   1  12
BRANCH   6  19
ATOM     19  N   UNL     1       0.485  11.264  19.004  0.00  0.00    +0.000 N 
ATOM     20  C   UNL     1       1.457  12.259  18.509  0.00  0.00    +0.000 C 
ATOM     21  C   UNL     1       0.920  13.682  18.726  0.00  0.00    +0.000 C 
ATOM     22  O   UNL     1      -0.380  13.859  18.135  0.00  0.00    +0.000 OA
ATOM     23  C   UNL     1      -1.310  12.918  18.695  0.00  0.00    +0.000 C 
ATOM     24  C   UNL     1      -0.862  11.470  18.436  0.00  0.00    +0.000 C 
ENDBRANCH   6  19
TORSDOF 2
ENDMDL
MODEL 5
REMARK VINA RESULT:      -8.0      3.169      6.989
REMARK  Name = 
REMARK  3 active torsions:
REMARK  status: ('A' for Active; 'I' for Inactive)
REMARK    1  A    between atoms: C_1  and  C_2
REMARK    2  A    between atoms: C_5  and  C_6
REMARK    3  A    between atoms: C_11  and  N_12
REMARK                            x       y       z     vdW  Elec       q    Type
REMARK                         _______ _______ _______ _____ _____    ______ ____
ROOT
ATOM      1  C   UNL     1       1.513   8.113  20.220  0.00  0.00    +0.000 A 
ATOM      2  C   UNL     1       1.771   8.291  21.520  0.00  0.00    +0.000 A 
ATOM      3  C   UNL     1       0.987   9.293  22.247  0.00  0.00    +0.000 A 
ATOM      4  O   UNL     1       1.144   9.477  23.448  0.00  0.00    +0.000 OA
ATOM      5  C   UNL     1       0.025  10.082  21.469  0.00  0.00    +0.000 A 
ATOM      6  C   UNL     1      -0.171   9.827  20.165  0.00  0.00    +0.000 A 
ATOM      7  O   UNL     1       0.531   8.799  19.525  0.00  0.00    +0.000 OA
ENDROOT
BRANCH   1  12
ATOM      8  C   UNL     1       4.528   4.517  16.818  0.00  0.00    +0.000 C 
ATOM      9  C   UNL     1       3.739   5.399  17.752  0.00  0.00    +0.000 A 
ATOM     10  C   UNL     1       3.805   6.787  17.569  0.00  0.00    +0.000 A 
ATOM     11  C   UNL     1       3.094   7.647  18.401  0.00  0.00    +0.000 A 
ATOM     12  C   UNL     1       2.296   7.142  19.435  0.00  0.00    +0.000 A 
ATOM     13  C   UNL     1       2.204   5.737  19.645  0.00  0.00    +0.000 A 
ATOM     14  C   UNL     1       1.403   5.163  20.662  0.00  0.00    +0.000 A 
ATOM     15  C   UNL     1       1.310   3.782  20.842  0.00  0.00    +0.000 A 
ATOM     16  C   UNL     1       2.025   2.933  20.015  0.00  0.00    +0.000 A 
ATOM     17  C   UNL     1       2.826   3.464  19.006  0.00  0.00    +0.000 A 
ATOM     18  C   UNL     1       2.936   4.858  18.793  0.00  0.00    +0.000 A 
ENDBRANCH   1  12
BRANCH   6  19
ATOM     19  N   UNL     1      -1.046  10.559  19.367  0.00  0.00    +0.000 N 
ATOM     20  C   UNL     1      -2.045   9.933  18.479  0.00  0.00    +0.000 C 
ATOM     21  C   UNL     1      -1.983  10.564  17.080  0.00  0.00    +0.000 C 
ATOM     22  O   UNL     1      -2.127  11.995  17.131  0.00  0.00    +0.000 OA
ATOM     23  C   UNL     1      -1.094  12.567  17.948  0.00  0.00    +0.000 C 
ATOM     24  C   UNL     1      -1.159  12.030  19.387  0.00  0.00    +0.000 C 
ENDBRANCH   6  19
TORSDOF 2
ENDMDL
MODEL 6
REMARK VINA RESULT:      -7.9      2.709      7.628
REMARK  Name = 
REMARK  3 active torsions:
REMARK  status: ('A' for Active; 'I' for Inactive)
REMARK    1  A    between atoms: C_1  and  C_2
REMARK    2  A    between atoms: C_5  and  C_6
REMARK    3  A    between atoms: C_11  and  N_12
REMARK                            x       y       z     vdW  Elec       q    Type
REMARK                         _______ _______ _______ _____ _____    ______ ____
ROOT
ATOM      1  C   UNL     1       2.223   7.797  18.979  0.00  0.00    +0.000 A 
ATOM      2  C   UNL     1       2.598   8.594  17.972  0.00  0.00    +0.000 A 
ATOM      3  C   UNL     1       2.112   9.976  17.968  0.00  0.00    +0.000 A 
ATOM      4  O   UNL     1       2.450  10.768  17.098  0.00  0.00    +0.000 OA
ATOM      5  C   UNL     1       1.182  10.360  19.037  0.00  0.00    +0.000 A 
ATOM      6  C   UNL     1       0.867   9.492  20.011  0.00  0.00    +0.000 A 
ATOM      7  O   UNL     1       1.424   8.208  20.034  0.00  0.00    +0.000 OA
ENDROOT
BRANCH   1  12
ATOM      8  C   UNL     1       3.930   2.283  19.502  0.00  0.00    +0.000 C 
ATOM      9  C   UNL     1       3.509   3.717  19.297  0.00  0.00    +0.000 A 
ATOM     10  C   UNL     1       2.576   4.268  20.185  0.00  0.00    +0.000 A 
ATOM     11  C   UNL     1       2.155   5.588  20.044  0.00  0.00    +0.000 A 
ATOM     12  C   UNL     1       2.658   6.390  19.012  0.00  0.00    +0.000 A 
ATOM     13  C   UNL     1       3.610   5.861  18.096  0.00  0.00    +0.000 A 
ATOM     14  C   UNL     1       4.168   6.625  17.042  0.00  0.00    +0.000 A 
ATOM     15  C   UNL     1       5.114   6.096  16.163  0.00  0.00    +0.000 A 
ATOM     16  C   UNL     1       5.524   4.781  16.306  0.00  0.00    +0.000 A 
ATOM     17  C   UNL     1       4.992   4.000  17.330  0.00  0.00    +0.000 A 
ATOM     18  C   UNL     1       4.037   4.508  18.242  0.00  0.00    +0.000 A 
ENDBRANCH   1  12
BRANCH   6  19
ATOM     19  N   UNL     1      -0.031   9.786  21.034  0.00  0.00    +0.000 N 
ATOM     20  C   UNL     1      -0.838  11.021  21.071  0.00  0.00    +0.000 C 
ATOM     21  C   UNL     1      -0.742  11.679  22.456  0.00  0.00    +0.000 C 
ATOM     22  O   UNL     1      -1.104  10.766  23.508  0.00  0.00    +0.000 OA
ATOM     23  C   UNL     1      -0.249   9.613  23.478  0.00  0.00    +0.000 C 
ATOM     24  C   UNL     1      -0.366   8.867  22.139  0.00  0.00    +0.000 C 
ENDBRANCH   6  19
TORSDOF 2
ENDMDL
MODEL 7
REMARK VINA RESULT:      -7.8      1.780      3.631
REMARK  Name = 
REMARK  3 active torsions:
REMARK  status: ('A' for Active; 'I' for Inactive)
REMARK    1  A    between atoms: C_1  and  C_2
REMARK    2  A    between atoms: C_5  and  C_6
REMARK    3  A    between atoms: C_11  and  N_12
REMARK                            x       y       z     vdW  Elec       q    Type
REMARK                         _______ _______ _______ _____ _____    ______ ____
ROOT
ATOM      1  C   UNL     1       2.177   7.854  18.564  0.00  0.00    +0.000 A 
ATOM      2  C   UNL     1       3.164   8.148  17.710  0.00  0.00    +0.000 A 
ATOM      3  C   UNL     1       4.180   7.124  17.453  0.00  0.00    +0.000 A 
ATOM      4  O   UNL     1       5.087   7.313  16.652  0.00  0.00    +0.000 OA
ATOM      5  C   UNL     1       4.077   5.874  18.215  0.00  0.00    +0.000 A 
ATOM      6  C   UNL     1       3.044   5.665  19.048  0.00  0.00    +0.000 A 
ATOM      7  O   UNL     1       2.041   6.630  19.199  0.00  0.00    +0.000 OA
ENDROOT
BRANCH   1  12
ATOM      8  C   UNL     1      -1.732  12.026  19.517  0.00  0.00    +0.000 C 
ATOM      9  C   UNL     1      -0.727  10.916  19.337  0.00  0.00    +0.000 A 
ATOM     10  C   UNL     1      -0.362  10.557  18.033  0.00  0.00    +0.000 A 
ATOM     11  C   UNL     1       0.563   9.541  17.809  0.00  0.00    +0.000 A 
ATOM     12  C   UNL     1       1.148   8.860  18.883  0.00  0.00    +0.000 A 
ATOM     13  C   UNL     1       0.803   9.204  20.220  0.00  0.00    +0.000 A 
ATOM     14  C   UNL     1       1.371   8.565  21.349  0.00  0.00    +0.000 A 
ATOM     15  C   UNL     1       1.034   8.928  22.654  0.00  0.00    +0.000 A 
ATOM     16  C   UNL     1       0.109   9.935  22.869  0.00  0.00    +0.000 A 
ATOM     17  C   UNL     1      -0.473  10.582  21.781  0.00  0.00    +0.000 A 
ATOM     18  C   UNL     1      -0.147  10.244  20.446  0.00  0.00    +0.000 A 
ENDBRANCH   1  12
BRANCH   6  19
ATOM     19  N   UNL     1       2.907   4.515  19.820  0.00  0.00    +0.000 N 
ATOM     20  C   UNL     1       3.538   3.226  19.470  0.00  0.00    +0.000 C 
ATOM     21  C   UNL     1       2.510   2.088  19.564  0.00  0.00    +0.000 C 
ATOM     22  O   UNL     1       1.876   2.046  20.856  0.00  0.00    +0.000 OA
ATOM     23  C   UNL     1       1.217   3.293  21.125  0.00  0.00    +0.000 C 
ATOM     24  C   UNL     1       2.215   4.463  21.122  0.00  0.00    +0.000 C 
ENDBRANCH   6  19
TORSDOF 2
ENDMDL
MODEL 8
REMARK VINA RESULT:      -7.8      1.427      2.957
REMARK  Name = 
REMARK  3 active torsions:
REMARK  status: ('A' for Active; 'I' for Inactive)
REMARK    1  A    between atoms: C_1  and  C_2
REMARK    2  A    between atoms: C_5  and  C_6
REMARK    3  A    between atoms: C_11  and  N_12
REMARK                            x       y       z     vdW  Elec       q    Type
REMARK                         _______ _______ _______ _____ _____    ______ ____
ROOT
ATOM      1  C   UNL     1       2.248   5.815  19.119  0.00  0.00    +0.000 A 
ATOM      2  C   UNL     1       1.470   4.737  18.966  0.00  0.00    +0.000 A 
ATOM      3  C   UNL     1       1.995   3.615  18.183  0.00  0.00    +0.000 A 
ATOM      4  O   UNL     1       1.352   2.583  18.038  0.00  0.00    +0.000 OA
ATOM      5  C   UNL     1       3.312   3.792  17.561  0.00  0.00    +0.000 A 
ATOM      6  C   UNL     1       4.025   4.910  17.777  0.00  0.00    +0.000 A 
ATOM      7  O   UNL     1       3.531   5.923  18.607  0.00  0.00    +0.000 OA
ENDROOT
BRANCH   1  12
ATOM      8  C   UNL     1       0.024  10.183  22.213  0.00  0.00    +0.000 C 
ATOM      9  C   UNL     1       0.638   9.096  21.367  0.00  0.00    +0.000 A 
ATOM     10  C   UNL     1       0.670   7.792  21.882  0.00  0.00    +0.000 A 
ATOM     11  C   UNL     1       1.222   6.750  21.142  0.00  0.00    +0.000 A 
ATOM     12  C   UNL     1       1.755   6.984  19.869  0.00  0.00    +0.000 A 
ATOM     13  C   UNL     1       1.734   8.295  19.315  0.00  0.00    +0.000 A 
ATOM     14  C   UNL     1       2.242   8.593  18.028  0.00  0.00    +0.000 A 
ATOM     15  C   UNL     1       2.197   9.882  17.493  0.00  0.00    +0.000 A 
ATOM     16  C   UNL     1       1.652  10.914  18.236  0.00  0.00    +0.000 A 
ATOM     17  C   UNL     1       1.146  10.657  19.509  0.00  0.00    +0.000 A 
ATOM     18  C   UNL     1       1.169   9.361  20.077  0.00  0.00    +0.000 A 
ENDBRANCH   1  12
BRANCH   6  19
ATOM     19  N   UNL     1       5.265   5.149  17.192  0.00  0.00    +0.000 N 
ATOM     20  C   UNL     1       5.463   5.259  15.733  0.00  0.00    +0.000 C 
ATOM     21  C   UNL     1       6.650   4.391  15.290  0.00  0.00    +0.000 C 
ATOM     22  O   UNL     1       7.847   4.709  16.022  0.00  0.00    +0.000 OA
ATOM     23  C   UNL     1       7.631   4.522  17.430  0.00  0.00    +0.000 C 
ATOM     24  C   UNL     1       6.502   5.429  17.946  0.00  0.00    +0.000 C 
ENDBRANCH   6  19
TORSDOF 2
ENDMDL
MODEL 9
REMARK VINA RESULT:      -7.8      2.976      6.881
REMARK  Name = 
REMARK  3 active torsions:
REMARK  status: ('A' for Active; 'I' for Inactive)
REMARK    1  A    between atoms: C_1  and  C_2
REMARK    2  A    between atoms: C_5  and  C_6
REMARK    3  A    between atoms: C_11  and  N_12
REMARK                            x       y       z     vdW  Elec       q    Type
REMARK                         _______ _______ _______ _____ _____    ______ ____
ROOT
ATOM      1  C   UNL     1       2.143   7.738  19.200  0.00  0.00    +0.000 A 
ATOM      2  C   UNL     1       1.809   7.409  20.453  0.00  0.00    +0.000 A 
ATOM      3  C   UNL     1       1.030   8.373  21.234  0.00  0.00    +0.000 A 
ATOM      4  O   UNL     1       0.657   8.117  22.372  0.00  0.00    +0.000 OA
ATOM      5  C   UNL     1       0.739   9.665  20.603  0.00  0.00    +0.000 A 
ATOM      6  C   UNL     1       1.110   9.904  19.334  0.00  0.00    +0.000 A 
ATOM      7  O   UNL     1       1.773   8.923  18.586  0.00  0.00    +0.000 OA
ENDROOT
BRANCH   1  12
ATOM      8  C   UNL     1       5.362   4.404  15.718  0.00  0.00    +0.000 C 
ATOM      9  C   UNL     1       4.503   5.212  16.659  0.00  0.00    +0.000 A 
ATOM     10  C   UNL     1       4.765   6.582  16.787  0.00  0.00    +0.000 A 
ATOM     11  C   UNL     1       4.001   7.375  17.639  0.00  0.00    +0.000 A 
ATOM     12  C   UNL     1       2.954   6.818  18.383  0.00  0.00    +0.000 A 
ATOM     13  C   UNL     1       2.659   5.430  18.272  0.00  0.00    +0.000 A 
ATOM     14  C   UNL     1       1.604   4.810  18.985  0.00  0.00    +0.000 A 
ATOM     15  C   UNL     1       1.317   3.450  18.851  0.00  0.00    +0.000 A 
ATOM     16  C   UNL     1       2.085   2.667  18.007  0.00  0.00    +0.000 A 
ATOM     17  C   UNL     1       3.133   3.244  17.293  0.00  0.00    +0.000 A 
ATOM     18  C   UNL     1       3.445   4.620  17.401  0.00  0.00    +0.000 A 
ENDBRANCH   1  12
BRANCH   6  19
ATOM     19  N   UNL     1       0.891  11.119  18.691  0.00  0.00    +0.000 N 
ATOM     20  C   UNL     1       1.981  12.027  18.284  0.00  0.00    +0.000 C 
ATOM     21  C   UNL     1       1.673  13.463  18.733  0.00  0.00    +0.000 C 
ATOM     22  O   UNL     1       0.392  13.910  18.254  0.00  0.00    +0.000 OA
ATOM     23  C   UNL     1      -0.646  13.039  18.730  0.00  0.00    +0.000 C 
ATOM     24  C   UNL     1      -0.432  11.597  18.242  0.00  0.00    +0.000 C 
ENDBRANCH   6  19
TORSDOF 2
ENDMDL
