MODEL 1
REMARK VINA RESULT:      -8.2      0.000      0.000
REMARK  Name = 
REMARK  8 active torsions:
REMARK  status: ('A' for Active; 'I' for Inactive)
REMARK    1  A    between atoms: C_1  and  C_2
REMARK    2  A    between atoms: C_2  and  N_3
REMARK    3  A    between atoms: N_3  and  C_4
REMARK    4  A    between atoms: N_3  and  S_6
REMARK    5  A    between atoms: C_4  and  C_5
REMARK    6  A    between atoms: S_6  and  C_9
REMARK    7  A    between atoms: C_12  and  N_13
REMARK    8  A    between atoms: C_14  and  C_16
REMARK                            x       y       z     vdW  Elec       q    Type
REMARK                         _______ _______ _______ _____ _____    ______ ____
ROOT
ATOM      1  C   UNL     1       4.184   5.276  18.338  0.00  0.00    +0.000 A 
ATOM      2  C   UNL     1       3.980   6.603  17.948  0.00  0.00    +0.000 A 
ATOM      3  C   UNL     1       3.061   7.402  18.611  0.00  0.00    +0.000 A 
ATOM      4  C   UNL     1       2.323   6.916  19.691  0.00  0.00    +0.000 A 
ATOM      5  C   UNL     1       2.484   5.543  20.088  0.00  0.00    +0.000 A 
ATOM      6  C   UNL     1       1.730   4.955  21.143  0.00  0.00    +0.000 A 
ATOM      7  C   UNL     1       1.871   3.620  21.527  0.00  0.00    +0.000 A 
ATOM      8  C   UNL     1       2.772   2.816  20.864  0.00  0.00    +0.000 A 
ATOM      9  C   UNL     1       3.529   3.350  19.823  0.00  0.00    +0.000 A 
ATOM     10  C   UNL     1       3.425   4.703  19.399  0.00  0.00    +0.000 A 
ENDROOT
BRANCH   4  11
ATOM     11  N   UNL     1       1.441   7.786  20.413  0.00  0.00    +0.000 N 
ATOM     12  C   UNL     1       0.905   8.992  19.977  0.00  0.00    +0.000 C 
ATOM     13  O   UNL     1       1.034   9.486  18.861  0.00  0.00    +0.000 OA
ATOM     14  H   UNL     1       1.265   7.542  21.373  0.00  0.00    +0.000 HD
BRANCH  12  15
ATOM     15  C   UNL     1       0.134   9.788  20.981  0.00  0.00    +0.000 A 
ATOM     16  C   UNL     1       0.044   9.269  22.284  0.00  0.00    +0.000 A 
ATOM     17  C   UNL     1      -0.664   9.950  23.275  0.00  0.00    +0.000 A 
ATOM     18  C   UNL     1      -1.283  11.158  22.977  0.00  0.00    +0.000 A 
ATOM     19  C   UNL     1      -1.179  11.697  21.692  0.00  0.00    +0.000 A 
ATOM     20  C   UNL     1      -0.469  11.018  20.694  0.00  0.00    +0.000 A 
ENDBRANCH  12  15
ENDBRANCH   4  11
BRANCH   1  21
ATOM     21  S   UNL     1       5.431   4.424  17.366  0.00  0.00    +0.000 S 
ATOM     22  O   UNL     1       4.733   3.443  16.563  0.00  0.00    +0.000 OA
ATOM     23  O   UNL     1       6.559   4.031  18.183  0.00  0.00    +0.000 OA
BRANCH  21  24
ATOM     24  N   UNL     1       6.012   5.658  16.302  0.00  0.00    +0.000 NA
BRANCH  24  26
ATOM     25  C   UNL     1       7.406   7.409  17.453  0.00  0.00    +0.000 C 
ATOM     26  C   UNL     1       7.392   6.137  16.618  0.00  0.00    +0.000 C 
ENDBRANCH  24  26
BRANCH  24  27
ATOM     27  C   UNL     1       5.753   5.361  14.858  0.00  0.00    +0.000 C 
ATOM     28  C   UNL     1       6.949   4.768  14.131  0.00  0.00    +0.000 C 
ENDBRANCH  24  27
ENDBRANCH  21  24
ENDBRANCH   1  21
TORSDOF 6
ENDMDL
MODEL 2
REMARK VINA RESULT:      -7.8      1.325      1.958
REMARK  Name = 
REMARK  8 active torsions:
REMARK  status: ('A' for Active; 'I' for Inactive)
REMARK    1  A    between atoms: C_1  and  C_2
REMARK    2  A    between atoms: C_2  and  N_3
REMARK    3  A    between atoms: N_3  and  C_4
REMARK    4  A    between atoms: N_3  and  S_6
REMARK    5  A    between atoms: C_4  and  C_5
REMARK    6  A    between atoms: S_6  and  C_9
REMARK    7  A    between atoms: C_12  and  N_13
REMARK    8  A    between atoms: C_14  and  C_16
REMARK                            x       y       z     vdW  Elec       q    Type
REMARK                         _______ _______ _______ _____ _____    ______ ____
ROOT
ATOM      1  C   UNL     1       4.119   6.374  17.375  0.00  0.00    +0.000 A 
ATOM      2  C   UNL     1       3.691   7.683  17.136  0.00  0.00    +0.000 A 
ATOM      3  C   UNL     1       2.785   8.298  17.987  0.00  0.00    +0.000 A 
ATOM      4  C   UNL     1       2.284   7.640  19.112  0.00  0.00    +0.000 A 
ATOM      5  C   UNL     1       2.677   6.279  19.359  0.00  0.00    +0.000 A 
ATOM      6  C   UNL     1       2.169   5.519  20.452  0.00  0.00    +0.000 A 
ATOM      7  C   UNL     1       2.536   4.194  20.693  0.00  0.00    +0.000 A 
ATOM      8  C   UNL     1       3.424   3.572  19.843  0.00  0.00    +0.000 A 
ATOM      9  C   UNL     1       3.944   4.277  18.760  0.00  0.00    +0.000 A 
ATOM     10  C   UNL     1       3.605   5.628  18.475  0.00  0.00    +0.000 A 
ENDROOT
BRANCH   4  11
ATOM     11  N   UNL     1       1.415   8.326  20.021  0.00  0.00    +0.000 N 
ATOM     12  C   UNL     1       0.644   9.453  19.762  0.00  0.00    +0.000 C 
ATOM     13  O   UNL     1       0.516  10.015  18.679  0.00  0.00    +0.000 OA
ATOM     14  H   UNL     1       1.435   8.011  20.978  0.00  0.00    +0.000 HD
BRANCH  12  15
ATOM     15  C   UNL     1      -0.061  10.070  20.928  0.00  0.00    +0.000 A 
ATOM     16  C   UNL     1      -0.765  11.264  20.698  0.00  0.00    +0.000 A 
ATOM     17  C   UNL     1      -1.442  11.904  21.737  0.00  0.00    +0.000 A 
ATOM     18  C   UNL     1      -1.429  11.353  23.014  0.00  0.00    +0.000 A 
ATOM     19  C   UNL     1      -0.755  10.153  23.249  0.00  0.00    +0.000 A 
ATOM     20  C   UNL     1      -0.074   9.506  22.210  0.00  0.00    +0.000 A 
ENDBRANCH  12  15
ENDBRANCH   4  11
BRANCH   1  21
ATOM     21  S   UNL     1       5.307   5.774  16.170  0.00  0.00    +0.000 S 
ATOM     22  O   UNL     1       5.230   6.664  15.031  0.00  0.00    +0.000 OA
ATOM     23  O   UNL     1       5.196   4.343  15.987  0.00  0.00    +0.000 OA
BRANCH  21  24
ATOM     24  N   UNL     1       6.828   6.045  16.947  0.00  0.00    +0.000 NA
BRANCH  24  26
ATOM     25  C   UNL     1       7.905   8.258  17.476  0.00  0.00    +0.000 C 
ATOM     26  C   UNL     1       6.847   7.232  17.855  0.00  0.00    +0.000 C 
ENDBRANCH  24  26
BRANCH  24  27
ATOM     27  C   UNL     1       7.433   4.798  17.511  0.00  0.00    +0.000 C 
ATOM     28  C   UNL     1       7.863   4.929  18.964  0.00  0.00    +0.000 C 
ENDBRANCH  24  27
ENDBRANCH  21  24
ENDBRANCH   1  21
TORSDOF 6
ENDMDL
MODEL 3
REMARK VINA RESULT:      -7.6      1.396      2.092
REMARK  Name = 
REMARK  8 active torsions:
REMARK  status: ('A' for Active; 'I' for Inactive)
REMARK    1  A    between atoms: C_1  and  C_2
REMARK    2  A    between atoms: C_2  and  N_3
REMARK    3  A    between atoms: N_3  and  C_4
REMARK    4  A    between atoms: N_3  and  S_6
REMARK    5  A    between atoms: C_4  and  C_5
REMARK    6  A    between atoms: S_6  and  C_9
REMARK    7  A    between atoms: C_12  and  N_13
REMARK    8  A    between atoms: C_14  and  C_16
REMARK                            x       y       z     vdW  Elec       q    Type
REMARK                         _______ _______ _______ _____ _____    ______ ____
ROOT
ATOM      1  C   UNL     1       3.960   6.553  17.776  0.00  0.00    +0.000 A 
ATOM      2  C   UNL     1       3.577   7.855  17.446  0.00  0.00    +0.000 A 
ATOM      3  C   UNL     1       2.608   8.517  18.185  0.00  0.00    +0.000 A 
ATOM      4  C   UNL     1       1.995   7.913  19.284  0.00  0.00    +0.000 A 
ATOM      5  C   UNL     1       2.341   6.558  19.621  0.00  0.00    +0.000 A 
ATOM      6  C   UNL     1       1.723   5.851  20.691  0.00  0.00    +0.000 A 
ATOM      7  C   UNL     1       2.044   4.532  21.018  0.00  0.00    +0.000 A 
ATOM      8  C   UNL     1       2.996   3.864  20.279  0.00  0.00    +0.000 A 
ATOM      9  C   UNL     1       3.624   4.516  19.221  0.00  0.00    +0.000 A 
ATOM     10  C   UNL     1       3.335   5.859  18.853  0.00  0.00    +0.000 A 
ENDROOT
BRANCH   4  11
ATOM     11  N   UNL     1       1.058   8.647  20.082  0.00  0.00    +0.000 N 
ATOM     12  C   UNL     1       0.608   9.945  19.872  0.00  0.00    +0.000 C 
ATOM     13  O   UNL     1       0.881  10.666  18.917  0.00  0.00    +0.000 OA
ATOM     14  H   UNL     1       0.763   8.207  20.938  0.00  0.00    +0.000 HD
BRANCH  12  15
ATOM     15  C   UNL     1      -0.254  10.539  20.939  0.00  0.00    +0.000 A 
ATOM     16  C   UNL     1      -1.067  11.629  20.580  0.00  0.00    +0.000 A 
ATOM     17  C   UNL     1      -1.895  12.242  21.521  0.00  0.00    +0.000 A 
ATOM     18  C   UNL     1      -1.925  11.769  22.827  0.00  0.00    +0.000 A 
ATOM     19  C   UNL     1      -1.143  10.670  23.191  0.00  0.00    +0.000 A 
ATOM     20  C   UNL     1      -0.311  10.051  22.250  0.00  0.00    +0.000 A 
ENDBRANCH  12  15
ENDBRANCH   4  11
BRANCH   1  21
ATOM     21  S   UNL     1       5.243   5.888  16.710  0.00  0.00    +0.000 S 
ATOM     22  O   UNL     1       5.210   6.661  15.486  0.00  0.00    +0.000 OA
ATOM     23  O   UNL     1       5.192   4.442  16.661  0.00  0.00    +0.000 OA
BRANCH  21  24
ATOM     24  N   UNL     1       6.701   6.292  17.548  0.00  0.00    +0.000 NA
BRANCH  24  26
ATOM     25  C   UNL     1       7.957   5.286  19.483  0.00  0.00    +0.000 C 
ATOM     26  C   UNL     1       7.463   5.111  18.055  0.00  0.00    +0.000 C 
ENDBRANCH  24  26
BRANCH  24  27
ATOM     27  C   UNL     1       7.520   7.326  16.841  0.00  0.00    +0.000 C 
ATOM     28  C   UNL     1       7.898   8.511  17.716  0.00  0.00    +0.000 C 
ENDBRANCH  24  27
ENDBRANCH  21  24
ENDBRANCH   1  21
TORSDOF 6
ENDMDL
MODEL 4
REMARK VINA RESULT:      -7.6      1.163      1.639
REMARK  Name = 
REMARK  8 active torsions:
REMARK  status: ('A' for Active; 'I' for Inactive)
REMARK    1  A    between atoms: C_1  and  C_2
REMARK    2  A    between atoms: C_2  and  N_3
REMARK    3  A    between atoms: N_3  and  C_4
REMARK    4  A    between atoms: N_3  and  S_6
REMARK    5  A    between atoms: C_4  and  C_5
REMARK    6  A    between atoms: S_6  and  C_9
REMARK    7  A    between atoms: C_12  and  N_13
REMARK    8  A    between atoms: C_14  and  C_16
REMARK                            x       y       z     vdW  Elec       q    Type
REMARK                         _______ _______ _______ _____ _____    ______ ____
ROOT
ATOM      1  C   UNL     1       4.069   6.009  17.787  0.00  0.00    +0.000 A 
ATOM      2  C   UNL     1       3.782   7.339  17.469  0.00  0.00    +0.000 A 
ATOM      3  C   UNL     1       2.869   8.065  18.220  0.00  0.00    +0.000 A 
ATOM      4  C   UNL     1       2.220   7.499  19.318  0.00  0.00    +0.000 A 
ATOM      5  C   UNL     1       2.466   6.120  19.644  0.00  0.00    +0.000 A 
ATOM      6  C   UNL     1       1.805   5.453  20.713  0.00  0.00    +0.000 A 
ATOM      7  C   UNL     1       2.029   4.111  21.028  0.00  0.00    +0.000 A 
ATOM      8  C   UNL     1       2.924   3.380  20.279  0.00  0.00    +0.000 A 
ATOM      9  C   UNL     1       3.591   3.992  19.220  0.00  0.00    +0.000 A 
ATOM     10  C   UNL     1       3.401   5.356  18.864  0.00  0.00    +0.000 A 
ENDROOT
BRANCH   4  11
ATOM     11  N   UNL     1       1.345   8.295  20.128  0.00  0.00    +0.000 N 
ATOM     12  C   UNL     1       0.650   9.437  19.746  0.00  0.00    +0.000 C 
ATOM     13  O   UNL     1       0.606   9.920  18.619  0.00  0.00    +0.000 OA
ATOM     14  H   UNL     1       1.301   8.054  21.104  0.00  0.00    +0.000 HD
BRANCH  12  15
ATOM     15  C   UNL     1      -0.077  10.175  20.824  0.00  0.00    +0.000 A 
ATOM     16  C   UNL     1      -0.093   9.595  22.104  0.00  0.00    +0.000 A 
ATOM     17  C   UNL     1      -0.757  10.219  23.162  0.00  0.00    +0.000 A 
ATOM     18  C   UNL     1      -1.404  11.431  22.952  0.00  0.00    +0.000 A 
ATOM     19  C   UNL     1      -1.372  12.031  21.691  0.00  0.00    +0.000 A 
ATOM     20  C   UNL     1      -0.708  11.409  20.627  0.00  0.00    +0.000 A 
ENDBRANCH  12  15
ENDBRANCH   4  11
BRANCH   1  21
ATOM     21  S   UNL     1       5.292   5.258  16.708  0.00  0.00    +0.000 S 
ATOM     22  O   UNL     1       5.168   5.911  15.421  0.00  0.00    +0.000 OA
ATOM     23  O   UNL     1       5.262   3.814  16.800  0.00  0.00    +0.000 OA
BRANCH  21  24
ATOM     24  N   UNL     1       6.793   5.756  17.407  0.00  0.00    +0.000 NA
BRANCH  24  26
ATOM     25  C   UNL     1       7.612   8.122  17.668  0.00  0.00    +0.000 C 
ATOM     26  C   UNL     1       7.420   6.936  16.735  0.00  0.00    +0.000 C 
ENDBRANCH  24  26
BRANCH  24  27
ATOM     27  C   UNL     1       6.756   5.818  18.902  0.00  0.00    +0.000 C 
ATOM     28  C   UNL     1       8.032   5.329  19.568  0.00  0.00    +0.000 C 
ENDBRANCH  24  27
ENDBRANCH  21  24
ENDBRANCH   1  21
TORSDOF 6
ENDMDL
MODEL 5
REMARK VINA RESULT:      -7.5      1.215      1.930
REMARK  Name = 
REMARK  8 active torsions:
REMARK  status: ('A' for Active; 'I' for Inactive)
REMARK    1  A    between atoms: C_1  and  C_2
REMARK    2  A    between atoms: C_2  and  N_3
REMARK    3  A    between atoms: N_3  and  C_4
REMARK    4  A    between atoms: N_3  and  S_6
REMARK    5  A    between atoms: C_4  and  C_5
REMARK    6  A    between atoms: S_6  and  C_9
REMARK    7  A    between atoms: C_12  and  N_13
REMARK    8  A    between atoms: C_14  and  C_16
REMARK                            x       y       z     vdW  Elec       q    Type
REMARK                         _______ _______ _______ _____ _____    ______ ____
ROOT
ATOM      1  C   UNL     1       3.749   6.442  17.586  0.00  0.00    +0.000 A 
ATOM      2  C   UNL     1       3.414   7.764  17.277  0.00  0.00    +0.000 A 
ATOM      3  C   UNL     1       2.567   8.491  18.101  0.00  0.00    +0.000 A 
ATOM      4  C   UNL     1       2.035   7.935  19.265  0.00  0.00    +0.000 A 
ATOM      5  C   UNL     1       2.330   6.565  19.586  0.00  0.00    +0.000 A 
ATOM      6  C   UNL     1       1.783   5.907  20.724  0.00  0.00    +0.000 A 
ATOM      7  C   UNL     1       2.055   4.573  21.036  0.00  0.00    +0.000 A 
ATOM      8  C   UNL     1       2.884   3.841  20.215  0.00  0.00    +0.000 A 
ATOM      9  C   UNL     1       3.439   4.444  19.089  0.00  0.00    +0.000 A 
ATOM     10  C   UNL     1       3.197   5.799  18.731  0.00  0.00    +0.000 A 
ENDROOT
BRANCH   4  11
ATOM     11  N   UNL     1       1.230   8.733  20.142  0.00  0.00    +0.000 N 
ATOM     12  C   UNL     1       0.303   9.705  19.785  0.00  0.00    +0.000 C 
ATOM     13  O   UNL     1      -0.044   9.996  18.645  0.00  0.00    +0.000 OA
ATOM     14  H   UNL     1       1.424   8.644  21.126  0.00  0.00    +0.000 HD
BRANCH  12  15
ATOM     15  C   UNL     1      -0.295  10.507  20.896  0.00  0.00    +0.000 A 
ATOM     16  C   UNL     1      -0.459   9.867  22.137  0.00  0.00    +0.000 A 
ATOM     17  C   UNL     1      -1.016  10.546  23.222  0.00  0.00    +0.000 A 
ATOM     18  C   UNL     1      -1.407  11.873  23.079  0.00  0.00    +0.000 A 
ATOM     19  C   UNL     1      -1.225  12.527  21.859  0.00  0.00    +0.000 A 
ATOM     20  C   UNL     1      -0.666  11.851  20.768  0.00  0.00    +0.000 A 
ENDBRANCH  12  15
ENDBRANCH   4  11
BRANCH   1  21
ATOM     21  S   UNL     1       4.874   5.690  16.406  0.00  0.00    +0.000 S 
ATOM     22  O   UNL     1       5.085   6.663  15.354  0.00  0.00    +0.000 OA
ATOM     23  O   UNL     1       4.470   4.339  16.080  0.00  0.00    +0.000 OA
BRANCH  21  24
ATOM     24  N   UNL     1       6.348   5.553  17.299  0.00  0.00    +0.000 NA
BRANCH  24  26
ATOM     25  C   UNL     1       7.469   4.628  15.244  0.00  0.00    +0.000 C 
ATOM     26  C   UNL     1       7.301   4.539  16.753  0.00  0.00    +0.000 C 
ENDBRANCH  24  26
BRANCH  24  27
ATOM     27  C   UNL     1       6.953   6.877  17.646  0.00  0.00    +0.000 C 
ATOM     28  C   UNL     1       8.056   6.793  18.689  0.00  0.00    +0.000 C 
ENDBRANCH  24  27
ENDBRANCH  21  24
ENDBRANCH   1  21
TORSDOF 6
ENDMDL
MODEL 6
REMARK VINA RESULT:      -7.3      2.289      8.020
REMARK  Name = 
REMARK  8 active torsions:
REMARK  status: ('A' for Active; 'I' for Inactive)
REMARK    1  A    between atoms: C_1  and  C_2
REMARK    2  A    between atoms: C_2  and  N_3
REMARK    3  A    between atoms: N_3  and  C_4
REMARK    4  A    between atoms: N_3  and  S_6
REMARK    5  A    between atoms: C_4  and  C_5
REMARK    6  A    between atoms: S_6  and  C_9
REMARK    7  A    between atoms: C_12  and  N_13
REMARK    8  A    between atoms: C_14  and  C_16
REMARK                            x       y       z     vdW  Elec       q    Type
REMARK                         _______ _______ _______ _____ _____    ______ ____
ROOT
ATOM      1  C   UNL     1       1.922   7.583  19.819  0.00  0.00    +0.000 A 
ATOM      2  C   UNL     1       2.407   8.309  18.728  0.00  0.00    +0.000 A 
ATOM      3  C   UNL     1       3.178   7.693  17.754  0.00  0.00    +0.000 A 
ATOM      4  C   UNL     1       3.482   6.332  17.823  0.00  0.00    +0.000 A 
ATOM      5  C   UNL     1       3.030   5.570  18.955  0.00  0.00    +0.000 A 
ATOM      6  C   UNL     1       3.344   4.192  19.129  0.00  0.00    +0.000 A 
ATOM      7  C   UNL     1       2.919   3.447  20.231  0.00  0.00    +0.000 A 
ATOM      8  C   UNL     1       2.165   4.056  21.210  0.00  0.00    +0.000 A 
ATOM      9  C   UNL     1       1.837   5.404  21.082  0.00  0.00    +0.000 A 
ATOM     10  C   UNL     1       2.241   6.203  19.977  0.00  0.00    +0.000 A 
ENDROOT
BRANCH   4  11
ATOM     11  N   UNL     1       4.209   5.701  16.761  0.00  0.00    +0.000 N 
ATOM     12  C   UNL     1       5.487   6.014  16.312  0.00  0.00    +0.000 C 
ATOM     13  O   UNL     1       6.248   6.842  16.801  0.00  0.00    +0.000 OA
ATOM     14  H   UNL     1       3.704   5.017  16.222  0.00  0.00    +0.000 HD
BRANCH  12  15
ATOM     15  C   UNL     1       5.961   5.306  15.083  0.00  0.00    +0.000 A 
ATOM     16  C   UNL     1       5.102   4.348  14.519  0.00  0.00    +0.000 A 
ATOM     17  C   UNL     1       5.476   3.640  13.376  0.00  0.00    +0.000 A 
ATOM     18  C   UNL     1       6.708   3.887  12.782  0.00  0.00    +0.000 A 
ATOM     19  C   UNL     1       7.559   4.856  13.317  0.00  0.00    +0.000 A 
ATOM     20  C   UNL     1       7.189   5.570  14.464  0.00  0.00    +0.000 A 
ENDBRANCH  12  15
ENDBRANCH   4  11
BRANCH   1  21
ATOM     21  S   UNL     1       0.929   8.562  20.951  0.00  0.00    +0.000 S 
ATOM     22  O   UNL     1       1.786   8.905  22.066  0.00  0.00    +0.000 OA
ATOM     23  O   UNL     1      -0.362   7.951  21.183  0.00  0.00    +0.000 OA
BRANCH  21  24
ATOM     24  N   UNL     1       0.625  10.010  20.056  0.00  0.00    +0.000 NA
BRANCH  24  26
ATOM     25  C   UNL     1      -0.756  10.120  17.955  0.00  0.00    +0.000 C 
ATOM     26  C   UNL     1      -0.750  10.092  19.476  0.00  0.00    +0.000 C 
ENDBRANCH  24  26
BRANCH  24  27
ATOM     27  C   UNL     1       1.099  11.245  20.755  0.00  0.00    +0.000 C 
ATOM     28  C   UNL     1      -0.022  12.080  21.353  0.00  0.00    +0.000 C 
ENDBRANCH  24  27
ENDBRANCH  21  24
ENDBRANCH   1  21
TORSDOF 6
ENDMDL
MODEL 7
REMARK VINA RESULT:      -7.3      2.376      7.965
REMARK  Name = 
REMARK  8 active torsions:
REMARK  status: ('A' for Active; 'I' for Inactive)
REMARK    1  A    between atoms: C_1  and  C_2
REMARK    2  A    between atoms: C_2  and  N_3
REMARK    3  A    between atoms: N_3  and  C_4
REMARK    4  A    between atoms: N_3  and  S_6
REMARK    5  A    between atoms: C_4  and  C_5
REMARK    6  A    between atoms: S_6  and  C_9
REMARK    7  A    between atoms: C_12  and  N_13
REMARK    8  A    between atoms: C_14  and  C_16
REMARK                            x       y       z     vdW  Elec       q    Type
REMARK                         _______ _______ _______ _____ _____    ______ ____
ROOT
ATOM      1  C   UNL     1       1.862   7.626  19.860  0.00  0.00    +0.000 A 
ATOM      2  C   UNL     1       2.340   8.346  18.763  0.00  0.00    +0.000 A 
ATOM      3  C   UNL     1       3.087   7.721  17.776  0.00  0.00    +0.000 A 
ATOM      4  C   UNL     1       3.375   6.356  17.839  0.00  0.00    +0.000 A 
ATOM      5  C   UNL     1       2.930   5.599  18.977  0.00  0.00    +0.000 A 
ATOM      6  C   UNL     1       3.228   4.217  19.145  0.00  0.00    +0.000 A 
ATOM      7  C   UNL     1       2.810   3.477  20.253  0.00  0.00    +0.000 A 
ATOM      8  C   UNL     1       2.080   4.095  21.244  0.00  0.00    +0.000 A 
ATOM      9  C   UNL     1       1.768   5.447  21.122  0.00  0.00    +0.000 A 
ATOM     10  C   UNL     1       2.166   6.242  20.012  0.00  0.00    +0.000 A 
ENDROOT
BRANCH   4  11
ATOM     11  N   UNL     1       4.076   5.716  16.765  0.00  0.00    +0.000 N 
ATOM     12  C   UNL     1       5.422   5.847  16.442  0.00  0.00    +0.000 C 
ATOM     13  O   UNL     1       6.264   6.478  17.072  0.00  0.00    +0.000 OA
ATOM     14  H   UNL     1       3.514   5.186  16.120  0.00  0.00    +0.000 HD
BRANCH  12  15
ATOM     15  C   UNL     1       5.877   5.192  15.178  0.00  0.00    +0.000 A 
ATOM     16  C   UNL     1       7.159   5.523  14.705  0.00  0.00    +0.000 A 
ATOM     17  C   UNL     1       7.652   4.959  13.528  0.00  0.00    +0.000 A 
ATOM     18  C   UNL     1       6.874   4.053  12.816  0.00  0.00    +0.000 A 
ATOM     19  C   UNL     1       5.610   3.696  13.289  0.00  0.00    +0.000 A 
ATOM     20  C   UNL     1       5.110   4.259  14.470  0.00  0.00    +0.000 A 
ENDBRANCH  12  15
ENDBRANCH   4  11
BRANCH   1  21
ATOM     21  S   UNL     1       0.900   8.617  21.008  0.00  0.00    +0.000 S 
ATOM     22  O   UNL     1       1.787   8.970  22.097  0.00  0.00    +0.000 OA
ATOM     23  O   UNL     1      -0.385   8.009  21.281  0.00  0.00    +0.000 OA
BRANCH  21  24
ATOM     24  N   UNL     1       0.573  10.056  20.108  0.00  0.00    +0.000 NA
BRANCH  24  26
ATOM     25  C   UNL     1      -0.835  10.172  18.025  0.00  0.00    +0.000 C 
ATOM     26  C   UNL     1      -0.810  10.125  19.545  0.00  0.00    +0.000 C 
ENDBRANCH  24  26
BRANCH  24  27
ATOM     27  C   UNL     1       1.047  11.300  20.791  0.00  0.00    +0.000 C 
ATOM     28  C   UNL     1       1.494  12.393  19.834  0.00  0.00    +0.000 C 
ENDBRANCH  24  27
ENDBRANCH  21  24
ENDBRANCH   1  21
TORSDOF 6
ENDMDL
MODEL 8
REMARK VINA RESULT:      -7.2      0.944      1.318
REMARK  Name = 
REMARK  8 active torsions:
REMARK  status: ('A' for Active; 'I' for Inactive)
REMARK    1  A    between atoms: C_1  and  C_2
REMARK    2  A    between atoms: C_2  and  N_3
REMARK    3  A    between atoms: N_3  and  C_4
REMARK    4  A    between atoms: N_3  and  S_6
REMARK    5  A    between atoms: C_4  and  C_5
REMARK    6  A    between atoms: S_6  and  C_9
REMARK    7  A    between atoms: C_12  and  N_13
REMARK    8  A    between atoms: C_14  and  C_16
REMARK                            x       y       z     vdW  Elec       q    Type
REMARK                         _______ _______ _______ _____ _____    ______ ____
ROOT
ATOM      1  C   UNL     1       3.941   5.617  18.089  0.00  0.00    +0.000 A 
ATOM      2  C   UNL     1       3.969   6.948  17.667  0.00  0.00    +0.000 A 
ATOM      3  C   UNL     1       3.090   7.880  18.201  0.00  0.00    +0.000 A 
ATOM      4  C   UNL     1       2.164   7.522  19.182  0.00  0.00    +0.000 A 
ATOM      5  C   UNL     1       2.086   6.150  19.606  0.00  0.00    +0.000 A 
ATOM      6  C   UNL     1       1.133   5.693  20.560  0.00  0.00    +0.000 A 
ATOM      7  C   UNL     1       1.043   4.361  20.968  0.00  0.00    +0.000 A 
ATOM      8  C   UNL     1       1.903   3.429  20.431  0.00  0.00    +0.000 A 
ATOM      9  C   UNL     1       2.850   3.831  19.492  0.00  0.00    +0.000 A 
ATOM     10  C   UNL     1       2.984   5.176  19.048  0.00  0.00    +0.000 A 
ENDROOT
BRANCH   4  11
ATOM     11  N   UNL     1       1.324   8.519  19.778  0.00  0.00    +0.000 N 
ATOM     12  C   UNL     1       1.308   8.921  21.109  0.00  0.00    +0.000 C 
ATOM     13  O   UNL     1       2.069   8.542  21.994  0.00  0.00    +0.000 OA
ATOM     14  H   UNL     1       0.605   8.905  19.189  0.00  0.00    +0.000 HD
BRANCH  12  15
ATOM     15  C   UNL     1       0.228   9.873  21.512  0.00  0.00    +0.000 A 
ATOM     16  C   UNL     1      -0.337  10.672  20.503  0.00  0.00    +0.000 A 
ATOM     17  C   UNL     1      -1.345  11.590  20.801  0.00  0.00    +0.000 A 
ATOM     18  C   UNL     1      -1.804  11.713  22.107  0.00  0.00    +0.000 A 
ATOM     19  C   UNL     1      -1.270  10.906  23.114  0.00  0.00    +0.000 A 
ATOM     20  C   UNL     1      -0.258   9.983  22.820  0.00  0.00    +0.000 A 
ENDBRANCH  12  15
ENDBRANCH   4  11
BRANCH   1  21
ATOM     21  S   UNL     1       5.173   4.583  17.291  0.00  0.00    +0.000 S 
ATOM     22  O   UNL     1       4.452   3.645  16.456  0.00  0.00    +0.000 OA
ATOM     23  O   UNL     1       6.158   4.109  18.239  0.00  0.00    +0.000 OA
BRANCH  21  24
ATOM     24  N   UNL     1       5.999   5.688  16.248  0.00  0.00    +0.000 NA
BRANCH  24  26
ATOM     25  C   UNL     1       7.501   7.281  17.488  0.00  0.00    +0.000 C 
ATOM     26  C   UNL     1       7.397   6.001  16.673  0.00  0.00    +0.000 C 
ENDBRANCH  24  26
BRANCH  24  27
ATOM     27  C   UNL     1       5.829   5.368  14.796  0.00  0.00    +0.000 C 
ATOM     28  C   UNL     1       6.979   4.569  14.205  0.00  0.00    +0.000 C 
ENDBRANCH  24  27
ENDBRANCH  21  24
ENDBRANCH   1  21
TORSDOF 6
ENDMDL
MODEL 9
REMARK VINA RESULT:      -7.1      1.886      2.600
REMARK  Name = 
REMARK  8 active torsions:
REMARK  status: ('A' for Active; 'I' for Inactive)
REMARK    1  A    between atoms: C_1  and  C_2
REMARK    2  A    between atoms: C_2  and  N_3
REMARK    3  A    between atoms: N_3  and  C_4
REMARK    4  A    between atoms: N_3  and  S_6
REMARK    5  A    between atoms: C_4  and  C_5
REMARK    6  A    between atoms: S_6  and  C_9
REMARK    7  A    between atoms: C_12  and  N_13
REMARK    8  A    between atoms: C_14  and  C_16
REMARK                            x       y       z     vdW  Elec       q    Type
REMARK                         _______ _______ _______ _____ _____    ______ ____
ROOT
ATOM      1  C   UNL     1       5.085   4.973  16.725  0.00  0.00    +0.000 A 
ATOM      2  C   UNL     1       5.323   6.348  16.800  0.00  0.00    +0.000 A 
ATOM      3  C   UNL     1       4.417   7.192  17.425  0.00  0.00    +0.000 A 
ATOM      4  C   UNL     1       3.249   6.696  18.009  0.00  0.00    +0.000 A 
ATOM      5  C   UNL     1       2.959   5.291  17.911  0.00  0.00    +0.000 A 
ATOM      6  C   UNL     1       1.765   4.715  18.431  0.00  0.00    +0.000 A 
ATOM      7  C   UNL     1       1.470   3.354  18.330  0.00  0.00    +0.000 A 
ATOM      8  C   UNL     1       2.359   2.513  17.698  0.00  0.00    +0.000 A 
ATOM      9  C   UNL     1       3.539   3.035  17.172  0.00  0.00    +0.000 A 
ATOM     10  C   UNL     1       3.887   4.411  17.253  0.00  0.00    +0.000 A 
ENDROOT
BRANCH   4  11
ATOM     11  N   UNL     1       2.370   7.575  18.722  0.00  0.00    +0.000 N 
ATOM     12  C   UNL     1       1.881   8.805  18.296  0.00  0.00    +0.000 C 
ATOM     13  O   UNL     1       2.057   9.318  17.196  0.00  0.00    +0.000 OA
ATOM     14  H   UNL     1       2.158   7.317  19.671  0.00  0.00    +0.000 HD
BRANCH  12  15
ATOM     15  C   UNL     1       1.101   9.601  19.293  0.00  0.00    +0.000 A 
ATOM     16  C   UNL     1       0.679  10.884  18.906  0.00  0.00    +0.000 A 
ATOM     17  C   UNL     1      -0.047  11.691  19.783  0.00  0.00    +0.000 A 
ATOM     18  C   UNL     1      -0.365  11.221  21.052  0.00  0.00    +0.000 A 
ATOM     19  C   UNL     1       0.027   9.937  21.440  0.00  0.00    +0.000 A 
ATOM     20  C   UNL     1       0.755   9.123  20.563  0.00  0.00    +0.000 A 
ENDBRANCH  12  15
ENDBRANCH   4  11
BRANCH   1  21
ATOM     21  S   UNL     1       6.390   4.061  15.896  0.00  0.00    +0.000 S 
ATOM     22  O   UNL     1       5.965   2.678  15.848  0.00  0.00    +0.000 OA
ATOM     23  O   UNL     1       7.693   4.407  16.423  0.00  0.00    +0.000 OA
BRANCH  21  24
ATOM     24  N   UNL     1       6.342   4.681  14.282  0.00  0.00    +0.000 NA
BRANCH  24  26
ATOM     25  C   UNL     1       8.101   5.440  12.651  0.00  0.00    +0.000 C 
ATOM     26  C   UNL     1       7.406   5.686  13.982  0.00  0.00    +0.000 C 
ENDBRANCH  24  26
BRANCH  24  27
ATOM     27  C   UNL     1       6.156   3.617  13.246  0.00  0.00    +0.000 C 
ATOM     28  C   UNL     1       4.855   3.740  12.468  0.00  0.00    +0.000 C 
ENDBRANCH  24  27
ENDBRANCH  21  24
ENDBRANCH   1  21
TORSDOF 6
ENDMDL
