MODEL 1
REMARK VINA RESULT:      -4.6      0.000      0.000
REMARK  Name = 
REMARK  0 active torsions:
REMARK  status: ('A' for Active; 'I' for Inactive)
REMARK                            x       y       z     vdW  Elec       q    Type
REMARK                         _______ _______ _______ _____ _____    ______ ____
ROOT
ATOM      1  N   UNL     1       6.778   5.117  14.976  0.00  0.00    +0.000 N 
ATOM      2  C   UNL     1       7.152   5.470  16.271  0.00  0.00    +0.000 A 
ATOM      3  C   UNL     1       7.194   4.532  17.307  0.00  0.00    +0.000 A 
ATOM      4  N   UNL     1       7.528   4.846  18.585  0.00  0.00    +0.000 NA
ATOM      5  C   UNL     1       7.798   6.156  18.790  0.00  0.00    +0.000 A 
ATOM      6  C   UNL     1       7.742   7.087  17.766  0.00  0.00    +0.000 A 
ATOM      7 CL   UNL     1       8.085   8.743  18.038  0.00  0.00    +0.000 Cl
ATOM      8  N   UNL     1       7.422   6.768  16.492  0.00  0.00    +0.000 NA
ATOM      9  H   UNL     1       7.324   4.344  14.612  0.00  0.00    +0.000 HD
ATOM     10  H   UNL     1       6.862   5.948  14.395  0.00  0.00    +0.000 HD
ENDROOT
TORSDOF 0
ENDMDL
MODEL 2
REMARK VINA RESULT:      -4.5      2.092      2.953
REMARK  Name = 
REMARK  0 active torsions:
REMARK  status: ('A' for Active; 'I' for Inactive)
REMARK                            x       y       z     vdW  Elec       q    Type
REMARK                         _______ _______ _______ _____ _____    ______ ____
ROOT
ATOM      1  N   UNL     1       7.749   8.480  17.469  0.00  0.00    +0.000 N 
ATOM      2  C   UNL     1       7.589   7.095  17.488  0.00  0.00    +0.000 A 
ATOM      3  C   UNL     1       7.788   6.347  18.651  0.00  0.00    +0.000 A 
ATOM      4  N   UNL     1       7.667   4.996  18.700  0.00  0.00    +0.000 NA
ATOM      5  C   UNL     1       7.359   4.417  17.516  0.00  0.00    +0.000 A 
ATOM      6  C   UNL     1       7.175   5.158  16.361  0.00  0.00    +0.000 A 
ATOM      7 CL   UNL     1       6.786   4.413  14.868  0.00  0.00    +0.000 Cl
ATOM      8  N   UNL     1       7.284   6.505  16.320  0.00  0.00    +0.000 NA
ATOM      9  H   UNL     1       7.194   8.943  18.181  0.00  0.00    +0.000 HD
ATOM     10  H   UNL     1       7.512   8.803  16.534  0.00  0.00    +0.000 HD
ENDROOT
TORSDOF 0
ENDMDL
MODEL 3
REMARK VINA RESULT:      -4.5      5.780      6.554
REMARK  Name = 
REMARK  0 active torsions:
REMARK  status: ('A' for Active; 'I' for Inactive)
REMARK                            x       y       z     vdW  Elec       q    Type
REMARK                         _______ _______ _______ _____ _____    ______ ____
ROOT
ATOM      1  N   UNL     1       5.430   3.436  18.982  0.00  0.00    +0.000 N 
ATOM      2  C   UNL     1       4.087   3.066  18.929  0.00  0.00    +0.000 A 
ATOM      3  C   UNL     1       3.448   2.787  17.718  0.00  0.00    +0.000 A 
ATOM      4  N   UNL     1       2.136   2.450  17.626  0.00  0.00    +0.000 NA
ATOM      5  C   UNL     1       1.478   2.427  18.808  0.00  0.00    +0.000 A 
ATOM      6  C   UNL     1       2.109   2.718  20.006  0.00  0.00    +0.000 A 
ATOM      7 CL   UNL     1       1.264   2.686  21.497  0.00  0.00    +0.000 Cl
ATOM      8  N   UNL     1       3.419   3.040  20.095  0.00  0.00    +0.000 NA
ATOM      9  H   UNL     1       6.034   2.771  18.511  0.00  0.00    +0.000 HD
ATOM     10  H   UNL     1       5.679   3.546  19.963  0.00  0.00    +0.000 HD
ENDROOT
TORSDOF 0
ENDMDL
MODEL 4
REMARK VINA RESULT:      -4.5      6.059      6.565
REMARK  Name = 
REMARK  0 active torsions:
REMARK  status: ('A' for Active; 'I' for Inactive)
REMARK                            x       y       z     vdW  Elec       q    Type
REMARK                         _______ _______ _______ _____ _____    ______ ____
ROOT
ATOM      1  N   UNL     1       5.042   1.723  19.883  0.00  0.00    +0.000 N 
ATOM      2  C   UNL     1       3.833   2.184  19.363  0.00  0.00    +0.000 A 
ATOM      3  C   UNL     1       3.405   1.837  18.079  0.00  0.00    +0.000 A 
ATOM      4  N   UNL     1       2.248   2.288  17.531  0.00  0.00    +0.000 NA
ATOM      5  C   UNL     1       1.542   3.130  18.322  0.00  0.00    +0.000 A 
ATOM      6  C   UNL     1       1.975   3.483  19.589  0.00  0.00    +0.000 A 
ATOM      7 CL   UNL     1       1.073   4.550  20.580  0.00  0.00    +0.000 Cl
ATOM      8  N   UNL     1       3.121   3.022  20.136  0.00  0.00    +0.000 NA
ATOM      9  H   UNL     1       5.122   0.713  19.841  0.00  0.00    +0.000 HD
ATOM     10  H   UNL     1       5.118   2.070  20.837  0.00  0.00    +0.000 HD
ENDROOT
TORSDOF 0
ENDMDL
MODEL 5
REMARK VINA RESULT:      -4.4      6.004      6.697
REMARK  Name = 
REMARK  0 active torsions:
REMARK  status: ('A' for Active; 'I' for Inactive)
REMARK                            x       y       z     vdW  Elec       q    Type
REMARK                         _______ _______ _______ _____ _____    ______ ____
ROOT
ATOM      1  N   UNL     1       4.871   2.005  20.100  0.00  0.00    +0.000 N 
ATOM      2  C   UNL     1       3.619   2.614  20.138  0.00  0.00    +0.000 A 
ATOM      3  C   UNL     1       2.830   2.602  21.291  0.00  0.00    +0.000 A 
ATOM      4  N   UNL     1       1.594   3.161  21.357  0.00  0.00    +0.000 NA
ATOM      5  C   UNL     1       1.168   3.718  20.200  0.00  0.00    +0.000 A 
ATOM      6  C   UNL     1       1.945   3.718  19.054  0.00  0.00    +0.000 A 
ATOM      7 CL   UNL     1       1.393   4.426  17.594  0.00  0.00    +0.000 Cl
ATOM      8  N   UNL     1       3.180   3.171  18.996  0.00  0.00    +0.000 NA
ATOM      9  H   UNL     1       5.482   2.328  20.842  0.00  0.00    +0.000 HD
ATOM     10  H   UNL     1       5.269   2.179  19.179  0.00  0.00    +0.000 HD
ENDROOT
TORSDOF 0
ENDMDL
MODEL 6
REMARK VINA RESULT:      -4.4      2.464      3.691
REMARK  Name = 
REMARK  0 active torsions:
REMARK  status: ('A' for Active; 'I' for Inactive)
REMARK                            x       y       z     vdW  Elec       q    Type
REMARK                         _______ _______ _______ _____ _____    ______ ____
ROOT
ATOM      1  N   UNL     1       8.285   5.433  20.165  0.00  0.00    +0.000 N 
ATOM      2  C   UNL     1       7.616   5.674  18.966  0.00  0.00    +0.000 A 
ATOM      3  C   UNL     1       7.820   6.844  18.231  0.00  0.00    +0.000 A 
ATOM      4  N   UNL     1       7.166   7.124  17.075  0.00  0.00    +0.000 NA
ATOM      5  C   UNL     1       6.272   6.182  16.694  0.00  0.00    +0.000 A 
ATOM      6  C   UNL     1       6.061   5.028  17.430  0.00  0.00    +0.000 A 
ATOM      7 CL   UNL     1       4.925   3.844  16.937  0.00  0.00    +0.000 Cl
ATOM      8  N   UNL     1       6.723   4.748  18.574  0.00  0.00    +0.000 NA
ATOM      9  H   UNL     1       9.292   5.514  20.069  0.00  0.00    +0.000 HD
ATOM     10  H   UNL     1       8.008   4.510  20.491  0.00  0.00    +0.000 HD
ENDROOT
TORSDOF 0
ENDMDL
MODEL 7
REMARK VINA RESULT:      -4.2      2.853      3.290
REMARK  Name = 
REMARK  0 active torsions:
REMARK  status: ('A' for Active; 'I' for Inactive)
REMARK                            x       y       z     vdW  Elec       q    Type
REMARK                         _______ _______ _______ _____ _____    ______ ____
ROOT
ATOM      1  N   UNL     1       7.513   5.156  15.139  0.00  0.00    +0.000 N 
ATOM      2  C   UNL     1       6.797   4.866  16.299  0.00  0.00    +0.000 A 
ATOM      3  C   UNL     1       7.401   4.883  17.560  0.00  0.00    +0.000 A 
ATOM      4  N   UNL     1       6.741   4.580  18.707  0.00  0.00    +0.000 NA
ATOM      5  C   UNL     1       5.445   4.232  18.535  0.00  0.00    +0.000 A 
ATOM      6  C   UNL     1       4.852   4.202  17.284  0.00  0.00    +0.000 A 
ATOM      7 CL   UNL     1       3.209   3.760  17.079  0.00  0.00    +0.000 Cl
ATOM      8  N   UNL     1       5.508   4.517  16.145  0.00  0.00    +0.000 NA
ATOM      9  H   UNL     1       7.992   6.048  15.192  0.00  0.00    +0.000 HD
ATOM     10  H   UNL     1       6.860   5.121  14.359  0.00  0.00    +0.000 HD
ENDROOT
TORSDOF 0
ENDMDL
MODEL 8
REMARK VINA RESULT:      -4.2      5.092      5.692
REMARK  Name = 
REMARK  0 active torsions:
REMARK  status: ('A' for Active; 'I' for Inactive)
REMARK                            x       y       z     vdW  Elec       q    Type
REMARK                         _______ _______ _______ _____ _____    ______ ____
ROOT
ATOM      1  N   UNL     1       4.129   0.937  18.449  0.00  0.00    +0.000 N 
ATOM      2  C   UNL     1       3.392   2.097  18.218  0.00  0.00    +0.000 A 
ATOM      3  C   UNL     1       1.999   2.117  18.323  0.00  0.00    +0.000 A 
ATOM      4  N   UNL     1       1.247   3.220  18.079  0.00  0.00    +0.000 NA
ATOM      5  C   UNL     1       1.955   4.309  17.698  0.00  0.00    +0.000 A 
ATOM      6  C   UNL     1       3.334   4.285  17.580  0.00  0.00    +0.000 A 
ATOM      7 CL   UNL     1       4.219   5.670  17.096  0.00  0.00    +0.000 Cl
ATOM      8  N   UNL     1       4.080   3.187  17.837  0.00  0.00    +0.000 NA
ATOM      9  H   UNL     1       3.926   0.522  19.352  0.00  0.00    +0.000 HD
ATOM     10  H   UNL     1       5.115   1.176  18.355  0.00  0.00    +0.000 HD
ENDROOT
TORSDOF 0
ENDMDL
MODEL 9
REMARK VINA RESULT:      -4.2      1.930      2.227
REMARK  Name = 
REMARK  0 active torsions:
REMARK  status: ('A' for Active; 'I' for Inactive)
REMARK                            x       y       z     vdW  Elec       q    Type
REMARK                         _______ _______ _______ _____ _____    ______ ____
ROOT
ATOM      1  N   UNL     1       7.460   5.224  14.466  0.00  0.00    +0.000 N 
ATOM      2  C   UNL     1       6.896   4.941  15.709  0.00  0.00    +0.000 A 
ATOM      3  C   UNL     1       5.687   4.249  15.828  0.00  0.00    +0.000 A 
ATOM      4  N   UNL     1       5.096   3.979  17.019  0.00  0.00    +0.000 NA
ATOM      5  C   UNL     1       5.760   4.457  18.097  0.00  0.00    +0.000 A 
ATOM      6  C   UNL     1       6.951   5.154  17.977  0.00  0.00    +0.000 A 
ATOM      7 CL   UNL     1       7.782   5.754  19.350  0.00  0.00    +0.000 Cl
ATOM      8  N   UNL     1       7.543   5.410  16.789  0.00  0.00    +0.000 NA
ATOM      9  H   UNL     1       7.571   4.395  13.893  0.00  0.00    +0.000 HD
ATOM     10  H   UNL     1       8.348   5.693  14.632  0.00  0.00    +0.000 HD
ENDROOT
TORSDOF 0
ENDMDL
