MODEL 1
REMARK VINA RESULT:      -8.3      0.000      0.000
REMARK  Name = 
REMARK  7 active torsions:
REMARK  status: ('A' for Active; 'I' for Inactive)
REMARK    1  A    between atoms: C_1  and  O_2
REMARK    2  A    between atoms: O_2  and  C_3
REMARK    3  A    between atoms: C_6  and  C_7
REMARK    4  A    between atoms: C_7  and  C_8
REMARK    5  A    between atoms: C_8  and  N_9
REMARK    6  A    between atoms: C_24  and  O_25
REMARK    7  A    between atoms: O_25  and  C_26
REMARK                            x       y       z     vdW  Elec       q    Type
REMARK                         _______ _______ _______ _____ _____    ______ ____
ROOT
ATOM      1  N   UNL     1       7.836   7.497  16.899  0.00  0.00    +0.000 N 
ATOM      2  C   UNL     1       6.791   6.590  16.930  0.00  0.00    +0.000 A 
ATOM      3  N   UNL     1       5.894   6.661  17.884  0.00  0.00    +0.000 NA
ATOM      4  C   UNL     1       4.824   5.737  17.939  0.00  0.00    +0.000 A 
ATOM      5  C   UNL     1       3.894   5.844  18.971  0.00  0.00    +0.000 A 
ATOM      6  C   UNL     1       2.830   4.943  19.063  0.00  0.00    +0.000 A 
ATOM      7  C   UNL     1       2.683   3.921  18.118  0.00  0.00    +0.000 A 
ATOM      8  C   UNL     1       3.600   3.793  17.076  0.00  0.00    +0.000 A 
ATOM      9  C   UNL     1       4.654   4.705  17.005  0.00  0.00    +0.000 A 
ATOM     10  N   UNL     1       5.623   4.660  16.010  0.00  0.00    +0.000 N 
ATOM     11  N   UNL     1       5.729   3.778  15.003  0.00  0.00    +0.000 NA
ATOM     12  N   UNL     1       6.829   4.141  14.346  0.00  0.00    +0.000 NA
ATOM     13  N   UNL     1       7.423   5.246  14.929  0.00  0.00    +0.000 NA
ATOM     14  C   UNL     1       6.652   5.546  15.950  0.00  0.00    +0.000 A 
ATOM     15  H   UNL     1       8.594   7.237  16.271  0.00  0.00    +0.000 HD
ENDROOT
BRANCH   1  16
ATOM     16  C   UNL     1       8.241   8.196  18.112  0.00  0.00    +0.000 C 
BRANCH  16  17
ATOM     17  C   UNL     1       7.982   9.703  18.008  0.00  0.00    +0.000 C 
BRANCH  17  21
ATOM     18  C   UNL     1      11.216  12.175  19.482  0.00  0.00    +0.000 A 
ATOM     19  C   UNL     1      11.233  11.679  18.168  0.00  0.00    +0.000 A 
ATOM     20  C   UNL     1      10.205  10.862  17.692  0.00  0.00    +0.000 A 
ATOM     21  C   UNL     1       9.162  10.484  18.537  0.00  0.00    +0.000 A 
ATOM     22  C   UNL     1       9.197  10.903  19.874  0.00  0.00    +0.000 A 
ATOM     23  C   UNL     1      10.216  11.740  20.362  0.00  0.00    +0.000 A 
BRANCH  18  25
ATOM     24  C   UNL     1      11.955  14.422  19.562  0.00  0.00    +0.000 C 
ATOM     25  O   UNL     1      12.174  13.054  19.912  0.00  0.00    +0.000 OA
ENDBRANCH  18  25
BRANCH  23  26
ATOM     26  O   UNL     1      10.042  12.038  21.687  0.00  0.00    +0.000 OA
ATOM     27  C   UNL     1       9.289  13.185  22.048  0.00  0.00    +0.000 C 
ENDBRANCH  23  26
ENDBRANCH  17  21
ENDBRANCH  16  17
ENDBRANCH   1  16
TORSDOF 5
ENDMDL
MODEL 2
REMARK VINA RESULT:      -8.2      5.751      8.544
REMARK  Name = 
REMARK  7 active torsions:
REMARK  status: ('A' for Active; 'I' for Inactive)
REMARK    1  A    between atoms: C_1  and  O_2
REMARK    2  A    between atoms: O_2  and  C_3
REMARK    3  A    between atoms: C_6  and  C_7
REMARK    4  A    between atoms: C_7  and  C_8
REMARK    5  A    between atoms: C_8  and  N_9
REMARK    6  A    between atoms: C_24  and  O_25
REMARK    7  A    between atoms: O_25  and  C_26
REMARK                            x       y       z     vdW  Elec       q    Type
REMARK                         _______ _______ _______ _____ _____    ______ ____
ROOT
ATOM      1  N   UNL     1       2.458   6.472  20.010  0.00  0.00    +0.000 N 
ATOM      2  C   UNL     1       1.806   7.671  20.239  0.00  0.00    +0.000 A 
ATOM      3  N   UNL     1       1.177   7.865  21.373  0.00  0.00    +0.000 NA
ATOM      4  C   UNL     1       0.495   9.079  21.623  0.00  0.00    +0.000 A 
ATOM      5  C   UNL     1      -0.164   9.244  22.838  0.00  0.00    +0.000 A 
ATOM      6  C   UNL     1      -0.856  10.427  23.115  0.00  0.00    +0.000 A 
ATOM      7  C   UNL     1      -0.895  11.462  22.174  0.00  0.00    +0.000 A 
ATOM      8  C   UNL     1      -0.242  11.322  20.951  0.00  0.00    +0.000 A 
ATOM      9  C   UNL     1       0.442  10.132  20.697  0.00  0.00    +0.000 A 
ATOM     10  N   UNL     1       1.118   9.891  19.507  0.00  0.00    +0.000 N 
ATOM     11  N   UNL     1       1.221  10.700  18.441  0.00  0.00    +0.000 NA
ATOM     12  N   UNL     1       1.941  10.010  17.558  0.00  0.00    +0.000 NA
ATOM     13  N   UNL     1       2.294   8.769  18.056  0.00  0.00    +0.000 NA
ATOM     14  C   UNL     1       1.777   8.728  19.263  0.00  0.00    +0.000 A 
ATOM     15  H   UNL     1       2.722   6.321  19.039  0.00  0.00    +0.000 HD
ENDROOT
BRANCH   1  16
ATOM     16  C   UNL     1       2.078   5.274  20.747  0.00  0.00    +0.000 C 
BRANCH  16  17
ATOM     17  C   UNL     1       1.961   4.057  19.824  0.00  0.00    +0.000 C 
BRANCH  17  21
ATOM     18  C   UNL     1       5.266   4.209  17.032  0.00  0.00    +0.000 A 
ATOM     19  C   UNL     1       3.962   3.935  16.586  0.00  0.00    +0.000 A 
ATOM     20  C   UNL     1       2.894   3.861  17.484  0.00  0.00    +0.000 A 
ATOM     21  C   UNL     1       3.117   4.012  18.852  0.00  0.00    +0.000 A 
ATOM     22  C   UNL     1       4.432   4.192  19.302  0.00  0.00    +0.000 A 
ATOM     23  C   UNL     1       5.514   4.285  18.409  0.00  0.00    +0.000 A 
BRANCH  18  25
ATOM     24  C   UNL     1       5.911   4.393  14.762  0.00  0.00    +0.000 C 
ATOM     25  O   UNL     1       6.291   4.377  16.140  0.00  0.00    +0.000 OA
ENDBRANCH  18  25
BRANCH  23  26
ATOM     26  O   UNL     1       6.701   4.477  19.063  0.00  0.00    +0.000 OA
ATOM     27  C   UNL     1       7.329   5.748  19.004  0.00  0.00    +0.000 C 
ENDBRANCH  23  26
ENDBRANCH  17  21
ENDBRANCH  16  17
ENDBRANCH   1  16
TORSDOF 5
ENDMDL
MODEL 3
REMARK VINA RESULT:      -8.1      6.025      9.038
REMARK  Name = 
REMARK  7 active torsions:
REMARK  status: ('A' for Active; 'I' for Inactive)
REMARK    1  A    between atoms: C_1  and  O_2
REMARK    2  A    between atoms: O_2  and  C_3
REMARK    3  A    between atoms: C_6  and  C_7
REMARK    4  A    between atoms: C_7  and  C_8
REMARK    5  A    between atoms: C_8  and  N_9
REMARK    6  A    between atoms: C_24  and  O_25
REMARK    7  A    between atoms: O_25  and  C_26
REMARK                            x       y       z     vdW  Elec       q    Type
REMARK                         _______ _______ _______ _____ _____    ______ ____
ROOT
ATOM      1  N   UNL     1       1.925   7.796  20.218  0.00  0.00    +0.000 N 
ATOM      2  C   UNL     1       1.023   8.836  20.364  0.00  0.00    +0.000 A 
ATOM      3  N   UNL     1       0.467   9.372  19.305  0.00  0.00    +0.000 NA
ATOM      4  C   UNL     1      -0.449  10.442  19.432  0.00  0.00    +0.000 A 
ATOM      5  C   UNL     1      -1.016  10.985  18.282  0.00  0.00    +0.000 A 
ATOM      6  C   UNL     1      -1.917  12.050  18.369  0.00  0.00    +0.000 A 
ATOM      7  C   UNL     1      -2.263  12.584  19.615  0.00  0.00    +0.000 A 
ATOM      8  C   UNL     1      -1.711  12.057  20.782  0.00  0.00    +0.000 A 
ATOM      9  C   UNL     1      -0.814  10.995  20.669  0.00  0.00    +0.000 A 
ATOM     10  N   UNL     1      -0.204  10.404  21.769  0.00  0.00    +0.000 N 
ATOM     11  N   UNL     1      -0.344  10.733  23.063  0.00  0.00    +0.000 NA
ATOM     12  N   UNL     1       0.460   9.896  23.716  0.00  0.00    +0.000 NA
ATOM     13  N   UNL     1       1.110   9.040  22.847  0.00  0.00    +0.000 NA
ATOM     14  C   UNL     1       0.675   9.374  21.653  0.00  0.00    +0.000 A 
ATOM     15  H   UNL     1       2.468   7.596  21.055  0.00  0.00    +0.000 HD
ENDROOT
BRANCH   1  16
ATOM     16  C   UNL     1       2.628   7.604  18.955  0.00  0.00    +0.000 C 
BRANCH  16  17
ATOM     17  C   UNL     1       2.423   6.187  18.407  0.00  0.00    +0.000 C 
BRANCH  17  21
ATOM     18  C   UNL     1       5.929   4.838  16.255  0.00  0.00    +0.000 A 
ATOM     19  C   UNL     1       4.925   3.931  16.634  0.00  0.00    +0.000 A 
ATOM     20  C   UNL     1       3.803   4.354  17.349  0.00  0.00    +0.000 A 
ATOM     21  C   UNL     1       3.684   5.687  17.741  0.00  0.00    +0.000 A 
ATOM     22  C   UNL     1       4.731   6.570  17.444  0.00  0.00    +0.000 A 
ATOM     23  C   UNL     1       5.859   6.161  16.711  0.00  0.00    +0.000 A 
BRANCH  18  25
ATOM     24  C   UNL     1       6.796   4.610  14.065  0.00  0.00    +0.000 C 
ATOM     25  O   UNL     1       6.978   4.437  15.472  0.00  0.00    +0.000 OA
ENDBRANCH  18  25
BRANCH  23  26
ATOM     26  O   UNL     1       6.744   7.188  16.522  0.00  0.00    +0.000 OA
ATOM     27  C   UNL     1       7.636   7.539  17.568  0.00  0.00    +0.000 C 
ENDBRANCH  23  26
ENDBRANCH  17  21
ENDBRANCH  16  17
ENDBRANCH   1  16
TORSDOF 5
ENDMDL
MODEL 4
REMARK VINA RESULT:      -8.0      6.858      9.599
REMARK  Name = 
REMARK  7 active torsions:
REMARK  status: ('A' for Active; 'I' for Inactive)
REMARK    1  A    between atoms: C_1  and  O_2
REMARK    2  A    between atoms: O_2  and  C_3
REMARK    3  A    between atoms: C_6  and  C_7
REMARK    4  A    between atoms: C_7  and  C_8
REMARK    5  A    between atoms: C_8  and  N_9
REMARK    6  A    between atoms: C_24  and  O_25
REMARK    7  A    between atoms: O_25  and  C_26
REMARK                            x       y       z     vdW  Elec       q    Type
REMARK                         _______ _______ _______ _____ _____    ______ ____
ROOT
ATOM      1  N   UNL     1       1.726   8.401  19.163  0.00  0.00    +0.000 N 
ATOM      2  C   UNL     1       2.553   7.352  18.799  0.00  0.00    +0.000 A 
ATOM      3  N   UNL     1       3.318   7.463  17.739  0.00  0.00    +0.000 NA
ATOM      4  C   UNL     1       4.163   6.400  17.344  0.00  0.00    +0.000 A 
ATOM      5  C   UNL     1       4.957   6.556  16.210  0.00  0.00    +0.000 A 
ATOM      6  C   UNL     1       5.796   5.522  15.784  0.00  0.00    +0.000 A 
ATOM      7  C   UNL     1       5.850   4.316  16.491  0.00  0.00    +0.000 A 
ATOM      8  C   UNL     1       5.066   4.136  17.629  0.00  0.00    +0.000 A 
ATOM      9  C   UNL     1       4.235   5.182  18.036  0.00  0.00    +0.000 A 
ATOM     10  N   UNL     1       3.411   5.099  19.150  0.00  0.00    +0.000 N 
ATOM     11  N   UNL     1       3.257   4.059  19.985  0.00  0.00    +0.000 NA
ATOM     12  N   UNL     1       2.345   4.463  20.868  0.00  0.00    +0.000 NA
ATOM     13  N   UNL     1       1.919   5.751  20.600  0.00  0.00    +0.000 NA
ATOM     14  C   UNL     1       2.599   6.118  19.537  0.00  0.00    +0.000 A 
ATOM     15  H   UNL     1       1.017   8.151  19.849  0.00  0.00    +0.000 HD
ENDROOT
BRANCH   1  16
ATOM     16  C   UNL     1       1.322   9.397  18.179  0.00  0.00    +0.000 C 
BRANCH  16  17
ATOM     17  C   UNL     1       0.821  10.681  18.850  0.00  0.00    +0.000 C 
BRANCH  17  21
ATOM     18  C   UNL     1      -3.375  11.362  18.033  0.00  0.00    +0.000 A 
ATOM     19  C   UNL     1      -2.754  11.957  19.143  0.00  0.00    +0.000 A 
ATOM     20  C   UNL     1      -1.407  11.723  19.427  0.00  0.00    +0.000 A 
ATOM     21  C   UNL     1      -0.664  10.851  18.632  0.00  0.00    +0.000 A 
ATOM     22  C   UNL     1      -1.311  10.187  17.581  0.00  0.00    +0.000 A 
ATOM     23  C   UNL     1      -2.662  10.425  17.274  0.00  0.00    +0.000 A 
BRANCH  18  25
ATOM     24  C   UNL     1      -5.673  10.917  18.386  0.00  0.00    +0.000 C 
ATOM     25  O   UNL     1      -4.668  11.670  17.704  0.00  0.00    +0.000 OA
ENDBRANCH  18  25
BRANCH  23  26
ATOM     26  O   UNL     1      -3.080   9.683  16.201  0.00  0.00    +0.000 OA
ATOM     27  C   UNL     1      -2.914  10.202  14.891  0.00  0.00    +0.000 C 
ENDBRANCH  23  26
ENDBRANCH  17  21
ENDBRANCH  16  17
ENDBRANCH   1  16
TORSDOF 5
ENDMDL
MODEL 5
REMARK VINA RESULT:      -7.9      6.379      8.738
REMARK  Name = 
REMARK  7 active torsions:
REMARK  status: ('A' for Active; 'I' for Inactive)
REMARK    1  A    between atoms: C_1  and  O_2
REMARK    2  A    between atoms: O_2  and  C_3
REMARK    3  A    between atoms: C_6  and  C_7
REMARK    4  A    between atoms: C_7  and  C_8
REMARK    5  A    between atoms: C_8  and  N_9
REMARK    6  A    between atoms: C_24  and  O_25
REMARK    7  A    between atoms: O_25  and  C_26
REMARK                            x       y       z     vdW  Elec       q    Type
REMARK                         _______ _______ _______ _____ _____    ______ ____
ROOT
ATOM      1  N   UNL     1       1.783   6.703  20.830  0.00  0.00    +0.000 N 
ATOM      2  C   UNL     1       2.432   6.018  19.816  0.00  0.00    +0.000 A 
ATOM      3  N   UNL     1       3.169   6.675  18.954  0.00  0.00    +0.000 NA
ATOM      4  C   UNL     1       3.832   5.996  17.905  0.00  0.00    +0.000 A 
ATOM      5  C   UNL     1       4.602   6.730  17.007  0.00  0.00    +0.000 A 
ATOM      6  C   UNL     1       5.263   6.094  15.952  0.00  0.00    +0.000 A 
ATOM      7  C   UNL     1       5.159   4.708  15.785  0.00  0.00    +0.000 A 
ATOM      8  C   UNL     1       4.395   3.951  16.670  0.00  0.00    +0.000 A 
ATOM      9  C   UNL     1       3.745   4.608  17.716  0.00  0.00    +0.000 A 
ATOM     10  N   UNL     1       2.955   3.946  18.647  0.00  0.00    +0.000 N 
ATOM     11  N   UNL     1       2.674   2.634  18.704  0.00  0.00    +0.000 NA
ATOM     12  N   UNL     1       1.863   2.504  19.752  0.00  0.00    +0.000 NA
ATOM     13  N   UNL     1       1.626   3.724  20.360  0.00  0.00    +0.000 NA
ATOM     14  C   UNL     1       2.318   4.593  19.658  0.00  0.00    +0.000 A 
ATOM     15  H   UNL     1       1.068   6.159  21.307  0.00  0.00    +0.000 HD
ENDROOT
BRANCH   1  16
ATOM     16  C   UNL     1       1.500   8.126  20.693  0.00  0.00    +0.000 C 
BRANCH  16  17
ATOM     17  C   UNL     1       1.121   8.757  22.038  0.00  0.00    +0.000 C 
BRANCH  17  21
ATOM     18  C   UNL     1      -1.645  12.042  21.489  0.00  0.00    +0.000 A 
ATOM     19  C   UNL     1      -1.449  11.472  22.758  0.00  0.00    +0.000 A 
ATOM     20  C   UNL     1      -0.577  10.397  22.939  0.00  0.00    +0.000 A 
ATOM     21  C   UNL     1       0.084   9.838  21.845  0.00  0.00    +0.000 A 
ATOM     22  C   UNL     1      -0.185  10.348  20.568  0.00  0.00    +0.000 A 
ATOM     23  C   UNL     1      -1.048  11.440  20.372  0.00  0.00    +0.000 A 
BRANCH  18  25
ATOM     24  C   UNL     1      -3.810  12.906  21.081  0.00  0.00    +0.000 C 
ATOM     25  O   UNL     1      -2.425  13.156  21.332  0.00  0.00    +0.000 OA
ENDBRANCH  18  25
BRANCH  23  26
ATOM     26  O   UNL     1      -1.150  11.781  19.050  0.00  0.00    +0.000 OA
ATOM     27  C   UNL     1      -1.744  10.868  18.141  0.00  0.00    +0.000 C 
ENDBRANCH  23  26
ENDBRANCH  17  21
ENDBRANCH  16  17
ENDBRANCH   1  16
TORSDOF 5
ENDMDL
MODEL 6
REMARK VINA RESULT:      -7.8      1.057      1.075
REMARK  Name = 
REMARK  7 active torsions:
REMARK  status: ('A' for Active; 'I' for Inactive)
REMARK    1  A    between atoms: C_1  and  O_2
REMARK    2  A    between atoms: O_2  and  C_3
REMARK    3  A    between atoms: C_6  and  C_7
REMARK    4  A    between atoms: C_7  and  C_8
REMARK    5  A    between atoms: C_8  and  N_9
REMARK    6  A    between atoms: C_24  and  O_25
REMARK    7  A    between atoms: O_25  and  C_26
REMARK                            x       y       z     vdW  Elec       q    Type
REMARK                         _______ _______ _______ _____ _____    ______ ____
ROOT
ATOM      1  N   UNL     1       7.313   7.896  16.909  0.00  0.00    +0.000 N 
ATOM      2  C   UNL     1       6.333   6.920  16.960  0.00  0.00    +0.000 A 
ATOM      3  N   UNL     1       5.257   7.113  17.684  0.00  0.00    +0.000 NA
ATOM      4  C   UNL     1       4.249   6.123  17.758  0.00  0.00    +0.000 A 
ATOM      5  C   UNL     1       3.123   6.365  18.541  0.00  0.00    +0.000 A 
ATOM      6  C   UNL     1       2.112   5.406  18.646  0.00  0.00    +0.000 A 
ATOM      7  C   UNL     1       2.217   4.189  17.965  0.00  0.00    +0.000 A 
ATOM      8  C   UNL     1       3.334   3.922  17.174  0.00  0.00    +0.000 A 
ATOM      9  C   UNL     1       4.331   4.895  17.085  0.00  0.00    +0.000 A 
ATOM     10  N   UNL     1       5.484   4.725  16.330  0.00  0.00    +0.000 N 
ATOM     11  N   UNL     1       5.841   3.654  15.602  0.00  0.00    +0.000 NA
ATOM     12  N   UNL     1       7.032   3.969  15.095  0.00  0.00    +0.000 NA
ATOM     13  N   UNL     1       7.434   5.230  15.496  0.00  0.00    +0.000 NA
ATOM     14  C   UNL     1       6.455   5.673  16.252  0.00  0.00    +0.000 A 
ATOM     15  H   UNL     1       8.196   7.579  16.516  0.00  0.00    +0.000 HD
ENDROOT
BRANCH   1  16
ATOM     16  C   UNL     1       7.422   8.887  17.972  0.00  0.00    +0.000 C 
BRANCH  16  17
ATOM     17  C   UNL     1       8.796   8.838  18.649  0.00  0.00    +0.000 C 
BRANCH  17  21
ATOM     18  C   UNL     1       9.965  12.921  19.491  0.00  0.00    +0.000 A 
ATOM     19  C   UNL     1       9.981  12.426  18.177  0.00  0.00    +0.000 A 
ATOM     20  C   UNL     1       9.629  11.103  17.900  0.00  0.00    +0.000 A 
ATOM     21  C   UNL     1       9.297  10.234  18.938  0.00  0.00    +0.000 A 
ATOM     22  C   UNL     1       9.372  10.705  20.256  0.00  0.00    +0.000 A 
ATOM     23  C   UNL     1       9.710  12.038  20.549  0.00  0.00    +0.000 A 
BRANCH  18  25
ATOM     24  C   UNL     1       9.076  15.102  19.721  0.00  0.00    +0.000 C 
ATOM     25  O   UNL     1      10.217  14.242  19.747  0.00  0.00    +0.000 OA
ENDBRANCH  18  25
BRANCH  23  26
ATOM     26  O   UNL     1       9.704  12.282  21.897  0.00  0.00    +0.000 OA
ATOM     27  C   UNL     1       8.481  12.601  22.540  0.00  0.00    +0.000 C 
ENDBRANCH  23  26
ENDBRANCH  17  21
ENDBRANCH  16  17
ENDBRANCH   1  16
TORSDOF 5
ENDMDL
MODEL 7
REMARK VINA RESULT:      -7.8      6.661      8.649
REMARK  Name = 
REMARK  7 active torsions:
REMARK  status: ('A' for Active; 'I' for Inactive)
REMARK    1  A    between atoms: C_1  and  O_2
REMARK    2  A    between atoms: O_2  and  C_3
REMARK    3  A    between atoms: C_6  and  C_7
REMARK    4  A    between atoms: C_7  and  C_8
REMARK    5  A    between atoms: C_8  and  N_9
REMARK    6  A    between atoms: C_24  and  O_25
REMARK    7  A    between atoms: O_25  and  C_26
REMARK                            x       y       z     vdW  Elec       q    Type
REMARK                         _______ _______ _______ _____ _____    ______ ____
ROOT
ATOM      1  N   UNL     1       3.042   7.863  18.014  0.00  0.00    +0.000 N 
ATOM      2  C   UNL     1       3.169   6.609  18.586  0.00  0.00    +0.000 A 
ATOM      3  N   UNL     1       2.178   6.106  19.282  0.00  0.00    +0.000 NA
ATOM      4  C   UNL     1       2.293   4.830  19.883  0.00  0.00    +0.000 A 
ATOM      5  C   UNL     1       1.219   4.333  20.617  0.00  0.00    +0.000 A 
ATOM      6  C   UNL     1       1.300   3.081  21.234  0.00  0.00    +0.000 A 
ATOM      7  C   UNL     1       2.461   2.310  21.120  0.00  0.00    +0.000 A 
ATOM      8  C   UNL     1       3.550   2.785  20.390  0.00  0.00    +0.000 A 
ATOM      9  C   UNL     1       3.446   4.037  19.784  0.00  0.00    +0.000 A 
ATOM     10  N   UNL     1       4.474   4.603  19.041  0.00  0.00    +0.000 N 
ATOM     11  N   UNL     1       5.690   4.089  18.795  0.00  0.00    +0.000 NA
ATOM     12  N   UNL     1       6.311   5.016  18.067  0.00  0.00    +0.000 NA
ATOM     13  N   UNL     1       5.498   6.114  17.850  0.00  0.00    +0.000 NA
ATOM     14  C   UNL     1       4.370   5.826  18.459  0.00  0.00    +0.000 A 
ATOM     15  H   UNL     1       3.919   8.263  17.690  0.00  0.00    +0.000 HD
ENDROOT
BRANCH   1  16
ATOM     16  C   UNL     1       2.076   8.818  18.541  0.00  0.00    +0.000 C 
BRANCH  16  17
ATOM     17  C   UNL     1       0.962   9.111  17.529  0.00  0.00    +0.000 C 
BRANCH  17  21
ATOM     18  C   UNL     1      -2.107  11.659  19.210  0.00  0.00    +0.000 A 
ATOM     19  C   UNL     1      -0.922  11.401  19.917  0.00  0.00    +0.000 A 
ATOM     20  C   UNL     1       0.063  10.562  19.393  0.00  0.00    +0.000 A 
ATOM     21  C   UNL     1      -0.139   9.924  18.169  0.00  0.00    +0.000 A 
ATOM     22  C   UNL     1      -1.362  10.109  17.510  0.00  0.00    +0.000 A 
ATOM     23  C   UNL     1      -2.355  10.964  18.019  0.00  0.00    +0.000 A 
BRANCH  18  25
ATOM     24  C   UNL     1      -3.003  12.775  21.096  0.00  0.00    +0.000 C 
ATOM     25  O   UNL     1      -3.026  12.558  19.684  0.00  0.00    +0.000 OA
ENDBRANCH  18  25
BRANCH  23  26
ATOM     26  O   UNL     1      -3.457  11.008  17.206  0.00  0.00    +0.000 OA
ATOM     27  C   UNL     1      -3.284  10.959  15.799  0.00  0.00    +0.000 C 
ENDBRANCH  23  26
ENDBRANCH  17  21
ENDBRANCH  16  17
ENDBRANCH   1  16
TORSDOF 5
ENDMDL
MODEL 8
REMARK VINA RESULT:      -7.8      6.446      8.304
REMARK  Name = 
REMARK  7 active torsions:
REMARK  status: ('A' for Active; 'I' for Inactive)
REMARK    1  A    between atoms: C_1  and  O_2
REMARK    2  A    between atoms: O_2  and  C_3
REMARK    3  A    between atoms: C_6  and  C_7
REMARK    4  A    between atoms: C_7  and  C_8
REMARK    5  A    between atoms: C_8  and  N_9
REMARK    6  A    between atoms: C_24  and  O_25
REMARK    7  A    between atoms: O_25  and  C_26
REMARK                            x       y       z     vdW  Elec       q    Type
REMARK                         _______ _______ _______ _____ _____    ______ ____
ROOT
ATOM      1  N   UNL     1       1.657   6.840  20.908  0.00  0.00    +0.000 N 
ATOM      2  C   UNL     1       2.264   6.049  19.948  0.00  0.00    +0.000 A 
ATOM      3  N   UNL     1       3.081   6.592  19.078  0.00  0.00    +0.000 NA
ATOM      4  C   UNL     1       3.703   5.803  18.082  0.00  0.00    +0.000 A 
ATOM      5  C   UNL     1       4.562   6.418  17.174  0.00  0.00    +0.000 A 
ATOM      6  C   UNL     1       5.187   5.672  16.170  0.00  0.00    +0.000 A 
ATOM      7  C   UNL     1       4.957   4.295  16.065  0.00  0.00    +0.000 A 
ATOM      8  C   UNL     1       4.103   3.656  16.962  0.00  0.00    +0.000 A 
ATOM      9  C   UNL     1       3.491   4.422  17.955  0.00  0.00    +0.000 A 
ATOM     10  N   UNL     1       2.619   3.883  18.892  0.00  0.00    +0.000 N 
ATOM     11  N   UNL     1       2.215   2.607  19.002  0.00  0.00    +0.000 NA
ATOM     12  N   UNL     1       1.368   2.604  20.031  0.00  0.00    +0.000 NA
ATOM     13  N   UNL     1       1.231   3.869  20.573  0.00  0.00    +0.000 NA
ATOM     14  C   UNL     1       2.020   4.634  19.853  0.00  0.00    +0.000 A 
ATOM     15  H   UNL     1       0.882   6.389  21.389  0.00  0.00    +0.000 HD
ENDROOT
BRANCH   1  16
ATOM     16  C   UNL     1       1.512   8.275  20.697  0.00  0.00    +0.000 C 
BRANCH  16  17
ATOM     17  C   UNL     1       0.197   8.801  21.282  0.00  0.00    +0.000 C 
BRANCH  17  21
ATOM     18  C   UNL     1      -0.563  12.638  19.427  0.00  0.00    +0.000 A 
ATOM     19  C   UNL     1       0.023  12.560  20.701  0.00  0.00    +0.000 A 
ATOM     20  C   UNL     1       0.249  11.327  21.316  0.00  0.00    +0.000 A 
ATOM     21  C   UNL     1      -0.149  10.147  20.689  0.00  0.00    +0.000 A 
ATOM     22  C   UNL     1      -0.817  10.233  19.460  0.00  0.00    +0.000 A 
ATOM     23  C   UNL     1      -1.038  11.466  18.822  0.00  0.00    +0.000 A 
BRANCH  18  25
ATOM     24  C   UNL     1       0.416  14.732  18.918  0.00  0.00    +0.000 C 
ATOM     25  O   UNL     1      -0.694  13.842  18.787  0.00  0.00    +0.000 OA
ENDBRANCH  18  25
BRANCH  23  26
ATOM     26  O   UNL     1      -1.690  11.314  17.628  0.00  0.00    +0.000 OA
ATOM     27  C   UNL     1      -1.916  10.008  17.121  0.00  0.00    +0.000 C 
ENDBRANCH  23  26
ENDBRANCH  17  21
ENDBRANCH  16  17
ENDBRANCH   1  16
TORSDOF 5
ENDMDL
MODEL 9
REMARK VINA RESULT:      -7.7      6.593      8.774
REMARK  Name = 
REMARK  7 active torsions:
REMARK  status: ('A' for Active; 'I' for Inactive)
REMARK    1  A    between atoms: C_1  and  O_2
REMARK    2  A    between atoms: O_2  and  C_3
REMARK    3  A    between atoms: C_6  and  C_7
REMARK    4  A    between atoms: C_7  and  C_8
REMARK    5  A    between atoms: C_8  and  N_9
REMARK    6  A    between atoms: C_24  and  O_25
REMARK    7  A    between atoms: O_25  and  C_26
REMARK                            x       y       z     vdW  Elec       q    Type
REMARK                         _______ _______ _______ _____ _____    ______ ____
ROOT
ATOM      1  N   UNL     1       1.590   6.872  20.919  0.00  0.00    +0.000 N 
ATOM      2  C   UNL     1       2.224   6.126  19.940  0.00  0.00    +0.000 A 
ATOM      3  N   UNL     1       3.031   6.715  19.091  0.00  0.00    +0.000 NA
ATOM      4  C   UNL     1       3.680   5.972  18.077  0.00  0.00    +0.000 A 
ATOM      5  C   UNL     1       4.526   6.636  17.192  0.00  0.00    +0.000 A 
ATOM      6  C   UNL     1       5.177   5.936  16.172  0.00  0.00    +0.000 A 
ATOM      7  C   UNL     1       4.987   4.557  16.027  0.00  0.00    +0.000 A 
ATOM      8  C   UNL     1       4.146   3.870  16.900  0.00  0.00    +0.000 A 
ATOM      9  C   UNL     1       3.507   4.590  17.911  0.00  0.00    +0.000 A 
ATOM     10  N   UNL     1       2.646   4.000  18.827  0.00  0.00    +0.000 N 
ATOM     11  N   UNL     1       2.277   2.711  18.899  0.00  0.00    +0.000 NA
ATOM     12  N   UNL     1       1.426   2.656  19.922  0.00  0.00    +0.000 NA
ATOM     13  N   UNL     1       1.251   3.901  20.499  0.00  0.00    +0.000 NA
ATOM     14  C   UNL     1       2.021   4.708  19.805  0.00  0.00    +0.000 A 
ATOM     15  H   UNL     1       0.825   6.386  21.382  0.00  0.00    +0.000 HD
ENDROOT
BRANCH   1  16
ATOM     16  C   UNL     1       1.406   8.308  20.747  0.00  0.00    +0.000 C 
BRANCH  16  17
ATOM     17  C   UNL     1       0.662   8.927  21.935  0.00  0.00    +0.000 C 
BRANCH  17  21
ATOM     18  C   UNL     1      -1.848  12.237  20.715  0.00  0.00    +0.000 A 
ATOM     19  C   UNL     1      -1.221  11.421  19.759  0.00  0.00    +0.000 A 
ATOM     20  C   UNL     1      -0.391  10.366  20.145  0.00  0.00    +0.000 A 
ATOM     21  C   UNL     1      -0.133  10.134  21.495  0.00  0.00    +0.000 A 
ATOM     22  C   UNL     1      -0.685  11.007  22.443  0.00  0.00    +0.000 A 
ATOM     23  C   UNL     1      -1.535  12.063  22.070  0.00  0.00    +0.000 A 
BRANCH  18  25
ATOM     24  C   UNL     1      -4.110  12.811  20.319  0.00  0.00    +0.000 C 
ATOM     25  O   UNL     1      -2.737  13.207  20.336  0.00  0.00    +0.000 OA
ENDBRANCH  18  25
BRANCH  23  26
ATOM     26  O   UNL     1      -1.972  12.774  23.156  0.00  0.00    +0.000 OA
ATOM     27  C   UNL     1      -1.256  13.930  23.563  0.00  0.00    +0.000 C 
ENDBRANCH  23  26
ENDBRANCH  17  21
ENDBRANCH  16  17
ENDBRANCH   1  16
TORSDOF 5
ENDMDL
