MODEL 1
REMARK VINA RESULT:      -9.1      0.000      0.000
REMARK  Name = 
REMARK  10 active torsions:
REMARK  status: ('A' for Active; 'I' for Inactive)
REMARK    1  A    between atoms: C_2  and  C_3
REMARK    2  A    between atoms: C_3  and  C_4
REMARK    3  A    between atoms: C_3  and  N_12
REMARK    4  A    between atoms: C_4  and  C_5
REMARK    5  A    between atoms: C_13  and  C_15
REMARK    6  A    between atoms: C_15  and  C_16
REMARK    7  A    between atoms: C_15  and  N_23
REMARK    8  A    between atoms: C_16  and  C_17
REMARK    9  A    between atoms: C_24  and  C_26
REMARK   10  A    between atoms: C_27  and  C_28
REMARK                            x       y       z     vdW  Elec       q    Type
REMARK                         _______ _______ _______ _____ _____    ______ ____
ROOT
ATOM      1  C   UNK A   1       6.531   5.492  17.776  0.00  0.00    +0.000 C 
ENDROOT
BRANCH   1   3
ATOM      2  N   UNK A   1       5.298   3.623  18.786  0.00  0.00    +0.000 N 
ATOM      3  C   UNK A   1       5.654   4.959  18.937  0.00  0.00    +0.000 C 
ATOM      4  O   UNK A   1       5.353   5.616  19.928  0.00  0.00    +0.000 OA
ATOM      5  H   UNK A   1       5.377   3.276  17.833  0.00  0.00    +0.000 HD
BRANCH   2   6
ATOM      6  C   UNK A   1       4.345   2.948  19.661  0.00  0.00    +0.000 C 
BRANCH   6   8
ATOM      7  O   UNK A   1       5.454   1.452  21.227  0.00  0.00    +0.000 OA
ATOM      8  C   UNK A   1       4.882   1.606  20.149  0.00  0.00    +0.000 C 
ENDBRANCH   6   8
BRANCH   6   9
ATOM      9  C   UNK A   1       2.960   2.781  19.002  0.00  0.00    +0.000 C 
BRANCH   9  10
ATOM     10  C   UNK A   1       1.982   3.992  19.007  0.00  0.00    +0.000 C 
ATOM     11  C   UNK A   1       2.276   5.011  17.896  0.00  0.00    +0.000 C 
ATOM     12  C   UNK A   1       1.799   6.420  18.228  0.00  0.00    +0.000 C 
ATOM     13  C   UNK A   1       2.479   6.865  19.505  0.00  0.00    +0.000 C 
ATOM     14  N   UNK A   1       2.216   5.932  20.569  0.00  0.00    +0.000 N 
ATOM     15  C   UNK A   1       1.997   4.596  20.418  0.00  0.00    +0.000 C 
ATOM     16  O   UNK A   1       1.786   3.919  21.423  0.00  0.00    +0.000 OA
ATOM     17  H   UNK A   1       2.261   6.242  21.532  0.00  0.00    +0.000 HD
ENDBRANCH   9  10
ENDBRANCH   6   9
ENDBRANCH   2   6
ENDBRANCH   1   3
BRANCH   1  18
ATOM     18  N   UNK A   1       7.467   6.490  18.312  0.00  0.00    +0.000 N 
ATOM     19  C   UNK A   0       7.632   7.713  17.724  0.00  0.00    +0.000 C 
ATOM     20  O   UNK A   0       6.945   8.099  16.788  0.00  0.00    +0.000 OA
ATOM     21  H   UNK A   1       8.005   6.239  19.132  0.00  0.00    +0.000 HD
BRANCH  19  22
ATOM     22  C   UNK A   0       8.666   8.553  18.360  0.00  0.00    +0.000 C 
ATOM     23  C   UNK A   0       8.561   9.891  18.319  0.00  0.00    +0.000 C 
BRANCH  23  24
ATOM     24  C   UNK A   0       9.568  10.794  18.895  0.00  0.00    +0.000 A 
ATOM     25  C   UNK A   0       9.576  11.109  20.262  0.00  0.00    +0.000 A 
ATOM     26  C   UNK A   0      10.543  11.954  20.789  0.00  0.00    +0.000 A 
ATOM     27  C   UNK A   0      11.529  12.488  19.963  0.00  0.00    +0.000 A 
ATOM     28  C   UNK A   0      11.549  12.162  18.608  0.00  0.00    +0.000 A 
ATOM     29  C   UNK A   0      10.577  11.311  18.075  0.00  0.00    +0.000 A 
ENDBRANCH  23  24
ENDBRANCH  19  22
ENDBRANCH   1  18
BRANCH   1  30
ATOM     30  C   UNK A   1       7.270   4.365  17.019  0.00  0.00    +0.000 C 
BRANCH  30  31
ATOM     31  C   UNK A   1       6.984   4.303  15.525  0.00  0.00    +0.000 A 
ATOM     32  C   UNK A   1       7.791   5.043  14.645  0.00  0.00    +0.000 A 
ATOM     33  C   UNK A   1       7.476   5.131  13.287  0.00  0.00    +0.000 A 
ATOM     34  C   UNK A   1       6.376   4.443  12.780  0.00  0.00    +0.000 A 
ATOM     35  C   UNK A   1       5.626   3.626  13.621  0.00  0.00    +0.000 A 
ATOM     36  C   UNK A   1       5.933   3.548  14.984  0.00  0.00    +0.000 A 
ENDBRANCH  30  31
ENDBRANCH   1  30
TORSDOF 10
ENDMDL
MODEL 2
REMARK VINA RESULT:      -8.6      1.743      2.924
REMARK  Name = 
REMARK  10 active torsions:
REMARK  status: ('A' for Active; 'I' for Inactive)
REMARK    1  A    between atoms: C_2  and  C_3
REMARK    2  A    between atoms: C_3  and  C_4
REMARK    3  A    between atoms: C_3  and  N_12
REMARK    4  A    between atoms: C_4  and  C_5
REMARK    5  A    between atoms: C_13  and  C_15
REMARK    6  A    between atoms: C_15  and  C_16
REMARK    7  A    between atoms: C_15  and  N_23
REMARK    8  A    between atoms: C_16  and  C_17
REMARK    9  A    between atoms: C_24  and  C_26
REMARK   10  A    between atoms: C_27  and  C_28
REMARK                            x       y       z     vdW  Elec       q    Type
REMARK                         _______ _______ _______ _____ _____    ______ ____
ROOT
ATOM      1  C   UNK A   1       5.524   6.674  16.276  0.00  0.00    +0.000 C 
ENDROOT
BRANCH   1   3
ATOM      2  N   UNK A   1       3.648   5.596  17.439  0.00  0.00    +0.000 N 
ATOM      3  C   UNK A   1       4.238   6.817  17.128  0.00  0.00    +0.000 C 
ATOM      4  O   UNK A   1       3.809   7.886  17.550  0.00  0.00    +0.000 OA
ATOM      5  H   UNK A   1       3.932   4.830  16.833  0.00  0.00    +0.000 HD
BRANCH   2   6
ATOM      6  C   UNK A   1       2.346   5.482  18.087  0.00  0.00    +0.000 C 
BRANCH   6   8
ATOM      7  O   UNK A   1       2.182   6.670  20.204  0.00  0.00    +0.000 OA
ATOM      8  C   UNK A   1       2.456   5.634  19.602  0.00  0.00    +0.000 C 
ENDBRANCH   6   8
BRANCH   6   9
ATOM      9  C   UNK A   1       1.618   4.173  17.716  0.00  0.00    +0.000 C 
BRANCH   9  10
ATOM     10  C   UNK A   1       1.567   3.026  18.766  0.00  0.00    +0.000 C 
ATOM     11  C   UNK A   1       0.893   3.440  20.083  0.00  0.00    +0.000 C 
ATOM     12  C   UNK A   1       1.358   2.622  21.282  0.00  0.00    +0.000 C 
ATOM     13  C   UNK A   1       2.857   2.784  21.417  0.00  0.00    +0.000 C 
ATOM     14  N   UNK A   1       3.519   2.396  20.200  0.00  0.00    +0.000 N 
ATOM     15  C   UNK A   1       2.996   2.495  18.945  0.00  0.00    +0.000 C 
ATOM     16  O   UNK A   1       3.682   2.125  17.994  0.00  0.00    +0.000 OA
ATOM     17  H   UNK A   1       4.482   2.086  20.228  0.00  0.00    +0.000 HD
ENDBRANCH   9  10
ENDBRANCH   6   9
ENDBRANCH   2   6
ENDBRANCH   1   3
BRANCH   1  18
ATOM     18  N   UNK A   1       6.597   7.455  16.907  0.00  0.00    +0.000 N 
ATOM     19  C   UNK A   0       7.395   6.928  17.884  0.00  0.00    +0.000 C 
ATOM     20  O   UNK A   0       7.344   5.753  18.222  0.00  0.00    +0.000 OA
ATOM     21  H   UNK A   1       6.722   8.413  16.605  0.00  0.00    +0.000 HD
BRANCH  19  22
ATOM     22  C   UNK A   0       8.368   7.884  18.448  0.00  0.00    +0.000 C 
ATOM     23  C   UNK A   0       8.266   9.192  18.161  0.00  0.00    +0.000 C 
BRANCH  23  24
ATOM     24  C   UNK A   0       9.218  10.199  18.651  0.00  0.00    +0.000 A 
ATOM     25  C   UNK A   0      10.041  10.921  17.774  0.00  0.00    +0.000 A 
ATOM     26  C   UNK A   0      10.926  11.876  18.255  0.00  0.00    +0.000 A 
ATOM     27  C   UNK A   0      10.994  12.140  19.620  0.00  0.00    +0.000 A 
ATOM     28  C   UNK A   0      10.162  11.450  20.501  0.00  0.00    +0.000 A 
ATOM     29  C   UNK A   0       9.271  10.487  20.020  0.00  0.00    +0.000 A 
ENDBRANCH  23  24
ENDBRANCH  19  22
ENDBRANCH   1  18
BRANCH   1  30
ATOM     30  C   UNK A   1       5.941   5.200  16.065  0.00  0.00    +0.000 C 
BRANCH  30  31
ATOM     31  C   UNK A   1       6.286   4.833  14.628  0.00  0.00    +0.000 A 
ATOM     32  C   UNK A   1       5.468   3.921  13.942  0.00  0.00    +0.000 A 
ATOM     33  C   UNK A   1       5.828   3.447  12.678  0.00  0.00    +0.000 A 
ATOM     34  C   UNK A   1       6.987   3.911  12.062  0.00  0.00    +0.000 A 
ATOM     35  C   UNK A   1       7.755   4.890  12.688  0.00  0.00    +0.000 A 
ATOM     36  C   UNK A   1       7.402   5.356  13.958  0.00  0.00    +0.000 A 
ENDBRANCH  30  31
ENDBRANCH   1  30
TORSDOF 10
ENDMDL
MODEL 3
REMARK VINA RESULT:      -8.5      1.729      2.667
REMARK  Name = 
REMARK  10 active torsions:
REMARK  status: ('A' for Active; 'I' for Inactive)
REMARK    1  A    between atoms: C_2  and  C_3
REMARK    2  A    between atoms: C_3  and  C_4
REMARK    3  A    between atoms: C_3  and  N_12
REMARK    4  A    between atoms: C_4  and  C_5
REMARK    5  A    between atoms: C_13  and  C_15
REMARK    6  A    between atoms: C_15  and  C_16
REMARK    7  A    between atoms: C_15  and  N_23
REMARK    8  A    between atoms: C_16  and  C_17
REMARK    9  A    between atoms: C_24  and  C_26
REMARK   10  A    between atoms: C_27  and  C_28
REMARK                            x       y       z     vdW  Elec       q    Type
REMARK                         _______ _______ _______ _____ _____    ______ ____
ROOT
ATOM      1  C   UNK A   1       5.561   6.673  16.350  0.00  0.00    +0.000 C 
ENDROOT
BRANCH   1   3
ATOM      2  N   UNK A   1       3.679   5.591  17.499  0.00  0.00    +0.000 N 
ATOM      3  C   UNK A   1       4.203   6.810  17.083  0.00  0.00    +0.000 C 
ATOM      4  O   UNK A   1       3.665   7.883  17.338  0.00  0.00    +0.000 OA
ATOM      5  H   UNK A   1       4.066   4.785  17.014  0.00  0.00    +0.000 HD
BRANCH   2   6
ATOM      6  C   UNK A   1       2.341   5.449  18.062  0.00  0.00    +0.000 C 
BRANCH   6   8
ATOM      7  O   UNK A   1       2.138   6.726  20.122  0.00  0.00    +0.000 OA
ATOM      8  C   UNK A   1       2.342   5.644  19.575  0.00  0.00    +0.000 C 
ENDBRANCH   6   8
BRANCH   6   9
ATOM      9  C   UNK A   1       1.684   4.106  17.680  0.00  0.00    +0.000 C 
BRANCH   9  10
ATOM     10  C   UNK A   1       1.612   2.980  18.753  0.00  0.00    +0.000 C 
ATOM     11  C   UNK A   1       0.898   3.416  20.041  0.00  0.00    +0.000 C 
ATOM     12  C   UNK A   1       1.336   2.628  21.270  0.00  0.00    +0.000 C 
ATOM     13  C   UNK A   1       2.829   2.805  21.443  0.00  0.00    +0.000 C 
ATOM     14  N   UNK A   1       3.528   2.397  20.253  0.00  0.00    +0.000 N 
ATOM     15  C   UNK A   1       3.040   2.465  18.982  0.00  0.00    +0.000 C 
ATOM     16  O   UNK A   1       3.754   2.080  18.059  0.00  0.00    +0.000 OA
ATOM     17  H   UNK A   1       4.493   2.096  20.314  0.00  0.00    +0.000 HD
ENDBRANCH   9  10
ENDBRANCH   6   9
ENDBRANCH   2   6
ENDBRANCH   1   3
BRANCH   1  18
ATOM     18  N   UNK A   1       6.553   7.515  17.033  0.00  0.00    +0.000 N 
ATOM     19  C   UNK A   0       7.484   6.988  17.882  0.00  0.00    +0.000 C 
ATOM     20  O   UNK A   0       7.626   5.784  18.049  0.00  0.00    +0.000 OA
ATOM     21  H   UNK A   1       6.518   8.513  16.867  0.00  0.00    +0.000 HD
BRANCH  19  22
ATOM     22  C   UNK A   0       8.349   7.994  18.529  0.00  0.00    +0.000 C 
ATOM     23  C   UNK A   0       8.371   9.255  18.066  0.00  0.00    +0.000 C 
BRANCH  23  24
ATOM     24  C   UNK A   0       9.234  10.303  18.632  0.00  0.00    +0.000 A 
ATOM     25  C   UNK A   0       9.352  10.488  20.017  0.00  0.00    +0.000 A 
ATOM     26  C   UNK A   0      10.180  11.476  20.532  0.00  0.00    +0.000 A 
ATOM     27  C   UNK A   0      10.919  12.286  19.674  0.00  0.00    +0.000 A 
ATOM     28  C   UNK A   0      10.833  12.095  18.296  0.00  0.00    +0.000 A 
ATOM     29  C   UNK A   0       9.998  11.102  17.774  0.00  0.00    +0.000 A 
ENDBRANCH  23  24
ENDBRANCH  19  22
ENDBRANCH   1  18
BRANCH   1  30
ATOM     30  C   UNK A   1       6.036   5.206  16.240  0.00  0.00    +0.000 C 
BRANCH  30  31
ATOM     31  C   UNK A   1       6.376   4.748  14.828  0.00  0.00    +0.000 A 
ATOM     32  C   UNK A   1       7.497   5.296  14.185  0.00  0.00    +0.000 A 
ATOM     33  C   UNK A   1       7.760   5.014  12.842  0.00  0.00    +0.000 A 
ATOM     34  C   UNK A   1       6.934   4.143  12.136  0.00  0.00    +0.000 A 
ATOM     35  C   UNK A   1       5.877   3.514  12.790  0.00  0.00    +0.000 A 
ATOM     36  C   UNK A   1       5.605   3.806  14.130  0.00  0.00    +0.000 A 
ENDBRANCH  30  31
ENDBRANCH   1  30
TORSDOF 10
ENDMDL
MODEL 4
REMARK VINA RESULT:      -8.4      1.512      2.435
REMARK  Name = 
REMARK  10 active torsions:
REMARK  status: ('A' for Active; 'I' for Inactive)
REMARK    1  A    between atoms: C_2  and  C_3
REMARK    2  A    between atoms: C_3  and  C_4
REMARK    3  A    between atoms: C_3  and  N_12
REMARK    4  A    between atoms: C_4  and  C_5
REMARK    5  A    between atoms: C_13  and  C_15
REMARK    6  A    between atoms: C_15  and  C_16
REMARK    7  A    between atoms: C_15  and  N_23
REMARK    8  A    between atoms: C_16  and  C_17
REMARK    9  A    between atoms: C_24  and  C_26
REMARK   10  A    between atoms: C_27  and  C_28
REMARK                            x       y       z     vdW  Elec       q    Type
REMARK                         _______ _______ _______ _____ _____    ______ ____
ROOT
ATOM      1  C   UNK A   1       6.510   5.592  17.892  0.00  0.00    +0.000 C 
ENDROOT
BRANCH   1   3
ATOM      2  N   UNK A   1       4.263   5.207  18.804  0.00  0.00    +0.000 N 
ATOM      3  C   UNK A   1       5.625   5.085  19.058  0.00  0.00    +0.000 C 
ATOM      4  O   UNK A   1       6.064   4.563  20.077  0.00  0.00    +0.000 OA
ATOM      5  H   UNK A   1       4.034   5.873  18.071  0.00  0.00    +0.000 HD
BRANCH   2   6
ATOM      6  C   UNK A   1       3.239   4.952  19.812  0.00  0.00    +0.000 C 
BRANCH   6   8
ATOM      7  O   UNK A   1       1.646   3.128  20.049  0.00  0.00    +0.000 OA
ATOM      8  C   UNK A   1       2.795   3.492  19.805  0.00  0.00    +0.000 C 
ENDBRANCH   6   8
BRANCH   6   9
ATOM      9  C   UNK A   1       2.027   5.897  19.670  0.00  0.00    +0.000 C 
BRANCH   9  10
ATOM     10  C   UNK A   1       2.223   7.410  19.976  0.00  0.00    +0.000 C 
ATOM     11  C   UNK A   1       1.221   7.954  21.005  0.00  0.00    +0.000 C 
ATOM     12  C   UNK A   1       0.969   9.451  20.869  0.00  0.00    +0.000 C 
ATOM     13  C   UNK A   1       0.448   9.722  19.474  0.00  0.00    +0.000 C 
ATOM     14  N   UNK A   1       1.371   9.229  18.486  0.00  0.00    +0.000 N 
ATOM     15  C   UNK A   1       2.204   8.162  18.638  0.00  0.00    +0.000 C 
ATOM     16  O   UNK A   1       2.940   7.854  17.703  0.00  0.00    +0.000 OA
ATOM     17  H   UNK A   1       1.382   9.638  17.559  0.00  0.00    +0.000 HD
ENDBRANCH   9  10
ENDBRANCH   6   9
ENDBRANCH   2   6
ENDBRANCH   1   3
BRANCH   1  18
ATOM     18  N   UNK A   1       7.454   6.590  18.415  0.00  0.00    +0.000 N 
ATOM     19  C   UNK A   0       7.662   7.785  17.785  0.00  0.00    +0.000 C 
ATOM     20  O   UNK A   0       7.010   8.148  16.816  0.00  0.00    +0.000 OA
ATOM     21  H   UNK A   1       7.964   6.360  19.258  0.00  0.00    +0.000 HD
BRANCH  19  22
ATOM     22  C   UNK A   0       8.697   8.626  18.417  0.00  0.00    +0.000 C 
ATOM     23  C   UNK A   0       8.644   9.962  18.291  0.00  0.00    +0.000 C 
BRANCH  23  24
ATOM     24  C   UNK A   0       9.657  10.864  18.857  0.00  0.00    +0.000 A 
ATOM     25  C   UNK A   0      10.636  11.467  18.053  0.00  0.00    +0.000 A 
ATOM     26  C   UNK A   0      11.577  12.325  18.605  0.00  0.00    +0.000 A 
ATOM     27  C   UNK A   0      11.549  12.610  19.968  0.00  0.00    +0.000 A 
ATOM     28  C   UNK A   0      10.565  12.040  20.774  0.00  0.00    +0.000 A 
ATOM     29  C   UNK A   0       9.616  11.175  20.221  0.00  0.00    +0.000 A 
ENDBRANCH  23  24
ENDBRANCH  19  22
ENDBRANCH   1  18
BRANCH   1  30
ATOM     30  C   UNK A   1       7.242   4.446  17.155  0.00  0.00    +0.000 C 
BRANCH  30  31
ATOM     31  C   UNK A   1       6.953   4.358  15.663  0.00  0.00    +0.000 A 
ATOM     32  C   UNK A   1       7.782   5.051  14.766  0.00  0.00    +0.000 A 
ATOM     33  C   UNK A   1       7.468   5.116  13.406  0.00  0.00    +0.000 A 
ATOM     34  C   UNK A   1       6.348   4.450  12.915  0.00  0.00    +0.000 A 
ATOM     35  C   UNK A   1       5.574   3.676  13.776  0.00  0.00    +0.000 A 
ATOM     36  C   UNK A   1       5.879   3.621  15.140  0.00  0.00    +0.000 A 
ENDBRANCH  30  31
ENDBRANCH   1  30
TORSDOF 10
ENDMDL
MODEL 5
REMARK VINA RESULT:      -8.4      1.924      3.101
REMARK  Name = 
REMARK  10 active torsions:
REMARK  status: ('A' for Active; 'I' for Inactive)
REMARK    1  A    between atoms: C_2  and  C_3
REMARK    2  A    between atoms: C_3  and  C_4
REMARK    3  A    between atoms: C_3  and  N_12
REMARK    4  A    between atoms: C_4  and  C_5
REMARK    5  A    between atoms: C_13  and  C_15
REMARK    6  A    between atoms: C_15  and  C_16
REMARK    7  A    between atoms: C_15  and  N_23
REMARK    8  A    between atoms: C_16  and  C_17
REMARK    9  A    between atoms: C_24  and  C_26
REMARK   10  A    between atoms: C_27  and  C_28
REMARK                            x       y       z     vdW  Elec       q    Type
REMARK                         _______ _______ _______ _____ _____    ______ ____
ROOT
ATOM      1  C   UNK A   1       5.996   6.140  15.890  0.00  0.00    +0.000 C 
ENDROOT
BRANCH   1   3
ATOM      2  N   UNK A   1       4.083   6.838  17.263  0.00  0.00    +0.000 N 
ATOM      3  C   UNK A   1       4.703   5.754  16.651  0.00  0.00    +0.000 C 
ATOM      4  O   UNK A   1       4.224   4.624  16.663  0.00  0.00    +0.000 OA
ATOM      5  H   UNK A   1       4.692   7.641  17.403  0.00  0.00    +0.000 HD
BRANCH   2   6
ATOM      6  C   UNK A   1       2.948   6.700  18.169  0.00  0.00    +0.000 C 
BRANCH   6   8
ATOM      7  O   UNK A   1       2.410   9.057  17.899  0.00  0.00    +0.000 OA
ATOM      8  C   UNK A   1       2.415   8.058  18.615  0.00  0.00    +0.000 C 
ENDBRANCH   6   8
BRANCH   6   9
ATOM      9  C   UNK A   1       3.273   5.808  19.386  0.00  0.00    +0.000 C 
BRANCH   9  10
ATOM     10  C   UNK A   1       2.636   4.390  19.461  0.00  0.00    +0.000 C 
ATOM     11  C   UNK A   1       1.301   4.366  20.220  0.00  0.00    +0.000 C 
ATOM     12  C   UNK A   1       0.982   3.009  20.836  0.00  0.00    +0.000 C 
ATOM     13  C   UNK A   1       2.102   2.641  21.786  0.00  0.00    +0.000 C 
ATOM     14  N   UNK A   1       3.368   2.648  21.101  0.00  0.00    +0.000 N 
ATOM     15  C   UNK A   1       3.692   3.436  20.038  0.00  0.00    +0.000 C 
ATOM     16  O   UNK A   1       4.817   3.334  19.554  0.00  0.00    +0.000 OA
ATOM     17  H   UNK A   1       4.133   2.086  21.453  0.00  0.00    +0.000 HD
ENDBRANCH   9  10
ENDBRANCH   6   9
ENDBRANCH   2   6
ENDBRANCH   1   3
BRANCH   1  18
ATOM     18  N   UNK A   1       6.730   7.138  16.681  0.00  0.00    +0.000 N 
ATOM     19  C   UNK A   0       7.504   6.784  17.750  0.00  0.00    +0.000 C 
ATOM     20  O   UNK A   0       7.724   5.620  18.055  0.00  0.00    +0.000 OA
ATOM     21  H   UNK A   1       6.633   8.111  16.418  0.00  0.00    +0.000 HD
BRANCH  19  22
ATOM     22  C   UNK A   0       8.104   7.928  18.464  0.00  0.00    +0.000 C 
ATOM     23  C   UNK A   0       8.179   9.127  17.864  0.00  0.00    +0.000 C 
BRANCH  23  24
ATOM     24  C   UNK A   0       8.797  10.303  18.494  0.00  0.00    +0.000 A 
ATOM     25  C   UNK A   0       9.435  10.219  19.740  0.00  0.00    +0.000 A 
ATOM     26  C   UNK A   0      10.023  11.338  20.313  0.00  0.00    +0.000 A 
ATOM     27  C   UNK A   0      10.000  12.559  19.645  0.00  0.00    +0.000 A 
ATOM     28  C   UNK A   0       9.394  12.652  18.393  0.00  0.00    +0.000 A 
ATOM     29  C   UNK A   0       8.800  11.527  17.814  0.00  0.00    +0.000 A 
ENDBRANCH  23  24
ENDBRANCH  19  22
ENDBRANCH   1  18
BRANCH   1  30
ATOM     30  C   UNK A   1       6.880   4.916  15.555  0.00  0.00    +0.000 C 
BRANCH  30  31
ATOM     31  C   UNK A   1       6.860   4.495  14.091  0.00  0.00    +0.000 A 
ATOM     32  C   UNK A   1       7.709   5.146  13.183  0.00  0.00    +0.000 A 
ATOM     33  C   UNK A   1       7.620   4.893  11.812  0.00  0.00    +0.000 A 
ATOM     34  C   UNK A   1       6.713   3.952  11.333  0.00  0.00    +0.000 A 
ATOM     35  C   UNK A   1       5.934   3.226  12.231  0.00  0.00    +0.000 A 
ATOM     36  C   UNK A   1       6.014   3.488  13.603  0.00  0.00    +0.000 A 
ENDBRANCH  30  31
ENDBRANCH   1  30
TORSDOF 10
ENDMDL
MODEL 6
REMARK VINA RESULT:      -8.4      1.836      2.786
REMARK  Name = 
REMARK  10 active torsions:
REMARK  status: ('A' for Active; 'I' for Inactive)
REMARK    1  A    between atoms: C_2  and  C_3
REMARK    2  A    between atoms: C_3  and  C_4
REMARK    3  A    between atoms: C_3  and  N_12
REMARK    4  A    between atoms: C_4  and  C_5
REMARK    5  A    between atoms: C_13  and  C_15
REMARK    6  A    between atoms: C_15  and  C_16
REMARK    7  A    between atoms: C_15  and  N_23
REMARK    8  A    between atoms: C_16  and  C_17
REMARK    9  A    between atoms: C_24  and  C_26
REMARK   10  A    between atoms: C_27  and  C_28
REMARK                            x       y       z     vdW  Elec       q    Type
REMARK                         _______ _______ _______ _____ _____    ______ ____
ROOT
ATOM      1  C   UNK A   1       5.492   5.249  16.786  0.00  0.00    +0.000 C 
ENDROOT
BRANCH   1   3
ATOM      2  N   UNK A   1       3.684   5.185  18.447  0.00  0.00    +0.000 N 
ATOM      3  C   UNK A   1       4.994   4.800  18.182  0.00  0.00    +0.000 C 
ATOM      4  O   UNK A   1       5.652   4.114  18.958  0.00  0.00    +0.000 OA
ATOM      5  H   UNK A   1       3.348   5.947  17.863  0.00  0.00    +0.000 HD
BRANCH   2   6
ATOM      6  C   UNK A   1       3.053   5.021  19.752  0.00  0.00    +0.000 C 
BRANCH   6   8
ATOM      7  O   UNK A   1       2.302   3.147  21.110  0.00  0.00    +0.000 OA
ATOM      8  C   UNK A   1       2.678   3.565  20.017  0.00  0.00    +0.000 C 
ENDBRANCH   6   8
BRANCH   6   9
ATOM      9  C   UNK A   1       1.832   5.946  19.934  0.00  0.00    +0.000 C 
BRANCH   9  10
ATOM     10  C   UNK A   1       2.078   7.461  20.197  0.00  0.00    +0.000 C 
ATOM     11  C   UNK A   1       1.107   8.063  21.223  0.00  0.00    +0.000 C 
ATOM     12  C   UNK A   1       0.899   9.563  21.050  0.00  0.00    +0.000 C 
ATOM     13  C   UNK A   1       0.367   9.812  19.654  0.00  0.00    +0.000 C 
ATOM     14  N   UNK A   1       1.260   9.264  18.668  0.00  0.00    +0.000 N 
ATOM     15  C   UNK A   1       2.063   8.177  18.839  0.00  0.00    +0.000 C 
ATOM     16  O   UNK A   1       2.776   7.821  17.902  0.00  0.00    +0.000 OA
ATOM     17  H   UNK A   1       1.270   9.647  17.730  0.00  0.00    +0.000 HD
ENDBRANCH   9  10
ENDBRANCH   6   9
ENDBRANCH   2   6
ENDBRANCH   1   3
BRANCH   1  18
ATOM     18  N   UNK A   1       6.071   6.595  16.902  0.00  0.00    +0.000 N 
ATOM     19  C   UNK A   0       7.290   6.808  17.481  0.00  0.00    +0.000 C 
ATOM     20  O   UNK A   0       8.024   5.898  17.841  0.00  0.00    +0.000 OA
ATOM     21  H   UNK A   1       5.528   7.374  16.550  0.00  0.00    +0.000 HD
BRANCH  19  22
ATOM     22  C   UNK A   0       7.674   8.231  17.571  0.00  0.00    +0.000 C 
ATOM     23  C   UNK A   0       8.552   8.630  18.506  0.00  0.00    +0.000 C 
BRANCH  23  24
ATOM     24  C   UNK A   0       8.954  10.033  18.684  0.00  0.00    +0.000 A 
ATOM     25  C   UNK A   0       8.672  11.006  17.714  0.00  0.00    +0.000 A 
ATOM     26  C   UNK A   0       9.049  12.328  17.906  0.00  0.00    +0.000 A 
ATOM     27  C   UNK A   0       9.700  12.706  19.077  0.00  0.00    +0.000 A 
ATOM     28  C   UNK A   0       9.962  11.755  20.062  0.00  0.00    +0.000 A 
ATOM     29  C   UNK A   0       9.584  10.423  19.871  0.00  0.00    +0.000 A 
ENDBRANCH  23  24
ENDBRANCH  19  22
ENDBRANCH   1  18
BRANCH   1  30
ATOM     30  C   UNK A   1       6.491   4.251  16.157  0.00  0.00    +0.000 C 
BRANCH  30  31
ATOM     31  C   UNK A   1       6.627   4.349  14.644  0.00  0.00    +0.000 A 
ATOM     32  C   UNK A   1       5.800   3.557  13.832  0.00  0.00    +0.000 A 
ATOM     33  C   UNK A   1       5.990   3.507  12.449  0.00  0.00    +0.000 A 
ATOM     34  C   UNK A   1       6.978   4.285  11.851  0.00  0.00    +0.000 A 
ATOM     35  C   UNK A   1       7.740   5.151  12.632  0.00  0.00    +0.000 A 
ATOM     36  C   UNK A   1       7.559   5.192  14.019  0.00  0.00    +0.000 A 
ENDBRANCH  30  31
ENDBRANCH   1  30
TORSDOF 10
ENDMDL
MODEL 7
REMARK VINA RESULT:      -8.3      1.498      1.757
REMARK  Name = 
REMARK  10 active torsions:
REMARK  status: ('A' for Active; 'I' for Inactive)
REMARK    1  A    between atoms: C_2  and  C_3
REMARK    2  A    between atoms: C_3  and  C_4
REMARK    3  A    between atoms: C_3  and  N_12
REMARK    4  A    between atoms: C_4  and  C_5
REMARK    5  A    between atoms: C_13  and  C_15
REMARK    6  A    between atoms: C_15  and  C_16
REMARK    7  A    between atoms: C_15  and  N_23
REMARK    8  A    between atoms: C_16  and  C_17
REMARK    9  A    between atoms: C_24  and  C_26
REMARK   10  A    between atoms: C_27  and  C_28
REMARK                            x       y       z     vdW  Elec       q    Type
REMARK                         _______ _______ _______ _____ _____    ______ ____
ROOT
ATOM      1  C   UNK A   1       6.778   5.371  16.646  0.00  0.00    +0.000 C 
ENDROOT
BRANCH   1   3
ATOM      2  N   UNK A   1       4.872   3.879  17.068  0.00  0.00    +0.000 N 
ATOM      3  C   UNK A   1       5.951   4.533  17.654  0.00  0.00    +0.000 C 
ATOM      4  O   UNK A   1       6.245   4.395  18.837  0.00  0.00    +0.000 OA
ATOM      5  H   UNK A   1       4.585   4.269  16.173  0.00  0.00    +0.000 HD
BRANCH   2   6
ATOM      6  C   UNK A   1       3.858   3.167  17.838  0.00  0.00    +0.000 C 
BRANCH   6   8
ATOM      7  O   UNK A   1       3.802   0.851  18.582  0.00  0.00    +0.000 OA
ATOM      8  C   UNK A   1       3.981   1.656  17.669  0.00  0.00    +0.000 C 
ENDBRANCH   6   8
BRANCH   6   9
ATOM      9  C   UNK A   1       2.428   3.644  17.507  0.00  0.00    +0.000 C 
BRANCH   9  10
ATOM     10  C   UNK A   1       1.548   4.213  18.658  0.00  0.00    +0.000 C 
ATOM     11  C   UNK A   1       2.317   5.150  19.601  0.00  0.00    +0.000 C 
ATOM     12  C   UNK A   1       1.722   5.216  21.003  0.00  0.00    +0.000 C 
ATOM     13  C   UNK A   1       1.716   3.818  21.585  0.00  0.00    +0.000 C 
ATOM     14  N   UNK A   1       0.995   2.917  20.725  0.00  0.00    +0.000 N 
ATOM     15  C   UNK A   1       0.889   3.024  19.371  0.00  0.00    +0.000 C 
ATOM     16  O   UNK A   1       0.239   2.174  18.765  0.00  0.00    +0.000 OA
ATOM     17  H   UNK A   1       0.577   2.079  21.111  0.00  0.00    +0.000 HD
ENDBRANCH   9  10
ENDBRANCH   6   9
ENDBRANCH   2   6
ENDBRANCH   1   3
BRANCH   1  18
ATOM     18  N   UNK A   1       7.616   6.317  17.395  0.00  0.00    +0.000 N 
ATOM     19  C   UNK A   0       7.359   7.659  17.403  0.00  0.00    +0.000 C 
ATOM     20  O   UNK A   0       6.365   8.149  16.885  0.00  0.00    +0.000 OA
ATOM     21  H   UNK A   1       8.411   5.944  17.900  0.00  0.00    +0.000 HD
BRANCH  19  22
ATOM     22  C   UNK A   0       8.350   8.458  18.151  0.00  0.00    +0.000 C 
ATOM     23  C   UNK A   0       8.337   9.797  18.059  0.00  0.00    +0.000 C 
BRANCH  23  24
ATOM     24  C   UNK A   0       9.314  10.659  18.741  0.00  0.00    +0.000 A 
ATOM     25  C   UNK A   0       9.327  10.792  20.138  0.00  0.00    +0.000 A 
ATOM     26  C   UNK A   0      10.264  11.602  20.764  0.00  0.00    +0.000 A 
ATOM     27  C   UNK A   0      11.217  12.280  20.009  0.00  0.00    +0.000 A 
ATOM     28  C   UNK A   0      11.234  12.135  18.623  0.00  0.00    +0.000 A 
ATOM     29  C   UNK A   0      10.290  11.321  17.989  0.00  0.00    +0.000 A 
ENDBRANCH  23  24
ENDBRANCH  19  22
ENDBRANCH   1  18
BRANCH   1  30
ATOM     30  C   UNK A   1       7.620   4.495  15.690  0.00  0.00    +0.000 C 
BRANCH  30  31
ATOM     31  C   UNK A   1       7.012   4.290  14.309  0.00  0.00    +0.000 A 
ATOM     32  C   UNK A   1       7.731   4.710  13.178  0.00  0.00    +0.000 A 
ATOM     33  C   UNK A   1       7.152   4.674  11.907  0.00  0.00    +0.000 A 
ATOM     34  C   UNK A   1       5.863   4.174  11.741  0.00  0.00    +0.000 A 
ATOM     35  C   UNK A   1       5.176   3.661  12.839  0.00  0.00    +0.000 A 
ATOM     36  C   UNK A   1       5.750   3.708  14.113  0.00  0.00    +0.000 A 
ENDBRANCH  30  31
ENDBRANCH   1  30
TORSDOF 10
ENDMDL
MODEL 8
REMARK VINA RESULT:      -8.3      1.129      1.633
REMARK  Name = 
REMARK  10 active torsions:
REMARK  status: ('A' for Active; 'I' for Inactive)
REMARK    1  A    between atoms: C_2  and  C_3
REMARK    2  A    between atoms: C_3  and  C_4
REMARK    3  A    between atoms: C_3  and  N_12
REMARK    4  A    between atoms: C_4  and  C_5
REMARK    5  A    between atoms: C_13  and  C_15
REMARK    6  A    between atoms: C_15  and  C_16
REMARK    7  A    between atoms: C_15  and  N_23
REMARK    8  A    between atoms: C_16  and  C_17
REMARK    9  A    between atoms: C_24  and  C_26
REMARK   10  A    between atoms: C_27  and  C_28
REMARK                            x       y       z     vdW  Elec       q    Type
REMARK                         _______ _______ _______ _____ _____    ______ ____
ROOT
ATOM      1  C   UNK A   1       6.819   5.336  17.091  0.00  0.00    +0.000 C 
ENDROOT
BRANCH   1   3
ATOM      2  N   UNK A   1       5.071   3.727  17.712  0.00  0.00    +0.000 N 
ATOM      3  C   UNK A   1       6.070   4.560  18.203  0.00  0.00    +0.000 C 
ATOM      4  O   UNK A   1       6.364   4.611  19.393  0.00  0.00    +0.000 OA
ATOM      5  H   UNK A   1       4.756   3.963  16.774  0.00  0.00    +0.000 HD
BRANCH   2   6
ATOM      6  C   UNK A   1       4.126   3.023  18.572  0.00  0.00    +0.000 C 
BRANCH   6   8
ATOM      7  O   UNK A   1       2.070   2.925  17.274  0.00  0.00    +0.000 OA
ATOM      8  C   UNK A   1       3.032   2.334  17.761  0.00  0.00    +0.000 C 
ENDBRANCH   6   8
BRANCH   6   9
ATOM      9  C   UNK A   1       3.516   3.944  19.650  0.00  0.00    +0.000 C 
BRANCH   9  10
ATOM     10  C   UNK A   1       2.508   5.044  19.206  0.00  0.00    +0.000 C 
ATOM     11  C   UNK A   1       3.191   6.329  18.716  0.00  0.00    +0.000 C 
ATOM     12  C   UNK A   1       2.322   7.571  18.870  0.00  0.00    +0.000 C 
ATOM     13  C   UNK A   1       1.964   7.724  20.333  0.00  0.00    +0.000 C 
ATOM     14  N   UNK A   1       1.314   6.536  20.821  0.00  0.00    +0.000 N 
ATOM     15  C   UNK A   1       1.526   5.270  20.365  0.00  0.00    +0.000 C 
ATOM     16  O   UNK A   1       0.898   4.348  20.881  0.00  0.00    +0.000 OA
ATOM     17  H   UNK A   1       0.693   6.594  21.618  0.00  0.00    +0.000 HD
ENDBRANCH   9  10
ENDBRANCH   6   9
ENDBRANCH   2   6
ENDBRANCH   1   3
BRANCH   1  18
ATOM     18  N   UNK A   1       7.699   6.331  17.720  0.00  0.00    +0.000 N 
ATOM     19  C   UNK A   0       7.492   7.674  17.572  0.00  0.00    +0.000 C 
ATOM     20  O   UNK A   0       6.513   8.137  17.003  0.00  0.00    +0.000 OA
ATOM     21  H   UNK A   1       8.483   5.990  18.263  0.00  0.00    +0.000 HD
BRANCH  19  22
ATOM     22  C   UNK A   0       8.519   8.516  18.217  0.00  0.00    +0.000 C 
ATOM     23  C   UNK A   0       8.427   9.854  18.148  0.00  0.00    +0.000 C 
BRANCH  23  24
ATOM     24  C   UNK A   0       9.429  10.759  18.730  0.00  0.00    +0.000 A 
ATOM     25  C   UNK A   0       9.523  10.957  20.116  0.00  0.00    +0.000 A 
ATOM     26  C   UNK A   0      10.483  11.807  20.647  0.00  0.00    +0.000 A 
ATOM     27  C   UNK A   0      11.378  12.462  19.806  0.00  0.00    +0.000 A 
ATOM     28  C   UNK A   0      11.315  12.253  18.429  0.00  0.00    +0.000 A 
ATOM     29  C   UNK A   0      10.348  11.399  17.891  0.00  0.00    +0.000 A 
ENDBRANCH  23  24
ENDBRANCH  19  22
ENDBRANCH   1  18
BRANCH   1  30
ATOM     30  C   UNK A   1       7.602   4.406  16.135  0.00  0.00    +0.000 C 
BRANCH  30  31
ATOM     31  C   UNK A   1       7.149   4.455  14.682  0.00  0.00    +0.000 A 
ATOM     32  C   UNK A   1       6.004   3.737  14.300  0.00  0.00    +0.000 A 
ATOM     33  C   UNK A   1       5.638   3.636  12.956  0.00  0.00    +0.000 A 
ATOM     34  C   UNK A   1       6.383   4.291  11.978  0.00  0.00    +0.000 A 
ATOM     35  C   UNK A   1       7.461   5.089  12.352  0.00  0.00    +0.000 A 
ATOM     36  C   UNK A   1       7.837   5.179  13.697  0.00  0.00    +0.000 A 
ENDBRANCH  30  31
ENDBRANCH   1  30
TORSDOF 10
ENDMDL
MODEL 9
REMARK VINA RESULT:      -8.1      2.012      2.910
REMARK  Name = 
REMARK  10 active torsions:
REMARK  status: ('A' for Active; 'I' for Inactive)
REMARK    1  A    between atoms: C_2  and  C_3
REMARK    2  A    between atoms: C_3  and  C_4
REMARK    3  A    between atoms: C_3  and  N_12
REMARK    4  A    between atoms: C_4  and  C_5
REMARK    5  A    between atoms: C_13  and  C_15
REMARK    6  A    between atoms: C_15  and  C_16
REMARK    7  A    between atoms: C_15  and  N_23
REMARK    8  A    between atoms: C_16  and  C_17
REMARK    9  A    between atoms: C_24  and  C_26
REMARK   10  A    between atoms: C_27  and  C_28
REMARK                            x       y       z     vdW  Elec       q    Type
REMARK                         _______ _______ _______ _____ _____    ______ ____
ROOT
ATOM      1  C   UNK A   1       6.162   6.168  16.670  0.00  0.00    +0.000 C 
ENDROOT
BRANCH   1   3
ATOM      2  N   UNK A   1       3.931   5.281  17.190  0.00  0.00    +0.000 N 
ATOM      3  C   UNK A   1       5.130   5.726  17.737  0.00  0.00    +0.000 C 
ATOM      4  O   UNK A   1       5.357   5.700  18.943  0.00  0.00    +0.000 OA
ATOM      5  H   UNK A   1       3.770   5.589  16.235  0.00  0.00    +0.000 HD
BRANCH   2   6
ATOM      6  C   UNK A   1       2.755   4.969  17.995  0.00  0.00    +0.000 C 
BRANCH   6   8
ATOM      7  O   UNK A   1       1.303   3.021  18.132  0.00  0.00    +0.000 OA
ATOM      8  C   UNK A   1       1.997   3.766  17.442  0.00  0.00    +0.000 C 
ENDBRANCH   6   8
BRANCH   6   9
ATOM      9  C   UNK A   1       1.817   6.184  18.158  0.00  0.00    +0.000 C 
BRANCH   9  10
ATOM     10  C   UNK A   1       2.221   7.308  19.156  0.00  0.00    +0.000 C 
ATOM     11  C   UNK A   1       1.601   7.131  20.550  0.00  0.00    +0.000 C 
ATOM     12  C   UNK A   1       1.451   8.441  21.314  0.00  0.00    +0.000 C 
ATOM     13  C   UNK A   1       0.581   9.373  20.497  0.00  0.00    +0.000 C 
ATOM     14  N   UNK A   1       1.141   9.564  19.185  0.00  0.00    +0.000 N 
ATOM     15  C   UNK A   1       1.889   8.655  18.499  0.00  0.00    +0.000 C 
ATOM     16  O   UNK A   1       2.300   8.958  17.381  0.00  0.00    +0.000 OA
ATOM     17  H   UNK A   1       0.924  10.405  18.663  0.00  0.00    +0.000 HD
ENDBRANCH   9  10
ENDBRANCH   6   9
ENDBRANCH   2   6
ENDBRANCH   1   3
BRANCH   1  18
ATOM     18  N   UNK A   1       6.990   7.245  17.231  0.00  0.00    +0.000 N 
ATOM     19  C   UNK A   0       7.893   7.015  18.229  0.00  0.00    +0.000 C 
ATOM     20  O   UNK A   0       8.151   5.894  18.647  0.00  0.00    +0.000 OA
ATOM     21  H   UNK A   1       6.860   8.179  16.862  0.00  0.00    +0.000 HD
BRANCH  19  22
ATOM     22  C   UNK A   0       8.580   8.229  18.712  0.00  0.00    +0.000 C 
ATOM     23  C   UNK A   0       8.363   9.408  18.106  0.00  0.00    +0.000 C 
BRANCH  23  24
ATOM     24  C   UNK A   0       9.038  10.652  18.503  0.00  0.00    +0.000 A 
ATOM     25  C   UNK A   0       8.869  11.842  17.780  0.00  0.00    +0.000 A 
ATOM     26  C   UNK A   0       9.505  13.010  18.178  0.00  0.00    +0.000 A 
ATOM     27  C   UNK A   0      10.309  13.015  19.314  0.00  0.00    +0.000 A 
ATOM     28  C   UNK A   0      10.464  11.846  20.058  0.00  0.00    +0.000 A 
ATOM     29  C   UNK A   0       9.825  10.668  19.660  0.00  0.00    +0.000 A 
ENDBRANCH  23  24
ENDBRANCH  19  22
ENDBRANCH   1  18
BRANCH   1  30
ATOM     30  C   UNK A   1       7.026   4.995  16.152  0.00  0.00    +0.000 C 
BRANCH  30  31
ATOM     31  C   UNK A   1       6.917   4.733  14.655  0.00  0.00    +0.000 A 
ATOM     32  C   UNK A   1       5.962   3.813  14.193  0.00  0.00    +0.000 A 
ATOM     33  C   UNK A   1       5.925   3.435  12.848  0.00  0.00    +0.000 A 
ATOM     34  C   UNK A   1       6.812   4.005  11.938  0.00  0.00    +0.000 A 
ATOM     35  C   UNK A   1       7.697   4.991  12.364  0.00  0.00    +0.000 A 
ATOM     36  C   UNK A   1       7.743   5.361  13.712  0.00  0.00    +0.000 A 
ENDBRANCH  30  31
ENDBRANCH   1  30
TORSDOF 10
ENDMDL
