MODEL 1
REMARK VINA RESULT:      -7.3      0.000      0.000
REMARK  Name = 
REMARK  7 active torsions:
REMARK  status: ('A' for Active; 'I' for Inactive)
REMARK    1  A    between atoms: C_1  and  C_2
REMARK    2  A    between atoms: C_7  and  C_8
REMARK    3  A    between atoms: N_16  and  C1*_17
REMARK    4  A    between atoms: C4*_19  and  C5*_20
REMARK    5  A    between atoms: C5*_20  and  O5*_21
REMARK    6  A    between atoms: C3*_22  and  O3*_23
REMARK    7  A    between atoms: C2*_24  and  O2*_25
REMARK                            x       y       z     vdW  Elec       q    Type
REMARK                         _______ _______ _______ _____ _____    ______ ____
ROOT
ATOM      1  C   UNL     1       0.943   9.674  19.621  0.00  0.00    +0.000 A 
ATOM      2  N   UNL     1       0.587   9.202  20.853  0.00  0.00    +0.000 NA
ATOM      3  C   UNL     1       1.041   7.999  21.246  0.00  0.00    +0.000 A 
ATOM      4  N   UNL     1       1.832   7.153  20.564  0.00  0.00    +0.000 NA
ATOM      5  C   UNL     1       2.143   7.642  19.352  0.00  0.00    +0.000 A 
ATOM      6  C   UNL     1       1.751   8.860  18.810  0.00  0.00    +0.000 A 
ATOM      7  N   UNL     1       2.286   9.007  17.544  0.00  0.00    +0.000 NA
ATOM      8  C   UNL     1       2.981   7.914  17.330  0.00  0.00    +0.000 A 
ATOM      9  N   UNL     1       2.933   7.063  18.400  0.00  0.00    +0.000 N 
ENDROOT
BRANCH   1  16
ATOM     10  C   UNL     1      -1.656  10.105  18.103  0.00  0.00    +0.000 C 
ATOM     11  C   UNL     1      -0.732  11.231  18.496  0.00  0.00    +0.000 A 
ATOM     12  C   UNL     1      -1.116  12.540  18.142  0.00  0.00    +0.000 A 
ATOM     13  C   UNL     1      -0.333  13.639  18.489  0.00  0.00    +0.000 A 
ATOM     14  C   UNL     1       0.849  13.447  19.185  0.00  0.00    +0.000 A 
ATOM     15  C   UNL     1       1.249  12.155  19.529  0.00  0.00    +0.000 A 
ATOM     16  C   UNL     1       0.479  11.014  19.207  0.00  0.00    +0.000 A 
ENDBRANCH   1  16
BRANCH   9  17
ATOM     17  C1* UNL     1       3.656   5.817  18.505  0.00  0.00    +0.000 C 
ATOM     18  O4* UNL     1       4.976   5.974  17.939  0.00  0.00    +0.000 OA
ATOM     19  C4* UNL     1       5.285   4.788  17.163  0.00  0.00    +0.000 C 
ATOM     20  C3* UNL     1       4.189   3.769  17.463  0.00  0.00    +0.000 C 
ATOM     21  C2* UNL     1       2.987   4.632  17.811  0.00  0.00    +0.000 C 
BRANCH  20  22
ATOM     22  O3* UNL     1       4.502   2.972  18.624  0.00  0.00    +0.000 OA
ATOM     23  H3* UNL     1       5.426   3.134  18.884  0.00  0.00    +0.000 HD
ENDBRANCH  20  22
BRANCH  21  24
ATOM     24  O2* UNL     1       2.076   3.944  18.671  0.00  0.00    +0.000 OA
ATOM     25  H2* UNL     1       2.162   4.364  19.553  0.00  0.00    +0.000 HD
ENDBRANCH  21  24
BRANCH  19  26
ATOM     26  C5* UNL     1       5.371   5.159  15.680  0.00  0.00    +0.000 C 
BRANCH  26  27
ATOM     27  O5* UNL     1       5.610   6.557  15.542  0.00  0.00    +0.000 OA
ATOM     28  H5* UNL     1       6.419   6.641  15.002  0.00  0.00    +0.000 HD
ENDBRANCH  26  27
ENDBRANCH  19  26
ENDBRANCH   9  17
TORSDOF 6
ENDMDL
MODEL 2
REMARK VINA RESULT:      -7.2      3.467      7.227
REMARK  Name = 
REMARK  7 active torsions:
REMARK  status: ('A' for Active; 'I' for Inactive)
REMARK    1  A    between atoms: C_1  and  C_2
REMARK    2  A    between atoms: C_7  and  C_8
REMARK    3  A    between atoms: N_16  and  C1*_17
REMARK    4  A    between atoms: C4*_19  and  C5*_20
REMARK    5  A    between atoms: C5*_20  and  O5*_21
REMARK    6  A    between atoms: C3*_22  and  O3*_23
REMARK    7  A    between atoms: C2*_24  and  O2*_25
REMARK                            x       y       z     vdW  Elec       q    Type
REMARK                         _______ _______ _______ _____ _____    ______ ____
ROOT
ATOM      1  C   UNL     1       3.272   6.232  18.763  0.00  0.00    +0.000 A 
ATOM      2  N   UNL     1       3.025   5.478  19.877  0.00  0.00    +0.000 NA
ATOM      3  C   UNL     1       2.156   5.937  20.794  0.00  0.00    +0.000 A 
ATOM      4  N   UNL     1       1.465   7.090  20.773  0.00  0.00    +0.000 NA
ATOM      5  C   UNL     1       1.751   7.812  19.676  0.00  0.00    +0.000 A 
ATOM      6  C   UNL     1       2.621   7.472  18.648  0.00  0.00    +0.000 A 
ATOM      7  N   UNL     1       2.634   8.470  17.691  0.00  0.00    +0.000 NA
ATOM      8  C   UNL     1       1.797   9.381  18.128  0.00  0.00    +0.000 A 
ATOM      9  N   UNL     1       1.229   9.023  19.320  0.00  0.00    +0.000 N 
ENDROOT
BRANCH   1  16
ATOM     10  C   UNL     1       2.746   3.637  17.269  0.00  0.00    +0.000 C 
ATOM     11  C   UNL     1       3.963   4.497  17.029  0.00  0.00    +0.000 A 
ATOM     12  C   UNL     1       4.882   4.064  16.052  0.00  0.00    +0.000 A 
ATOM     13  C   UNL     1       6.018   4.812  15.751  0.00  0.00    +0.000 A 
ATOM     14  C   UNL     1       6.258   5.997  16.426  0.00  0.00    +0.000 A 
ATOM     15  C   UNL     1       5.363   6.431  17.406  0.00  0.00    +0.000 A 
ATOM     16  C   UNL     1       4.194   5.709  17.735  0.00  0.00    +0.000 A 
ENDBRANCH   1  16
BRANCH   9  17
ATOM     17  C1* UNL     1       0.211   9.775  20.016  0.00  0.00    +0.000 C 
ATOM     18  O4* UNL     1      -0.694  10.367  19.058  0.00  0.00    +0.000 OA
ATOM     19  C4* UNL     1      -0.993  11.720  19.487  0.00  0.00    +0.000 C 
ATOM     20  C3* UNL     1      -0.418  11.872  20.893  0.00  0.00    +0.000 C 
ATOM     21  C2* UNL     1       0.745  10.893  20.910  0.00  0.00    +0.000 C 
BRANCH  20  22
ATOM     22  O3* UNL     1      -1.357  11.448  21.904  0.00  0.00    +0.000 OA
ATOM     23  H3* UNL     1      -2.176  11.145  21.473  0.00  0.00    +0.000 HD
ENDBRANCH  20  22
BRANCH  21  24
ATOM     24  O2* UNL     1       1.031  10.438  22.233  0.00  0.00    +0.000 OA
ATOM     25  H2* UNL     1       0.687  11.128  22.841  0.00  0.00    +0.000 HD
ENDBRANCH  21  24
BRANCH  19  26
ATOM     26  C5* UNL     1      -0.399  12.713  18.485  0.00  0.00    +0.000 C 
BRANCH  26  27
ATOM     27  O5* UNL     1      -1.169  12.714  17.286  0.00  0.00    +0.000 OA
ATOM     28  H5* UNL     1      -1.367  13.650  17.092  0.00  0.00    +0.000 HD
ENDBRANCH  26  27
ENDBRANCH  19  26
ENDBRANCH   9  17
TORSDOF 6
ENDMDL
MODEL 3
REMARK VINA RESULT:      -7.0      1.281      2.412
REMARK  Name = 
REMARK  7 active torsions:
REMARK  status: ('A' for Active; 'I' for Inactive)
REMARK    1  A    between atoms: C_1  and  C_2
REMARK    2  A    between atoms: C_7  and  C_8
REMARK    3  A    between atoms: N_16  and  C1*_17
REMARK    4  A    between atoms: C4*_19  and  C5*_20
REMARK    5  A    between atoms: C5*_20  and  O5*_21
REMARK    6  A    between atoms: C3*_22  and  O3*_23
REMARK    7  A    between atoms: C2*_24  and  O2*_25
REMARK                            x       y       z     vdW  Elec       q    Type
REMARK                         _______ _______ _______ _____ _____    ______ ____
ROOT
ATOM      1  C   UNL     1       1.066   9.606  19.640  0.00  0.00    +0.000 A 
ATOM      2  N   UNL     1       0.715   9.147  20.878  0.00  0.00    +0.000 NA
ATOM      3  C   UNL     1       1.078   7.904  21.239  0.00  0.00    +0.000 A 
ATOM      4  N   UNL     1       1.769   7.004  20.518  0.00  0.00    +0.000 NA
ATOM      5  C   UNL     1       2.077   7.483  19.301  0.00  0.00    +0.000 A 
ATOM      6  C   UNL     1       1.771   8.738  18.789  0.00  0.00    +0.000 A 
ATOM      7  N   UNL     1       2.271   8.859  17.506  0.00  0.00    +0.000 NA
ATOM      8  C   UNL     1       2.861   7.714  17.253  0.00  0.00    +0.000 A 
ATOM      9  N   UNL     1       2.779   6.854  18.313  0.00  0.00    +0.000 N 
ENDROOT
BRANCH   1  16
ATOM     10  C   UNL     1      -1.569  10.289  18.284  0.00  0.00    +0.000 C 
ATOM     11  C   UNL     1      -0.523  11.321  18.624  0.00  0.00    +0.000 A 
ATOM     12  C   UNL     1      -0.805  12.664  18.299  0.00  0.00    +0.000 A 
ATOM     13  C   UNL     1       0.096  13.682  18.603  0.00  0.00    +0.000 A 
ATOM     14  C   UNL     1       1.295  13.376  19.224  0.00  0.00    +0.000 A 
ATOM     15  C   UNL     1       1.594  12.049  19.538  0.00  0.00    +0.000 A 
ATOM     16  C   UNL     1       0.704  10.987  19.260  0.00  0.00    +0.000 A 
ENDBRANCH   1  16
BRANCH   9  17
ATOM     17  C1* UNL     1       3.396   5.549  18.375  0.00  0.00    +0.000 C 
ATOM     18  O4* UNL     1       2.376   4.536  18.508  0.00  0.00    +0.000 OA
ATOM     19  C4* UNL     1       2.828   3.554  19.474  0.00  0.00    +0.000 C 
ATOM     20  C3* UNL     1       4.293   3.871  19.769  0.00  0.00    +0.000 C 
ATOM     21  C2* UNL     1       4.389   5.368  19.522  0.00  0.00    +0.000 C 
BRANCH  20  22
ATOM     22  O3* UNL     1       5.180   3.219  18.836  0.00  0.00    +0.000 OA
ATOM     23  H3* UNL     1       4.687   2.535  18.350  0.00  0.00    +0.000 HD
ENDBRANCH  20  22
BRANCH  21  24
ATOM     24  O2* UNL     1       5.714   5.758  19.159  0.00  0.00    +0.000 OA
ATOM     25  H2* UNL     1       5.622   6.357  18.387  0.00  0.00    +0.000 HD
ENDBRANCH  21  24
BRANCH  19  26
ATOM     26  C5* UNL     1       1.938   3.617  20.717  0.00  0.00    +0.000 C 
BRANCH  26  27
ATOM     27  O5* UNL     1       0.623   4.028  20.353  0.00  0.00    +0.000 OA
ATOM     28  H5* UNL     1       0.677   4.312  19.421  0.00  0.00    +0.000 HD
ENDBRANCH  26  27
ENDBRANCH  19  26
ENDBRANCH   9  17
TORSDOF 6
ENDMDL
MODEL 4
REMARK VINA RESULT:      -7.0      3.463      7.157
REMARK  Name = 
REMARK  7 active torsions:
REMARK  status: ('A' for Active; 'I' for Inactive)
REMARK    1  A    between atoms: C_1  and  C_2
REMARK    2  A    between atoms: C_7  and  C_8
REMARK    3  A    between atoms: N_16  and  C1*_17
REMARK    4  A    between atoms: C4*_19  and  C5*_20
REMARK    5  A    between atoms: C5*_20  and  O5*_21
REMARK    6  A    between atoms: C3*_22  and  O3*_23
REMARK    7  A    between atoms: C2*_24  and  O2*_25
REMARK                            x       y       z     vdW  Elec       q    Type
REMARK                         _______ _______ _______ _____ _____    ______ ____
ROOT
ATOM      1  C   UNL     1       2.636   6.532  19.129  0.00  0.00    +0.000 A 
ATOM      2  N   UNL     1       2.218   6.094  20.355  0.00  0.00    +0.000 NA
ATOM      3  C   UNL     1       1.476   6.912  21.121  0.00  0.00    +0.000 A 
ATOM      4  N   UNL     1       1.069   8.162  20.840  0.00  0.00    +0.000 NA
ATOM      5  C   UNL     1       1.517   8.565  19.639  0.00  0.00    +0.000 A 
ATOM      6  C   UNL     1       2.288   7.838  18.741  0.00  0.00    +0.000 A 
ATOM      7  N   UNL     1       2.533   8.592  17.610  0.00  0.00    +0.000 NA
ATOM      8  C   UNL     1       1.927   9.738  17.817  0.00  0.00    +0.000 A 
ATOM      9  N   UNL     1       1.289   9.765  19.027  0.00  0.00    +0.000 N 
ENDROOT
BRANCH   1  16
ATOM     10  C   UNL     1       1.396   4.104  17.784  0.00  0.00    +0.000 C 
ATOM     11  C   UNL     1       2.850   4.478  17.635  0.00  0.00    +0.000 A 
ATOM     12  C   UNL     1       3.653   3.656  16.820  0.00  0.00    +0.000 A 
ATOM     13  C   UNL     1       4.999   3.946  16.609  0.00  0.00    +0.000 A 
ATOM     14  C   UNL     1       5.566   5.054  17.216  0.00  0.00    +0.000 A 
ATOM     15  C   UNL     1       4.786   5.869  18.038  0.00  0.00    +0.000 A 
ATOM     16  C   UNL     1       3.415   5.618  18.269  0.00  0.00    +0.000 A 
ENDBRANCH   1  16
BRANCH   9  17
ATOM     17  C1* UNL     1       0.470  10.851  19.512  0.00  0.00    +0.000 C 
ATOM     18  O4* UNL     1       0.308  11.838  18.470  0.00  0.00    +0.000 OA
ATOM     19  C4* UNL     1       0.429  13.156  19.064  0.00  0.00    +0.000 C 
ATOM     20  C3* UNL     1       0.437  12.955  20.577  0.00  0.00    +0.000 C 
ATOM     21  C2* UNL     1       1.019  11.561  20.748  0.00  0.00    +0.000 C 
BRANCH  20  22
ATOM     22  O3* UNL     1      -0.898  12.939  21.123  0.00  0.00    +0.000 OA
ATOM     23  H3* UNL     1      -1.066  12.072  21.533  0.00  0.00    +0.000 HD
ENDBRANCH  20  22
BRANCH  21  24
ATOM     24  O2* UNL     1       0.579  10.952  21.963  0.00  0.00    +0.000 OA
ATOM     25  H2* UNL     1      -0.087  11.561  22.349  0.00  0.00    +0.000 HD
ENDBRANCH  21  24
BRANCH  19  26
ATOM     26  C5* UNL     1       1.697  13.834  18.541  0.00  0.00    +0.000 C 
BRANCH  26  27
ATOM     27  O5* UNL     1       2.214  13.108  17.428  0.00  0.00    +0.000 OA
ATOM     28  H5* UNL     1       2.680  13.761  16.872  0.00  0.00    +0.000 HD
ENDBRANCH  26  27
ENDBRANCH  19  26
ENDBRANCH   9  17
TORSDOF 6
ENDMDL
MODEL 5
REMARK VINA RESULT:      -7.0      3.066      7.304
REMARK  Name = 
REMARK  7 active torsions:
REMARK  status: ('A' for Active; 'I' for Inactive)
REMARK    1  A    between atoms: C_1  and  C_2
REMARK    2  A    between atoms: C_7  and  C_8
REMARK    3  A    between atoms: N_16  and  C1*_17
REMARK    4  A    between atoms: C4*_19  and  C5*_20
REMARK    5  A    between atoms: C5*_20  and  O5*_21
REMARK    6  A    between atoms: C3*_22  and  O3*_23
REMARK    7  A    between atoms: C2*_24  and  O2*_25
REMARK                            x       y       z     vdW  Elec       q    Type
REMARK                         _______ _______ _______ _____ _____    ______ ____
ROOT
ATOM      1  C   UNL     1       3.881   5.514  18.601  0.00  0.00    +0.000 A 
ATOM      2  N   UNL     1       3.518   4.692  19.631  0.00  0.00    +0.000 NA
ATOM      3  C   UNL     1       2.585   5.112  20.502  0.00  0.00    +0.000 A 
ATOM      4  N   UNL     1       1.928   6.285  20.506  0.00  0.00    +0.000 NA
ATOM      5  C   UNL     1       2.327   7.074  19.494  0.00  0.00    +0.000 A 
ATOM      6  C   UNL     1       3.275   6.780  18.521  0.00  0.00    +0.000 A 
ATOM      7  N   UNL     1       3.397   7.841  17.645  0.00  0.00    +0.000 NA
ATOM      8  C   UNL     1       2.548   8.746  18.074  0.00  0.00    +0.000 A 
ATOM      9  N   UNL     1       1.870   8.323  19.184  0.00  0.00    +0.000 N 
ENDROOT
BRANCH   1  16
ATOM     10  C   UNL     1       6.872   5.577  19.144  0.00  0.00    +0.000 C 
ATOM     11  C   UNL     1       6.277   5.060  17.858  0.00  0.00    +0.000 A 
ATOM     12  C   UNL     1       7.166   4.577  16.877  0.00  0.00    +0.000 A 
ATOM     13  C   UNL     1       6.697   4.058  15.672  0.00  0.00    +0.000 A 
ATOM     14  C   UNL     1       5.335   4.024  15.423  0.00  0.00    +0.000 A 
ATOM     15  C   UNL     1       4.443   4.512  16.380  0.00  0.00    +0.000 A 
ATOM     16  C   UNL     1       4.875   5.036  17.619  0.00  0.00    +0.000 A 
ENDBRANCH   1  16
BRANCH   9  17
ATOM     17  C1* UNL     1       0.815   9.056  19.844  0.00  0.00    +0.000 C 
ATOM     18  O4* UNL     1       0.316  10.087  18.963  0.00  0.00    +0.000 OA
ATOM     19  C4* UNL     1       0.105  11.292  19.741  0.00  0.00    +0.000 C 
ATOM     20  C3* UNL     1       0.269  10.901  21.208  0.00  0.00    +0.000 C 
ATOM     21  C2* UNL     1       1.226   9.720  21.157  0.00  0.00    +0.000 C 
BRANCH  20  22
ATOM     22  O3* UNL     1      -0.970  10.432  21.779  0.00  0.00    +0.000 OA
ATOM     23  H3* UNL     1      -1.601  10.240  21.063  0.00  0.00    +0.000 HD
ENDBRANCH  20  22
BRANCH  21  24
ATOM     24  O2* UNL     1       1.053   8.854  22.279  0.00  0.00    +0.000 OA
ATOM     25  H2* UNL     1       0.446   8.141  21.985  0.00  0.00    +0.000 HD
ENDBRANCH  21  24
BRANCH  19  26
ATOM     26  C5* UNL     1       1.097  12.367  19.292  0.00  0.00    +0.000 C 
BRANCH  26  27
ATOM     27  O5* UNL     1       1.578  12.069  17.983  0.00  0.00    +0.000 OA
ATOM     28  H5* UNL     1       0.994  11.368  17.634  0.00  0.00    +0.000 HD
ENDBRANCH  26  27
ENDBRANCH  19  26
ENDBRANCH   9  17
TORSDOF 6
ENDMDL
MODEL 6
REMARK VINA RESULT:      -7.0      3.580      7.261
REMARK  Name = 
REMARK  7 active torsions:
REMARK  status: ('A' for Active; 'I' for Inactive)
REMARK    1  A    between atoms: C_1  and  C_2
REMARK    2  A    between atoms: C_7  and  C_8
REMARK    3  A    between atoms: N_16  and  C1*_17
REMARK    4  A    between atoms: C4*_19  and  C5*_20
REMARK    5  A    between atoms: C5*_20  and  O5*_21
REMARK    6  A    between atoms: C3*_22  and  O3*_23
REMARK    7  A    between atoms: C2*_24  and  O2*_25
REMARK                            x       y       z     vdW  Elec       q    Type
REMARK                         _______ _______ _______ _____ _____    ______ ____
ROOT
ATOM      1  C   UNL     1       2.589   6.683  19.047  0.00  0.00    +0.000 A 
ATOM      2  N   UNL     1       2.181   6.226  20.269  0.00  0.00    +0.000 NA
ATOM      3  C   UNL     1       1.462   7.039  21.061  0.00  0.00    +0.000 A 
ATOM      4  N   UNL     1       1.072   8.302  20.812  0.00  0.00    +0.000 NA
ATOM      5  C   UNL     1       1.510   8.722  19.613  0.00  0.00    +0.000 A 
ATOM      6  C   UNL     1       2.257   8.001  18.690  0.00  0.00    +0.000 A 
ATOM      7  N   UNL     1       2.500   8.775  17.571  0.00  0.00    +0.000 NA
ATOM      8  C   UNL     1       1.915   9.925  17.810  0.00  0.00    +0.000 A 
ATOM      9  N   UNL     1       1.293   9.937  19.029  0.00  0.00    +0.000 N 
ENDROOT
BRANCH   1  16
ATOM     10  C   UNL     1       1.424   4.069  18.019  0.00  0.00    +0.000 C 
ATOM     11  C   UNL     1       2.811   4.548  17.671  0.00  0.00    +0.000 A 
ATOM     12  C   UNL     1       3.585   3.736  16.817  0.00  0.00    +0.000 A 
ATOM     13  C   UNL     1       4.866   4.118  16.426  0.00  0.00    +0.000 A 
ATOM     14  C   UNL     1       5.398   5.310  16.888  0.00  0.00    +0.000 A 
ATOM     15  C   UNL     1       4.649   6.118  17.746  0.00  0.00    +0.000 A 
ATOM     16  C   UNL     1       3.342   5.774  18.158  0.00  0.00    +0.000 A 
ENDBRANCH   1  16
BRANCH   9  17
ATOM     17  C1* UNL     1       0.498  11.026  19.546  0.00  0.00    +0.000 C 
ATOM     18  O4* UNL     1       0.852  11.273  20.925  0.00  0.00    +0.000 OA
ATOM     19  C4* UNL     1      -0.366  11.515  21.674  0.00  0.00    +0.000 C 
ATOM     20  C3* UNL     1      -1.491  11.646  20.651  0.00  0.00    +0.000 C 
ATOM     21  C2* UNL     1      -1.011  10.799  19.484  0.00  0.00    +0.000 C 
BRANCH  20  22
ATOM     22  O3* UNL     1      -1.629  13.002  20.176  0.00  0.00    +0.000 OA
ATOM     23  H3* UNL     1      -2.409  13.061  19.596  0.00  0.00    +0.000 HD
ENDBRANCH  20  22
BRANCH  21  24
ATOM     24  O2* UNL     1      -1.575  11.239  18.247  0.00  0.00    +0.000 OA
ATOM     25  H2* UNL     1      -0.831  11.605  17.721  0.00  0.00    +0.000 HD
ENDBRANCH  21  24
BRANCH  19  26
ATOM     26  C5* UNL     1      -0.587  10.373  22.668  0.00  0.00    +0.000 C 
BRANCH  26  27
ATOM     27  O5* UNL     1       0.664   9.942  23.200  0.00  0.00    +0.000 OA
ATOM     28  H5* UNL     1       1.200   9.660  22.434  0.00  0.00    +0.000 HD
ENDBRANCH  26  27
ENDBRANCH  19  26
ENDBRANCH   9  17
TORSDOF 6
ENDMDL
MODEL 7
REMARK VINA RESULT:      -6.9      3.659      7.405
REMARK  Name = 
REMARK  7 active torsions:
REMARK  status: ('A' for Active; 'I' for Inactive)
REMARK    1  A    between atoms: C_1  and  C_2
REMARK    2  A    between atoms: C_7  and  C_8
REMARK    3  A    between atoms: N_16  and  C1*_17
REMARK    4  A    between atoms: C4*_19  and  C5*_20
REMARK    5  A    between atoms: C5*_20  and  O5*_21
REMARK    6  A    between atoms: C3*_22  and  O3*_23
REMARK    7  A    between atoms: C2*_24  and  O2*_25
REMARK                            x       y       z     vdW  Elec       q    Type
REMARK                         _______ _______ _______ _____ _____    ______ ____
ROOT
ATOM      1  C   UNL     1       2.668   6.648  19.093  0.00  0.00    +0.000 A 
ATOM      2  N   UNL     1       2.273   6.205  20.324  0.00  0.00    +0.000 NA
ATOM      3  C   UNL     1       1.502   6.998  21.086  0.00  0.00    +0.000 A 
ATOM      4  N   UNL     1       1.045   8.229  20.797  0.00  0.00    +0.000 NA
ATOM      5  C   UNL     1       1.471   8.639  19.590  0.00  0.00    +0.000 A 
ATOM      6  C   UNL     1       2.267   7.935  18.695  0.00  0.00    +0.000 A 
ATOM      7  N   UNL     1       2.477   8.690  17.556  0.00  0.00    +0.000 NA
ATOM      8  C   UNL     1       1.826   9.812  17.757  0.00  0.00    +0.000 A 
ATOM      9  N   UNL     1       1.192   9.824  18.970  0.00  0.00    +0.000 N 
ENDROOT
BRANCH   1  16
ATOM     10  C   UNL     1       1.514   4.175  17.753  0.00  0.00    +0.000 C 
ATOM     11  C   UNL     1       2.954   4.598  17.606  0.00  0.00    +0.000 A 
ATOM     12  C   UNL     1       3.787   3.801  16.794  0.00  0.00    +0.000 A 
ATOM     13  C   UNL     1       5.122   4.136  16.585  0.00  0.00    +0.000 A 
ATOM     14  C   UNL     1       5.651   5.265  17.190  0.00  0.00    +0.000 A 
ATOM     15  C   UNL     1       4.841   6.055  18.008  0.00  0.00    +0.000 A 
ATOM     16  C   UNL     1       3.479   5.759  18.237  0.00  0.00    +0.000 A 
ENDBRANCH   1  16
BRANCH   9  17
ATOM     17  C1* UNL     1       0.333  10.881  19.448  0.00  0.00    +0.000 C 
ATOM     18  O4* UNL     1      -1.049  10.505  19.259  0.00  0.00    +0.000 OA
ATOM     19  C4* UNL     1      -1.777  11.664  18.777  0.00  0.00    +0.000 C 
ATOM     20  C3* UNL     1      -0.832  12.857  18.900  0.00  0.00    +0.000 C 
ATOM     21  C2* UNL     1       0.548  12.233  18.770  0.00  0.00    +0.000 C 
BRANCH  20  22
ATOM     22  O3* UNL     1      -0.911  13.470  20.204  0.00  0.00    +0.000 OA
ATOM     23  H3* UNL     1      -0.656  12.819  20.880  0.00  0.00    +0.000 HD
ENDBRANCH  20  22
BRANCH  21  24
ATOM     24  O2* UNL     1       1.544  13.017  19.429  0.00  0.00    +0.000 OA
ATOM     25  H2* UNL     1       2.160  13.323  18.729  0.00  0.00    +0.000 HD
ENDBRANCH  21  24
BRANCH  19  26
ATOM     26  C5* UNL     1      -2.241  11.411  17.341  0.00  0.00    +0.000 C 
BRANCH  26  27
ATOM     27  O5* UNL     1      -3.557  11.928  17.158  0.00  0.00    +0.000 OA
ATOM     28  H5* UNL     1      -4.083  11.199  16.777  0.00  0.00    +0.000 HD
ENDBRANCH  26  27
ENDBRANCH  19  26
ENDBRANCH   9  17
TORSDOF 6
ENDMDL
MODEL 8
REMARK VINA RESULT:      -6.9      1.147      1.161
REMARK  Name = 
REMARK  7 active torsions:
REMARK  status: ('A' for Active; 'I' for Inactive)
REMARK    1  A    between atoms: C_1  and  C_2
REMARK    2  A    between atoms: C_7  and  C_8
REMARK    3  A    between atoms: N_16  and  C1*_17
REMARK    4  A    between atoms: C4*_19  and  C5*_20
REMARK    5  A    between atoms: C5*_20  and  O5*_21
REMARK    6  A    between atoms: C3*_22  and  O3*_23
REMARK    7  A    between atoms: C2*_24  and  O2*_25
REMARK                            x       y       z     vdW  Elec       q    Type
REMARK                         _______ _______ _______ _____ _____    ______ ____
ROOT
ATOM      1  C   UNL     1       0.940   9.686  19.864  0.00  0.00    +0.000 A 
ATOM      2  N   UNL     1       0.493   9.333  21.107  0.00  0.00    +0.000 NA
ATOM      3  C   UNL     1       0.770   8.104  21.575  0.00  0.00    +0.000 A 
ATOM      4  N   UNL     1       1.456   7.123  20.962  0.00  0.00    +0.000 NA
ATOM      5  C   UNL     1       1.860   7.499  19.737  0.00  0.00    +0.000 A 
ATOM      6  C   UNL     1       1.650   8.727  19.121  0.00  0.00    +0.000 A 
ATOM      7  N   UNL     1       2.231   8.732  17.867  0.00  0.00    +0.000 NA
ATOM      8  C   UNL     1       2.776   7.546  17.731  0.00  0.00    +0.000 A 
ATOM      9  N   UNL     1       2.587   6.768  18.841  0.00  0.00    +0.000 N 
ENDROOT
BRANCH   1  16
ATOM     10  C   UNL     1      -1.565  10.388  18.290  0.00  0.00    +0.000 C 
ATOM     11  C   UNL     1      -0.493  11.394  18.630  0.00  0.00    +0.000 A 
ATOM     12  C   UNL     1      -0.687  12.722  18.196  0.00  0.00    +0.000 A 
ATOM     13  C   UNL     1       0.242  13.717  18.491  0.00  0.00    +0.000 A 
ATOM     14  C   UNL     1       1.382  13.402  19.211  0.00  0.00    +0.000 A 
ATOM     15  C   UNL     1       1.594  12.089  19.634  0.00  0.00    +0.000 A 
ATOM     16  C   UNL     1       0.672  11.051  19.368  0.00  0.00    +0.000 A 
ENDBRANCH   1  16
BRANCH   9  17
ATOM     17  C1* UNL     1       3.132   5.444  19.032  0.00  0.00    +0.000 C 
ATOM     18  O4* UNL     1       4.448   5.542  19.620  0.00  0.00    +0.000 OA
ATOM     19  C4* UNL     1       5.315   4.581  18.966  0.00  0.00    +0.000 C 
ATOM     20  C3* UNL     1       4.419   3.704  18.095  0.00  0.00    +0.000 C 
ATOM     21  C2* UNL     1       3.251   4.615  17.754  0.00  0.00    +0.000 C 
BRANCH  20  22
ATOM     22  O3* UNL     1       3.892   2.580  18.831  0.00  0.00    +0.000 OA
ATOM     23  H3* UNL     1       4.628   2.097  19.249  0.00  0.00    +0.000 HD
ENDBRANCH  20  22
BRANCH  21  24
ATOM     24  O2* UNL     1       2.064   3.870  17.479  0.00  0.00    +0.000 OA
ATOM     25  H2* UNL     1       1.313   4.439  17.751  0.00  0.00    +0.000 HD
ENDBRANCH  21  24
BRANCH  19  26
ATOM     26  C5* UNL     1       6.386   5.327  18.166  0.00  0.00    +0.000 C 
BRANCH  26  27
ATOM     27  O5* UNL     1       7.481   4.457  17.892  0.00  0.00    +0.000 OA
ATOM     28  H5* UNL     1       7.875   4.237  18.758  0.00  0.00    +0.000 HD
ENDBRANCH  26  27
ENDBRANCH  19  26
ENDBRANCH   9  17
TORSDOF 6
ENDMDL
MODEL 9
REMARK VINA RESULT:      -6.9      1.855      3.377
REMARK  Name = 
REMARK  7 active torsions:
REMARK  status: ('A' for Active; 'I' for Inactive)
REMARK    1  A    between atoms: C_1  and  C_2
REMARK    2  A    between atoms: C_7  and  C_8
REMARK    3  A    between atoms: N_16  and  C1*_17
REMARK    4  A    between atoms: C4*_19  and  C5*_20
REMARK    5  A    between atoms: C5*_20  and  O5*_21
REMARK    6  A    between atoms: C3*_22  and  O3*_23
REMARK    7  A    between atoms: C2*_24  and  O2*_25
REMARK                            x       y       z     vdW  Elec       q    Type
REMARK                         _______ _______ _______ _____ _____    ______ ____
ROOT
ATOM      1  C   UNL     1       1.113   9.296  19.905  0.00  0.00    +0.000 A 
ATOM      2  N   UNL     1       1.466  10.024  18.803  0.00  0.00    +0.000 NA
ATOM      3  C   UNL     1       2.190   9.434  17.837  0.00  0.00    +0.000 A 
ATOM      4  N   UNL     1       2.642   8.168  17.801  0.00  0.00    +0.000 NA
ATOM      5  C   UNL     1       2.294   7.492  18.908  0.00  0.00    +0.000 A 
ATOM      6  C   UNL     1       1.553   7.964  19.985  0.00  0.00    +0.000 A 
ATOM      7  N   UNL     1       1.395   6.963  20.924  0.00  0.00    +0.000 NA
ATOM      8  C   UNL     1       2.018   5.919  20.429  0.00  0.00    +0.000 A 
ATOM      9  N   UNL     1       2.569   6.188  19.206  0.00  0.00    +0.000 N 
ENDROOT
BRANCH   1  16
ATOM     10  C   UNL     1      -0.848  11.536  19.285  0.00  0.00    +0.000 C 
ATOM     11  C   UNL     1      -0.639  10.981  20.673  0.00  0.00    +0.000 A 
ATOM     12  C   UNL     1      -1.408  11.534  21.717  0.00  0.00    +0.000 A 
ATOM     13  C   UNL     1      -1.295  11.061  23.022  0.00  0.00    +0.000 A 
ATOM     14  C   UNL     1      -0.406  10.037  23.307  0.00  0.00    +0.000 A 
ATOM     15  C   UNL     1       0.372   9.491  22.286  0.00  0.00    +0.000 A 
ATOM     16  C   UNL     1       0.281   9.932  20.947  0.00  0.00    +0.000 A 
ENDBRANCH   1  16
BRANCH   9  17
ATOM     17  C1* UNL     1       3.250   5.226  18.371  0.00  0.00    +0.000 C 
ATOM     18  O4* UNL     1       2.758   3.899  18.661  0.00  0.00    +0.000 OA
ATOM     19  C4* UNL     1       3.887   2.988  18.690  0.00  0.00    +0.000 C 
ATOM     20  C3* UNL     1       5.092   3.767  18.167  0.00  0.00    +0.000 C 
ATOM     21  C2* UNL     1       4.769   5.207  18.530  0.00  0.00    +0.000 C 
BRANCH  20  22
ATOM     22  O3* UNL     1       5.194   3.693  16.730  0.00  0.00    +0.000 OA
ATOM     23  H3* UNL     1       4.493   4.237  16.330  0.00  0.00    +0.000 HD
ENDBRANCH  20  22
BRANCH  21  24
ATOM     24  O2* UNL     1       5.417   6.129  17.651  0.00  0.00    +0.000 OA
ATOM     25  H2* UNL     1       5.720   5.605  16.879  0.00  0.00    +0.000 HD
ENDBRANCH  21  24
BRANCH  19  26
ATOM     26  C5* UNL     1       4.082   2.466  20.115  0.00  0.00    +0.000 C 
BRANCH  26  27
ATOM     27  O5* UNL     1       5.227   1.620  20.171  0.00  0.00    +0.000 OA
ATOM     28  H5* UNL     1       6.002   2.214  20.186  0.00  0.00    +0.000 HD
ENDBRANCH  26  27
ENDBRANCH  19  26
ENDBRANCH   9  17
TORSDOF 6
ENDMDL
