MODEL 1
REMARK VINA RESULT:      -9.3      0.000      0.000
REMARK  Name = 
REMARK  6 active torsions:
REMARK  status: ('A' for Active; 'I' for Inactive)
REMARK    1  A    between atoms: C_2  and  C_3
REMARK    2  A    between atoms: C_2  and  C_23
REMARK    3  A    between atoms: C_4  and  C_5
REMARK    4  A    between atoms: C_8  and  O_9
REMARK    5  A    between atoms: O_9  and  C_10
REMARK    6  A    between atoms: C_24  and  C_25
REMARK                            x       y       z     vdW  Elec       q    Type
REMARK                         _______ _______ _______ _____ _____    ______ ____
ROOT
ATOM      1  C   UNL     1       7.471   7.757  17.809  0.00  0.00    +0.000 A 
ATOM      2  C   UNL     1       6.324   7.473  17.065  0.00  0.00    +0.000 A 
ATOM      3  C   UNL     1       5.663   6.249  17.117  0.00  0.00    +0.000 A 
ATOM      4  C   UNL     1       6.129   5.217  17.917  0.00  0.00    +0.000 A 
ATOM      5  C   UNL     1       7.238   5.464  18.735  0.00  0.00    +0.000 A 
ATOM      6  C   UNL     1       7.902   6.732  18.677  0.00  0.00    +0.000 A 
ENDROOT
BRANCH   1   8
ATOM      7  C   UNL     1       8.982   9.610  18.654  0.00  0.00    +0.000 C 
ATOM      8  C   UNL     1       8.195   9.067  17.696  0.00  0.00    +0.000 C 
BRANCH   7  10
ATOM      9  O   UNL     1      10.404  11.275  17.666  0.00  0.00    +0.000 OA
ATOM     10  C   UNL     1       9.656  10.960  18.576  0.00  0.00    +0.000 C 
BRANCH  10  11
ATOM     11  C   UNL     1       9.320  11.895  19.724  0.00  0.00    +0.000 C 
ATOM     12  C   UNL     1       9.259  11.501  21.012  0.00  0.00    +0.000 C 
BRANCH  12  13
ATOM     13  C   UNL     1       8.905  12.352  22.179  0.00  0.00    +0.000 A 
ATOM     14  C   UNL     1       9.237  13.718  22.165  0.00  0.00    +0.000 A 
ATOM     15  C   UNL     1       8.986  14.545  23.264  0.00  0.00    +0.000 A 
ATOM     16  C   UNL     1       8.401  14.007  24.422  0.00  0.00    +0.000 A 
ATOM     17 CL   UNL     1       8.135  15.075  25.754  0.00  0.00    +0.000 Cl
ATOM     18  C   UNL     1       8.050  12.655  24.455  0.00  0.00    +0.000 A 
ATOM     19 CL   UNL     1       7.338  11.924  25.852  0.00  0.00    +0.000 Cl
ATOM     20  C   UNL     1       8.306  11.839  23.347  0.00  0.00    +0.000 A 
ENDBRANCH  12  13
ENDBRANCH  10  11
ENDBRANCH   7  10
ENDBRANCH   1   8
BRANCH   4  21
ATOM     21  O   UNL     1       5.326   4.087  18.018  0.00  0.00    +0.000 OA
BRANCH  21  22
ATOM     22  C   UNL     1       4.691   3.824  19.228  0.00  0.00    +0.000 A 
ATOM     23  N   UNL     1       5.158   2.706  19.801  0.00  0.00    +0.000 NA
ATOM     24  C   UNL     1       4.237   1.984  20.431  0.00  0.00    +0.000 A 
ATOM     25  N   UNL     1       2.921   2.232  20.421  0.00  0.00    +0.000 NA
ATOM     26  C   UNL     1       2.560   3.465  20.062  0.00  0.00    +0.000 A 
ATOM     27  C   UNL     1       1.237   3.848  20.220  0.00  0.00    +0.000 A 
ATOM     28  C   UNL     1       0.889   5.193  20.330  0.00  0.00    +0.000 A 
ATOM     29  C   UNL     1       1.894   6.149  20.284  0.00  0.00    +0.000 A 
ATOM     30 CL   UNL     1       1.555   7.750  20.813  0.00  0.00    +0.000 Cl
ATOM     31  C   UNL     1       3.181   5.785  19.881  0.00  0.00    +0.000 A 
ATOM     32  C   UNL     1       3.492   4.409  19.653  0.00  0.00    +0.000 A 
ENDBRANCH  21  22
ENDBRANCH   4  21
TORSDOF 6
ENDMDL
MODEL 2
REMARK VINA RESULT:      -9.2      0.528      1.255
REMARK  Name = 
REMARK  6 active torsions:
REMARK  status: ('A' for Active; 'I' for Inactive)
REMARK    1  A    between atoms: C_2  and  C_3
REMARK    2  A    between atoms: C_2  and  C_23
REMARK    3  A    between atoms: C_4  and  C_5
REMARK    4  A    between atoms: C_8  and  O_9
REMARK    5  A    between atoms: O_9  and  C_10
REMARK    6  A    between atoms: C_24  and  C_25
REMARK                            x       y       z     vdW  Elec       q    Type
REMARK                         _______ _______ _______ _____ _____    ______ ____
ROOT
ATOM      1  C   UNL     1       7.583   7.772  17.821  0.00  0.00    +0.000 A 
ATOM      2  C   UNL     1       6.398   7.558  17.114  0.00  0.00    +0.000 A 
ATOM      3  C   UNL     1       5.697   6.355  17.142  0.00  0.00    +0.000 A 
ATOM      4  C   UNL     1       6.159   5.275  17.878  0.00  0.00    +0.000 A 
ATOM      5  C   UNL     1       7.308   5.450  18.659  0.00  0.00    +0.000 A 
ATOM      6  C   UNL     1       8.013   6.696  18.627  0.00  0.00    +0.000 A 
ENDROOT
BRANCH   1   8
ATOM      7  C   UNL     1       8.966   9.674  18.769  0.00  0.00    +0.000 C 
ATOM      8  C   UNL     1       8.347   9.060  17.734  0.00  0.00    +0.000 C 
BRANCH   7  10
ATOM      9  O   UNL     1      10.357  11.347  17.751  0.00  0.00    +0.000 OA
ATOM     10  C   UNL     1       9.676  11.006  18.703  0.00  0.00    +0.000 C 
BRANCH  10  11
ATOM     11  C   UNL     1       9.466  11.889  19.921  0.00  0.00    +0.000 C 
ATOM     12  C   UNL     1       9.045  11.423  21.114  0.00  0.00    +0.000 C 
BRANCH  12  13
ATOM     13  C   UNL     1       8.787  12.232  22.335  0.00  0.00    +0.000 A 
ATOM     14  C   UNL     1       8.169  11.632  23.445  0.00  0.00    +0.000 A 
ATOM     15  C   UNL     1       7.846  12.366  24.590  0.00  0.00    +0.000 A 
ATOM     16  C   UNL     1       8.126  13.742  24.639  0.00  0.00    +0.000 A 
ATOM     17 CL   UNL     1       7.683  14.599  26.072  0.00  0.00    +0.000 Cl
ATOM     18  C   UNL     1       8.751  14.359  23.552  0.00  0.00    +0.000 A 
ATOM     19 CL   UNL     1       9.115  16.050  23.539  0.00  0.00    +0.000 Cl
ATOM     20  C   UNL     1       9.071  13.610  22.413  0.00  0.00    +0.000 A 
ENDBRANCH  12  13
ENDBRANCH  10  11
ENDBRANCH   7  10
ENDBRANCH   1   8
BRANCH   4  21
ATOM     21  O   UNL     1       5.321   4.168  17.964  0.00  0.00    +0.000 OA
BRANCH  21  22
ATOM     22  C   UNL     1       4.703   3.892  19.179  0.00  0.00    +0.000 A 
ATOM     23  N   UNL     1       5.184   2.774  19.739  0.00  0.00    +0.000 NA
ATOM     24  C   UNL     1       4.276   2.041  20.375  0.00  0.00    +0.000 A 
ATOM     25  N   UNL     1       2.958   2.279  20.381  0.00  0.00    +0.000 NA
ATOM     26  C   UNL     1       2.584   3.512  20.036  0.00  0.00    +0.000 A 
ATOM     27  C   UNL     1       1.260   3.884  20.212  0.00  0.00    +0.000 A 
ATOM     28  C   UNL     1       0.903   5.225  20.336  0.00  0.00    +0.000 A 
ATOM     29  C   UNL     1       1.901   6.189  20.285  0.00  0.00    +0.000 A 
ATOM     30 CL   UNL     1       1.557   7.784  20.829  0.00  0.00    +0.000 Cl
ATOM     31  C   UNL     1       3.186   5.837  19.864  0.00  0.00    +0.000 A 
ATOM     32  C   UNL     1       3.504   4.465  19.623  0.00  0.00    +0.000 A 
ENDBRANCH  21  22
ENDBRANCH   4  21
TORSDOF 6
ENDMDL
MODEL 3
REMARK VINA RESULT:      -8.7      4.613     10.734
REMARK  Name = 
REMARK  6 active torsions:
REMARK  status: ('A' for Active; 'I' for Inactive)
REMARK    1  A    between atoms: C_2  and  C_3
REMARK    2  A    between atoms: C_2  and  C_23
REMARK    3  A    between atoms: C_4  and  C_5
REMARK    4  A    between atoms: C_8  and  O_9
REMARK    5  A    between atoms: O_9  and  C_10
REMARK    6  A    between atoms: C_24  and  C_25
REMARK                            x       y       z     vdW  Elec       q    Type
REMARK                         _______ _______ _______ _____ _____    ______ ____
ROOT
ATOM      1  C   UNL     1       9.090  10.399  18.460  0.00  0.00    +0.000 A 
ATOM      2  C   UNL     1       9.091  10.484  19.854  0.00  0.00    +0.000 A 
ATOM      3  C   UNL     1       9.798  11.453  20.561  0.00  0.00    +0.000 A 
ATOM      4  C   UNL     1      10.569  12.398  19.903  0.00  0.00    +0.000 A 
ATOM      5  C   UNL     1      10.556  12.405  18.502  0.00  0.00    +0.000 A 
ATOM      6  C   UNL     1       9.817  11.407  17.789  0.00  0.00    +0.000 A 
ENDROOT
BRANCH   1   8
ATOM      7  C   UNL     1       8.144   8.063  18.190  0.00  0.00    +0.000 C 
ATOM      8  C   UNL     1       8.362   9.314  17.723  0.00  0.00    +0.000 C 
BRANCH   7  10
ATOM      9  O   UNL     1       7.773   6.652  16.281  0.00  0.00    +0.000 OA
ATOM     10  C   UNL     1       7.474   6.945  17.425  0.00  0.00    +0.000 C 
BRANCH  10  11
ATOM     11  C   UNL     1       6.395   6.212  18.204  0.00  0.00    +0.000 C 
ATOM     12  C   UNL     1       5.208   5.854  17.675  0.00  0.00    +0.000 C 
BRANCH  12  13
ATOM     13  C   UNL     1       4.097   5.167  18.386  0.00  0.00    +0.000 A 
ATOM     14  C   UNL     1       3.645   5.675  19.616  0.00  0.00    +0.000 A 
ATOM     15  C   UNL     1       2.650   5.028  20.355  0.00  0.00    +0.000 A 
ATOM     16  C   UNL     1       2.091   3.832  19.875  0.00  0.00    +0.000 A 
ATOM     17 CL   UNL     1       0.881   3.068  20.844  0.00  0.00    +0.000 Cl
ATOM     18  C   UNL     1       2.515   3.314  18.649  0.00  0.00    +0.000 A 
ATOM     19 CL   UNL     1       1.880   1.841  18.003  0.00  0.00    +0.000 Cl
ATOM     20  C   UNL     1       3.511   3.974  17.919  0.00  0.00    +0.000 A 
ENDBRANCH  12  13
ENDBRANCH  10  11
ENDBRANCH   7  10
ENDBRANCH   1   8
BRANCH   4  21
ATOM     21  O   UNL     1      11.119  13.413  20.679  0.00  0.00    +0.000 OA
BRANCH  21  22
ATOM     22  C   UNL     1      10.323  14.504  21.014  0.00  0.00    +0.000 A 
ATOM     23  N   UNL     1       9.868  14.419  22.272  0.00  0.00    +0.000 NA
ATOM     24  C   UNL     1       8.631  14.872  22.443  0.00  0.00    +0.000 A 
ATOM     25  N   UNL     1       7.813  15.272  21.461  0.00  0.00    +0.000 NA
ATOM     26  C   UNL     1       8.395  15.569  20.298  0.00  0.00    +0.000 A 
ATOM     27  C   UNL     1       7.638  16.176  19.307  0.00  0.00    +0.000 A 
ATOM     28  C   UNL     1       8.245  16.927  18.302  0.00  0.00    +0.000 A 
ATOM     29  C   UNL     1       9.626  17.065  18.313  0.00  0.00    +0.000 A 
ATOM     30 CL   UNL     1      10.355  18.291  17.351  0.00  0.00    +0.000 Cl
ATOM     31  C   UNL     1      10.398  16.261  19.155  0.00  0.00    +0.000 A 
ATOM     32  C   UNL     1       9.758  15.402  20.100  0.00  0.00    +0.000 A 
ENDBRANCH  21  22
ENDBRANCH   4  21
TORSDOF 6
ENDMDL
MODEL 4
REMARK VINA RESULT:      -8.5      5.506      7.519
REMARK  Name = 
REMARK  6 active torsions:
REMARK  status: ('A' for Active; 'I' for Inactive)
REMARK    1  A    between atoms: C_2  and  C_3
REMARK    2  A    between atoms: C_2  and  C_23
REMARK    3  A    between atoms: C_4  and  C_5
REMARK    4  A    between atoms: C_8  and  O_9
REMARK    5  A    between atoms: O_9  and  C_10
REMARK    6  A    between atoms: C_24  and  C_25
REMARK                            x       y       z     vdW  Elec       q    Type
REMARK                         _______ _______ _______ _____ _____    ______ ____
ROOT
ATOM      1  C   UNL     1       1.669   7.424  20.415  0.00  0.00    +0.000 A 
ATOM      2  C   UNL     1       1.496   6.061  20.669  0.00  0.00    +0.000 A 
ATOM      3  C   UNL     1       1.789   5.067  19.739  0.00  0.00    +0.000 A 
ATOM      4  C   UNL     1       2.264   5.385  18.476  0.00  0.00    +0.000 A 
ATOM      5  C   UNL     1       2.519   6.731  18.186  0.00  0.00    +0.000 A 
ATOM      6  C   UNL     1       2.221   7.742  19.155  0.00  0.00    +0.000 A 
ENDROOT
BRANCH   1   8
ATOM      7  C   UNL     1       0.159   9.211  21.393  0.00  0.00    +0.000 C 
ATOM      8  C   UNL     1       1.297   8.479  21.414  0.00  0.00    +0.000 C 
BRANCH   7  10
ATOM      9  O   UNL     1      -0.495  10.121  23.517  0.00  0.00    +0.000 OA
ATOM     10  C   UNL     1      -0.188  10.322  22.355  0.00  0.00    +0.000 C 
BRANCH  10  11
ATOM     11  C   UNL     1      -0.120  11.716  21.753  0.00  0.00    +0.000 C 
ATOM     12  C   UNL     1       0.637  12.027  20.682  0.00  0.00    +0.000 C 
BRANCH  12  13
ATOM     13  C   UNL     1       0.778  13.372  20.064  0.00  0.00    +0.000 A 
ATOM     14  C   UNL     1      -0.371  14.061  19.638  0.00  0.00    +0.000 A 
ATOM     15  C   UNL     1      -0.286  15.298  18.991  0.00  0.00    +0.000 A 
ATOM     16  C   UNL     1       0.972  15.870  18.741  0.00  0.00    +0.000 A 
ATOM     17 CL   UNL     1       1.012  17.389  17.919  0.00  0.00    +0.000 Cl
ATOM     18  C   UNL     1       2.128  15.210  19.166  0.00  0.00    +0.000 A 
ATOM     19 CL   UNL     1       3.709  15.849  18.881  0.00  0.00    +0.000 Cl
ATOM     20  C   UNL     1       2.028  13.973  19.814  0.00  0.00    +0.000 A 
ENDBRANCH  12  13
ENDBRANCH  10  11
ENDBRANCH   7  10
ENDBRANCH   1   8
BRANCH   4  21
ATOM     21  O   UNL     1       2.667   4.327  17.670  0.00  0.00    +0.000 OA
BRANCH  21  22
ATOM     22  C   UNL     1       3.990   3.903  17.736  0.00  0.00    +0.000 A 
ATOM     23  N   UNL     1       4.316   3.479  18.965  0.00  0.00    +0.000 NA
ATOM     24  C   UNL     1       5.555   3.780  19.341  0.00  0.00    +0.000 A 
ATOM     25  N   UNL     1       6.407   4.546  18.650  0.00  0.00    +0.000 NA
ATOM     26  C   UNL     1       6.125   4.716  17.357  0.00  0.00    +0.000 A 
ATOM     27  C   UNL     1       7.066   5.329  16.542  0.00  0.00    +0.000 A 
ATOM     28  C   UNL     1       7.066   5.117  15.164  0.00  0.00    +0.000 A 
ATOM     29  C   UNL     1       6.109   4.274  14.618  0.00  0.00    +0.000 A 
ATOM     30 CL   UNL     1       6.326   3.681  13.018  0.00  0.00    +0.000 Cl
ATOM     31  C   UNL     1       5.024   3.859  15.394  0.00  0.00    +0.000 A 
ATOM     32  C   UNL     1       4.977   4.188  16.784  0.00  0.00    +0.000 A 
ENDBRANCH  21  22
ENDBRANCH   4  21
TORSDOF 6
ENDMDL
MODEL 5
REMARK VINA RESULT:      -8.5      6.609      8.906
REMARK  Name = 
REMARK  6 active torsions:
REMARK  status: ('A' for Active; 'I' for Inactive)
REMARK    1  A    between atoms: C_2  and  C_3
REMARK    2  A    between atoms: C_2  and  C_23
REMARK    3  A    between atoms: C_4  and  C_5
REMARK    4  A    between atoms: C_8  and  O_9
REMARK    5  A    between atoms: O_9  and  C_10
REMARK    6  A    between atoms: C_24  and  C_25
REMARK                            x       y       z     vdW  Elec       q    Type
REMARK                         _______ _______ _______ _____ _____    ______ ____
ROOT
ATOM      1  C   UNL     1       1.862   7.282  20.318  0.00  0.00    +0.000 A 
ATOM      2  C   UNL     1       1.663   5.910  20.491  0.00  0.00    +0.000 A 
ATOM      3  C   UNL     1       1.941   4.967  19.506  0.00  0.00    +0.000 A 
ATOM      4  C   UNL     1       2.427   5.350  18.266  0.00  0.00    +0.000 A 
ATOM      5  C   UNL     1       2.708   6.706  18.055  0.00  0.00    +0.000 A 
ATOM      6  C   UNL     1       2.425   7.663  19.081  0.00  0.00    +0.000 A 
ENDROOT
BRANCH   1   8
ATOM      7  C   UNL     1       0.253   8.541  21.820  0.00  0.00    +0.000 C 
ATOM      8  C   UNL     1       1.506   8.283  21.377  0.00  0.00    +0.000 C 
BRANCH   7  10
ATOM      9  O   UNL     1       0.351   9.631  23.958  0.00  0.00    +0.000 OA
ATOM     10  C   UNL     1      -0.119   9.597  22.835  0.00  0.00    +0.000 C 
BRANCH  10  11
ATOM     11  C   UNL     1      -1.128  10.617  22.335  0.00  0.00    +0.000 C 
ATOM     12  C   UNL     1      -1.657  11.582  23.113  0.00  0.00    +0.000 C 
BRANCH  12  13
ATOM     13  C   UNL     1      -2.671  12.589  22.701  0.00  0.00    +0.000 A 
ATOM     14  C   UNL     1      -2.361  13.506  21.681  0.00  0.00    +0.000 A 
ATOM     15  C   UNL     1      -3.254  14.513  21.304  0.00  0.00    +0.000 A 
ATOM     16  C   UNL     1      -4.489  14.632  21.962  0.00  0.00    +0.000 A 
ATOM     17 CL   UNL     1      -5.541  15.910  21.466  0.00  0.00    +0.000 Cl
ATOM     18  C   UNL     1      -4.825  13.726  22.970  0.00  0.00    +0.000 A 
ATOM     19 CL   UNL     1      -6.323  13.821  23.831  0.00  0.00    +0.000 Cl
ATOM     20  C   UNL     1      -3.922  12.721  23.337  0.00  0.00    +0.000 A 
ENDBRANCH  12  13
ENDBRANCH  10  11
ENDBRANCH   7  10
ENDBRANCH   1   8
BRANCH   4  21
ATOM     21  O   UNL     1       2.814   4.333  17.400  0.00  0.00    +0.000 OA
BRANCH  21  22
ATOM     22  C   UNL     1       4.150   3.946  17.378  0.00  0.00    +0.000 A 
ATOM     23  N   UNL     1       4.597   3.634  18.603  0.00  0.00    +0.000 NA
ATOM     24  C   UNL     1       5.854   3.992  18.838  0.00  0.00    +0.000 A 
ATOM     25  N   UNL     1       6.618   4.717  18.012  0.00  0.00    +0.000 NA
ATOM     26  C   UNL     1       6.218   4.771  16.741  0.00  0.00    +0.000 A 
ATOM     27  C   UNL     1       7.063   5.334  15.796  0.00  0.00    +0.000 A 
ATOM     28  C   UNL     1       6.947   5.008  14.446  0.00  0.00    +0.000 A 
ATOM     29  C   UNL     1       5.970   4.100  14.060  0.00  0.00    +0.000 A 
ATOM     30 CL   UNL     1       6.061   3.381  12.501  0.00  0.00    +0.000 Cl
ATOM     31  C   UNL     1       4.972   3.728  14.964  0.00  0.00    +0.000 A 
ATOM     32  C   UNL     1       5.039   4.172  16.320  0.00  0.00    +0.000 A 
ENDBRANCH  21  22
ENDBRANCH   4  21
TORSDOF 6
ENDMDL
MODEL 6
REMARK VINA RESULT:      -8.5      4.806     10.586
REMARK  Name = 
REMARK  6 active torsions:
REMARK  status: ('A' for Active; 'I' for Inactive)
REMARK    1  A    between atoms: C_2  and  C_3
REMARK    2  A    between atoms: C_2  and  C_23
REMARK    3  A    between atoms: C_4  and  C_5
REMARK    4  A    between atoms: C_8  and  O_9
REMARK    5  A    between atoms: O_9  and  C_10
REMARK    6  A    between atoms: C_24  and  C_25
REMARK                            x       y       z     vdW  Elec       q    Type
REMARK                         _______ _______ _______ _____ _____    ______ ____
ROOT
ATOM      1  C   UNL     1       8.841   9.891  18.604  0.00  0.00    +0.000 A 
ATOM      2  C   UNL     1       9.426  10.177  19.839  0.00  0.00    +0.000 A 
ATOM      3  C   UNL     1       9.822  11.457  20.220  0.00  0.00    +0.000 A 
ATOM      4  C   UNL     1       9.667  12.537  19.366  0.00  0.00    +0.000 A 
ATOM      5  C   UNL     1       9.027  12.324  18.139  0.00  0.00    +0.000 A 
ATOM      6  C   UNL     1       8.617  11.004  17.765  0.00  0.00    +0.000 A 
ENDROOT
BRANCH   1   8
ATOM      7  C   UNL     1       7.516   8.172  17.293  0.00  0.00    +0.000 C 
ATOM      8  C   UNL     1       8.470   8.496  18.196  0.00  0.00    +0.000 C 
BRANCH   7  10
ATOM      9  O   UNL     1       7.672   6.092  16.103  0.00  0.00    +0.000 OA
ATOM     10  C   UNL     1       7.089   6.769  16.931  0.00  0.00    +0.000 C 
BRANCH  10  11
ATOM     11  C   UNL     1       5.872   6.269  17.691  0.00  0.00    +0.000 C 
ATOM     12  C   UNL     1       5.899   5.210  18.525  0.00  0.00    +0.000 C 
BRANCH  12  13
ATOM     13  C   UNL     1       4.742   4.647  19.272  0.00  0.00    +0.000 A 
ATOM     14  C   UNL     1       4.655   3.259  19.468  0.00  0.00    +0.000 A 
ATOM     15  C   UNL     1       3.555   2.676  20.105  0.00  0.00    +0.000 A 
ATOM     16  C   UNL     1       2.497   3.486  20.550  0.00  0.00    +0.000 A 
ATOM     17 CL   UNL     1       1.156   2.705  21.310  0.00  0.00    +0.000 Cl
ATOM     18  C   UNL     1       2.567   4.870  20.378  0.00  0.00    +0.000 A 
ATOM     19 CL   UNL     1       1.296   5.926  20.890  0.00  0.00    +0.000 Cl
ATOM     20  C   UNL     1       3.675   5.440  19.740  0.00  0.00    +0.000 A 
ENDBRANCH  12  13
ENDBRANCH  10  11
ENDBRANCH   7  10
ENDBRANCH   1   8
BRANCH   4  21
ATOM     21  O   UNL     1       9.954  13.795  19.885  0.00  0.00    +0.000 OA
BRANCH  21  22
ATOM     22  C   UNL     1       9.697  14.916  19.101  0.00  0.00    +0.000 A 
ATOM     23  N   UNL     1      10.813  15.391  18.532  0.00  0.00    +0.000 NA
ATOM     24  C   UNL     1      10.867  16.716  18.448  0.00  0.00    +0.000 A 
ATOM     25  N   UNL     1       9.977  17.561  18.981  0.00  0.00    +0.000 NA
ATOM     26  C   UNL     1       8.791  17.038  19.298  0.00  0.00    +0.000 A 
ATOM     27  C   UNL     1       7.761  17.890  19.666  0.00  0.00    +0.000 A 
ATOM     28  C   UNL     1       6.429  17.499  19.543  0.00  0.00    +0.000 A 
ATOM     29  C   UNL     1       6.148  16.237  19.037  0.00  0.00    +0.000 A 
ATOM     30 CL   UNL     1       4.552  15.883  18.501  0.00  0.00    +0.000 Cl
ATOM     31  C   UNL     1       7.174  15.298  18.902  0.00  0.00    +0.000 A 
ATOM     32  C   UNL     1       8.527  15.684  19.151  0.00  0.00    +0.000 A 
ENDBRANCH  21  22
ENDBRANCH   4  21
TORSDOF 6
ENDMDL
MODEL 7
REMARK VINA RESULT:      -8.5      4.125     10.549
REMARK  Name = 
REMARK  6 active torsions:
REMARK  status: ('A' for Active; 'I' for Inactive)
REMARK    1  A    between atoms: C_2  and  C_3
REMARK    2  A    between atoms: C_2  and  C_23
REMARK    3  A    between atoms: C_4  and  C_5
REMARK    4  A    between atoms: C_8  and  O_9
REMARK    5  A    between atoms: O_9  and  C_10
REMARK    6  A    between atoms: C_24  and  C_25
REMARK                            x       y       z     vdW  Elec       q    Type
REMARK                         _______ _______ _______ _____ _____    ______ ____
ROOT
ATOM      1  C   UNL     1       8.595  10.216  18.346  0.00  0.00    +0.000 A 
ATOM      2  C   UNL     1       9.465  10.110  19.433  0.00  0.00    +0.000 A 
ATOM      3  C   UNL     1      10.318  11.136  19.833  0.00  0.00    +0.000 A 
ATOM      4  C   UNL     1      10.359  12.340  19.147  0.00  0.00    +0.000 A 
ATOM      5  C   UNL     1       9.463  12.529  18.088  0.00  0.00    +0.000 A 
ATOM      6  C   UNL     1       8.586  11.468  17.694  0.00  0.00    +0.000 A 
ENDROOT
BRANCH   1   8
ATOM      7  C   UNL     1       8.159   7.838  17.580  0.00  0.00    +0.000 C 
ATOM      8  C   UNL     1       7.723   9.078  17.904  0.00  0.00    +0.000 C 
BRANCH   7  10
ATOM      9  O   UNL     1       7.447   6.208  15.967  0.00  0.00    +0.000 OA
ATOM     10  C   UNL     1       7.296   6.710  17.067  0.00  0.00    +0.000 C 
BRANCH  10  11
ATOM     11  C   UNL     1       6.224   6.249  18.040  0.00  0.00    +0.000 C 
ATOM     12  C   UNL     1       5.834   4.965  18.164  0.00  0.00    +0.000 C 
BRANCH  12  13
ATOM     13  C   UNL     1       4.772   4.450  19.068  0.00  0.00    +0.000 A 
ATOM     14  C   UNL     1       4.764   3.090  19.423  0.00  0.00    +0.000 A 
ATOM     15  C   UNL     1       3.750   2.544  20.215  0.00  0.00    +0.000 A 
ATOM     16  C   UNL     1       2.698   3.361  20.662  0.00  0.00    +0.000 A 
ATOM     17 CL   UNL     1       1.462   2.624  21.619  0.00  0.00    +0.000 Cl
ATOM     18  C   UNL     1       2.689   4.719  20.332  0.00  0.00    +0.000 A 
ATOM     19 CL   UNL     1       1.420   5.780  20.836  0.00  0.00    +0.000 Cl
ATOM     20  C   UNL     1       3.713   5.252  19.539  0.00  0.00    +0.000 A 
ENDBRANCH  12  13
ENDBRANCH  10  11
ENDBRANCH   7  10
ENDBRANCH   1   8
BRANCH   4  21
ATOM     21  O   UNL     1      11.129  13.355  19.703  0.00  0.00    +0.000 OA
BRANCH  21  22
ATOM     22  C   UNL     1      10.494  14.515  20.136  0.00  0.00    +0.000 A 
ATOM     23  N   UNL     1      10.822  15.572  19.380  0.00  0.00    +0.000 NA
ATOM     24  C   UNL     1      10.943  16.713  20.051  0.00  0.00    +0.000 A 
ATOM     25  N   UNL     1      10.882  16.836  21.382  0.00  0.00    +0.000 NA
ATOM     26  C   UNL     1      10.312  15.823  22.039  0.00  0.00    +0.000 A 
ATOM     27  C   UNL     1      10.037  15.971  23.390  0.00  0.00    +0.000 A 
ATOM     28  C   UNL     1       9.053  15.202  24.009  0.00  0.00    +0.000 A 
ATOM     29  C   UNL     1       8.345  14.284  23.246  0.00  0.00    +0.000 A 
ATOM     30 CL   UNL     1       6.883  13.626  23.868  0.00  0.00    +0.000 Cl
ATOM     31  C   UNL     1       8.786  13.963  21.960  0.00  0.00    +0.000 A 
ATOM     32  C   UNL     1       9.878  14.680  21.382  0.00  0.00    +0.000 A 
ENDBRANCH  21  22
ENDBRANCH   4  21
TORSDOF 6
ENDMDL
MODEL 8
REMARK VINA RESULT:      -8.4      4.156     10.507
REMARK  Name = 
REMARK  6 active torsions:
REMARK  status: ('A' for Active; 'I' for Inactive)
REMARK    1  A    between atoms: C_2  and  C_3
REMARK    2  A    between atoms: C_2  and  C_23
REMARK    3  A    between atoms: C_4  and  C_5
REMARK    4  A    between atoms: C_8  and  O_9
REMARK    5  A    between atoms: O_9  and  C_10
REMARK    6  A    between atoms: C_24  and  C_25
REMARK                            x       y       z     vdW  Elec       q    Type
REMARK                         _______ _______ _______ _____ _____    ______ ____
ROOT
ATOM      1  C   UNL     1       8.801  10.512  18.503  0.00  0.00    +0.000 A 
ATOM      2  C   UNL     1       9.298  10.280  19.787  0.00  0.00    +0.000 A 
ATOM      3  C   UNL     1       9.864  11.276  20.579  0.00  0.00    +0.000 A 
ATOM      4  C   UNL     1       9.980  12.578  20.118  0.00  0.00    +0.000 A 
ATOM      5  C   UNL     1       9.440  12.885  18.863  0.00  0.00    +0.000 A 
ATOM      6  C   UNL     1       8.853  11.852  18.064  0.00  0.00    +0.000 A 
ENDROOT
BRANCH   1   8
ATOM      7  C   UNL     1       8.008   8.144  18.062  0.00  0.00    +0.000 C 
ATOM      8  C   UNL     1       8.242   9.412  17.650  0.00  0.00    +0.000 C 
BRANCH   7  10
ATOM      9  O   UNL     1       7.996   6.758  16.101  0.00  0.00    +0.000 OA
ATOM     10  C   UNL     1       7.513   7.015  17.190  0.00  0.00    +0.000 C 
BRANCH  10  11
ATOM     11  C   UNL     1       6.363   6.221  17.786  0.00  0.00    +0.000 C 
ATOM     12  C   UNL     1       5.378   5.670  17.048  0.00  0.00    +0.000 C 
BRANCH  12  13
ATOM     13  C   UNL     1       4.208   4.911  17.566  0.00  0.00    +0.000 A 
ATOM     14  C   UNL     1       3.038   5.603  17.922  0.00  0.00    +0.000 A 
ATOM     15  C   UNL     1       1.936   4.944  18.476  0.00  0.00    +0.000 A 
ATOM     16  C   UNL     1       1.993   3.559  18.701  0.00  0.00    +0.000 A 
ATOM     17 CL   UNL     1       0.608   2.805  19.408  0.00  0.00    +0.000 Cl
ATOM     18  C   UNL     1       3.141   2.847  18.344  0.00  0.00    +0.000 A 
ATOM     19 CL   UNL     1       3.285   1.143  18.604  0.00  0.00    +0.000 Cl
ATOM     20  C   UNL     1       4.236   3.520  17.789  0.00  0.00    +0.000 A 
ENDBRANCH  12  13
ENDBRANCH  10  11
ENDBRANCH   7  10
ENDBRANCH   1   8
BRANCH   4  21
ATOM     21  O   UNL     1      10.421  13.532  21.028  0.00  0.00    +0.000 OA
BRANCH  21  22
ATOM     22  C   UNL     1       9.475  14.272  21.731  0.00  0.00    +0.000 A 
ATOM     23  N   UNL     1       9.362  15.518  21.250  0.00  0.00    +0.000 NA
ATOM     24  C   UNL     1       9.153  16.449  22.175  0.00  0.00    +0.000 A 
ATOM     25  N   UNL     1       9.172  16.241  23.497  0.00  0.00    +0.000 NA
ATOM     26  C   UNL     1       9.034  14.975  23.893  0.00  0.00    +0.000 A 
ATOM     27  C   UNL     1       8.846  14.712  25.242  0.00  0.00    +0.000 A 
ATOM     28  C   UNL     1       8.235  13.533  25.663  0.00  0.00    +0.000 A 
ATOM     29  C   UNL     1       7.810  12.622  24.706  0.00  0.00    +0.000 A 
ATOM     30 CL   UNL     1       6.713  11.377  25.159  0.00  0.00    +0.000 Cl
ATOM     31  C   UNL     1       8.218  12.769  23.378  0.00  0.00    +0.000 A 
ATOM     32  C   UNL     1       8.952  13.930  22.984  0.00  0.00    +0.000 A 
ENDBRANCH  21  22
ENDBRANCH   4  21
TORSDOF 6
ENDMDL
MODEL 9
REMARK VINA RESULT:      -8.4      4.856     10.452
REMARK  Name = 
REMARK  6 active torsions:
REMARK  status: ('A' for Active; 'I' for Inactive)
REMARK    1  A    between atoms: C_2  and  C_3
REMARK    2  A    between atoms: C_2  and  C_23
REMARK    3  A    between atoms: C_4  and  C_5
REMARK    4  A    between atoms: C_8  and  O_9
REMARK    5  A    between atoms: O_9  and  C_10
REMARK    6  A    between atoms: C_24  and  C_25
REMARK                            x       y       z     vdW  Elec       q    Type
REMARK                         _______ _______ _______ _____ _____    ______ ____
ROOT
ATOM      1  C   UNL     1       8.904  10.221  18.612  0.00  0.00    +0.000 A 
ATOM      2  C   UNL     1       8.790  11.296  17.727  0.00  0.00    +0.000 A 
ATOM      3  C   UNL     1       9.024  12.618  18.096  0.00  0.00    +0.000 A 
ATOM      4  C   UNL     1       9.376  12.946  19.396  0.00  0.00    +0.000 A 
ATOM      5  C   UNL     1       9.569  11.905  20.313  0.00  0.00    +0.000 A 
ATOM      6  C   UNL     1       9.332  10.550  19.916  0.00  0.00    +0.000 A 
ENDROOT
BRANCH   1   8
ATOM      7  C   UNL     1       7.532   8.426  17.460  0.00  0.00    +0.000 C 
ATOM      8  C   UNL     1       8.596   8.811  18.203  0.00  0.00    +0.000 C 
BRANCH   7  10
ATOM      9  O   UNL     1       7.825   6.335  16.316  0.00  0.00    +0.000 OA
ATOM     10  C   UNL     1       7.178   7.001  17.105  0.00  0.00    +0.000 C 
BRANCH  10  11
ATOM     11  C   UNL     1       5.949   6.465  17.818  0.00  0.00    +0.000 C 
ATOM     12  C   UNL     1       5.946   5.328  18.543  0.00  0.00    +0.000 C 
BRANCH  12  13
ATOM     13  C   UNL     1       4.775   4.729  19.237  0.00  0.00    +0.000 A 
ATOM     14  C   UNL     1       4.677   3.331  19.348  0.00  0.00    +0.000 A 
ATOM     15  C   UNL     1       3.564   2.718  19.932  0.00  0.00    +0.000 A 
ATOM     16  C   UNL     1       2.505   3.506  20.410  0.00  0.00    +0.000 A 
ATOM     17 CL   UNL     1       1.148   2.689  21.101  0.00  0.00    +0.000 Cl
ATOM     18  C   UNL     1       2.584   4.898  20.322  0.00  0.00    +0.000 A 
ATOM     19 CL   UNL     1       1.312   5.929  20.879  0.00  0.00    +0.000 Cl
ATOM     20  C   UNL     1       3.706   5.499  19.737  0.00  0.00    +0.000 A 
ENDBRANCH  12  13
ENDBRANCH  10  11
ENDBRANCH   7  10
ENDBRANCH   1   8
BRANCH   4  21
ATOM     21  O   UNL     1       9.733  14.269  19.637  0.00  0.00    +0.000 OA
BRANCH  21  22
ATOM     22  C   UNL     1       9.082  15.276  18.931  0.00  0.00    +0.000 A 
ATOM     23  N   UNL     1       9.926  15.950  18.137  0.00  0.00    +0.000 NA
ATOM     24  C   UNL     1       9.675  17.252  18.048  0.00  0.00    +0.000 A 
ATOM     25  N   UNL     1       8.757  17.913  18.763  0.00  0.00    +0.000 NA
ATOM     26  C   UNL     1       7.804  17.166  19.325  0.00  0.00    +0.000 A 
ATOM     27  C   UNL     1       6.716  17.798  19.909  0.00  0.00    +0.000 A 
ATOM     28  C   UNL     1       5.504  17.130  20.073  0.00  0.00    +0.000 A 
ATOM     29  C   UNL     1       5.400  15.817  19.635  0.00  0.00    +0.000 A 
ATOM     30 CL   UNL     1       3.842  15.113  19.452  0.00  0.00    +0.000 Cl
ATOM     31  C   UNL     1       6.552  15.111  19.279  0.00  0.00    +0.000 A 
ATOM     32  C   UNL     1       7.812  15.782  19.233  0.00  0.00    +0.000 A 
ENDBRANCH  21  22
ENDBRANCH   4  21
TORSDOF 6
ENDMDL
