MODEL 1
REMARK VINA RESULT:      -9.0      0.000      0.000
REMARK  Name = 
REMARK  7 active torsions:
REMARK  status: ('A' for Active; 'I' for Inactive)
REMARK    1  A    between atoms: C_1  and  C_2
REMARK    2  A    between atoms: C_4  and  C_5
REMARK    3  A    between atoms: C_12  and  C_13
REMARK    4  A    between atoms: C_16  and  C_17
REMARK    5  A    between atoms: C_17  and  N_18
REMARK    6  A    between atoms: N_21  and  C_22
REMARK    7  A    between atoms: N_21  and  O_23
REMARK                            x       y       z     vdW  Elec       q    Type
REMARK                         _______ _______ _______ _____ _____    ______ ____
ROOT
ATOM      1  C   UNL     1       2.269   6.958  19.510  0.00  0.00    +0.000 A 
ATOM      2  C   UNL     1       2.321   7.546  18.236  0.00  0.00    +0.000 A 
ATOM      3  C   UNL     1       1.743   8.796  17.978  0.00  0.00    +0.000 A 
ATOM      4  C   UNL     1       1.184   9.551  19.013  0.00  0.00    +0.000 A 
ATOM      5  C   UNL     1       1.219   9.031  20.308  0.00  0.00    +0.000 A 
ATOM      6  C   UNL     1       1.741   7.754  20.546  0.00  0.00    +0.000 A 
ENDROOT
BRANCH   1  14
ATOM      7  C   UNL     1       3.841   4.926  19.168  0.00  0.00    +0.000 A 
ATOM      8  C   UNL     1       4.120   3.576  19.461  0.00  0.00    +0.000 A 
ATOM      9  F   UNL     1       5.163   2.953  18.893  0.00  0.00    +0.000 F 
ATOM     10  C   UNL     1       3.316   2.822  20.310  0.00  0.00    +0.000 A 
ATOM     11  C   UNL     1       2.216   3.409  20.894  0.00  0.00    +0.000 A 
ATOM     12 CL   UNL     1       1.181   2.485  21.908  0.00  0.00    +0.000 Cl
ATOM     13  C   UNL     1       1.925   4.757  20.648  0.00  0.00    +0.000 A 
ATOM     14  C   UNL     1       2.711   5.550  19.770  0.00  0.00    +0.000 A 
BRANCH   7  18
ATOM     15  C   UNL     1       7.584   7.501  17.246  0.00  0.00    +0.000 C 
ATOM     16  C   UNL     1       6.356   6.731  17.508  0.00  0.00    +0.000 A 
ATOM     17  N   UNL     1       5.833   6.325  18.640  0.00  0.00    +0.000 NA
ATOM     18  C   UNL     1       4.743   5.585  18.225  0.00  0.00    +0.000 A 
ATOM     19  N   UNL     1       4.607   5.538  16.888  0.00  0.00    +0.000 NA
ATOM     20  O   UNL     1       5.646   6.332  16.416  0.00  0.00    +0.000 OA
ENDBRANCH   7  18
ENDBRANCH   1  14
BRANCH   4  21
ATOM     21  C   UNL     1       0.497  10.858  18.723  0.00  0.00    +0.000 C 
BRANCH  21  22
ATOM     22  N   UNL     1      -0.543  10.680  17.734  0.00  0.00    +0.000 N 
ATOM     23  C   UNL     1      -1.695  11.409  17.825  0.00  0.00    +0.000 C 
ATOM     24  O   UNL     1      -1.945  12.155  18.774  0.00  0.00    +0.000 OA
ATOM     25  N   UNL     1      -2.587  11.262  16.791  0.00  0.00    +0.000 N 
ATOM     26  C   UNL     1      -2.680  10.243  15.763  0.00  0.00    +0.000 C 
ATOM     27  H   UNL     1      -0.232  10.452  16.803  0.00  0.00    +0.000 HD
BRANCH  25  28
ATOM     28  O   UNL     1      -3.832  11.920  16.972  0.00  0.00    +0.000 OA
ATOM     29  H   UNL     1      -4.457  11.161  16.989  0.00  0.00    +0.000 HD
ENDBRANCH  25  28
ENDBRANCH  21  22
ENDBRANCH   4  21
TORSDOF 5
ENDMDL
MODEL 2
REMARK VINA RESULT:      -9.0      1.484      1.503
REMARK  Name = 
REMARK  7 active torsions:
REMARK  status: ('A' for Active; 'I' for Inactive)
REMARK    1  A    between atoms: C_1  and  C_2
REMARK    2  A    between atoms: C_4  and  C_5
REMARK    3  A    between atoms: C_12  and  C_13
REMARK    4  A    between atoms: C_16  and  C_17
REMARK    5  A    between atoms: C_17  and  N_18
REMARK    6  A    between atoms: N_21  and  C_22
REMARK    7  A    between atoms: N_21  and  O_23
REMARK                            x       y       z     vdW  Elec       q    Type
REMARK                         _______ _______ _______ _____ _____    ______ ____
ROOT
ATOM      1  C   UNL     1       2.284   6.759  18.591  0.00  0.00    +0.000 A 
ATOM      2  C   UNL     1       2.285   7.735  17.581  0.00  0.00    +0.000 A 
ATOM      3  C   UNL     1       1.822   9.037  17.815  0.00  0.00    +0.000 A 
ATOM      4  C   UNL     1       1.438   9.438  19.097  0.00  0.00    +0.000 A 
ATOM      5  C   UNL     1       1.532   8.513  20.138  0.00  0.00    +0.000 A 
ATOM      6  C   UNL     1       1.936   7.196  19.884  0.00  0.00    +0.000 A 
ENDROOT
BRANCH   1  14
ATOM      7  C   UNL     1       3.786   4.844  17.700  0.00  0.00    +0.000 A 
ATOM      8  C   UNL     1       3.935   3.463  17.461  0.00  0.00    +0.000 A 
ATOM      9  F   UNL     1       5.033   2.987  16.855  0.00  0.00    +0.000 F 
ATOM     10  C   UNL     1       2.948   2.542  17.800  0.00  0.00    +0.000 A 
ATOM     11  C   UNL     1       1.790   2.987  18.396  0.00  0.00    +0.000 A 
ATOM     12 CL   UNL     1       0.536   1.876  18.781  0.00  0.00    +0.000 Cl
ATOM     13  C   UNL     1       1.620   4.349  18.675  0.00  0.00    +0.000 A 
ATOM     14  C   UNL     1       2.596   5.318  18.323  0.00  0.00    +0.000 A 
BRANCH   7  18
ATOM     15  C   UNL     1       7.826   7.674  17.632  0.00  0.00    +0.000 C 
ATOM     16  C   UNL     1       6.593   6.923  17.337  0.00  0.00    +0.000 A 
ATOM     17  N   UNL     1       5.808   6.234  18.129  0.00  0.00    +0.000 NA
ATOM     18  C   UNL     1       4.882   5.701  17.252  0.00  0.00    +0.000 A 
ATOM     19  N   UNL     1       5.095   6.052  15.971  0.00  0.00    +0.000 NA
ATOM     20  O   UNL     1       6.199   6.895  16.033  0.00  0.00    +0.000 OA
ENDBRANCH   7  18
ENDBRANCH   1  14
BRANCH   4  21
ATOM     21  C   UNL     1       0.870  10.811  19.333  0.00  0.00    +0.000 C 
BRANCH  21  22
ATOM     22  N   UNL     1      -0.308  11.023  18.521  0.00  0.00    +0.000 N 
ATOM     23  C   UNL     1      -1.429  11.563  19.083  0.00  0.00    +0.000 C 
ATOM     24  O   UNL     1      -1.530  11.796  20.290  0.00  0.00    +0.000 OA
ATOM     25  N   UNL     1      -2.468  11.831  18.226  0.00  0.00    +0.000 N 
ATOM     26  C   UNL     1      -2.718  11.367  16.875  0.00  0.00    +0.000 C 
ATOM     27  H   UNL     1      -0.141  11.249  17.553  0.00  0.00    +0.000 HD
BRANCH  25  28
ATOM     28  O   UNL     1      -3.668  12.262  18.849  0.00  0.00    +0.000 OA
ATOM     29  H   UNL     1      -3.323  12.837  19.567  0.00  0.00    +0.000 HD
ENDBRANCH  25  28
ENDBRANCH  21  22
ENDBRANCH   4  21
TORSDOF 5
ENDMDL
MODEL 3
REMARK VINA RESULT:      -9.0      2.529      2.963
REMARK  Name = 
REMARK  7 active torsions:
REMARK  status: ('A' for Active; 'I' for Inactive)
REMARK    1  A    between atoms: C_1  and  C_2
REMARK    2  A    between atoms: C_4  and  C_5
REMARK    3  A    between atoms: C_12  and  C_13
REMARK    4  A    between atoms: C_16  and  C_17
REMARK    5  A    between atoms: C_17  and  N_18
REMARK    6  A    between atoms: N_21  and  C_22
REMARK    7  A    between atoms: N_21  and  O_23
REMARK                            x       y       z     vdW  Elec       q    Type
REMARK                         _______ _______ _______ _____ _____    ______ ____
ROOT
ATOM      1  C   UNL     1       2.283   6.865  18.602  0.00  0.00    +0.000 A 
ATOM      2  C   UNL     1       2.319   7.861  17.611  0.00  0.00    +0.000 A 
ATOM      3  C   UNL     1       1.880   9.167  17.865  0.00  0.00    +0.000 A 
ATOM      4  C   UNL     1       1.489   9.552  19.150  0.00  0.00    +0.000 A 
ATOM      5  C   UNL     1       1.549   8.605  20.174  0.00  0.00    +0.000 A 
ATOM      6  C   UNL     1       1.928   7.285  19.899  0.00  0.00    +0.000 A 
ENDROOT
BRANCH   1  14
ATOM      7  C   UNL     1       3.747   4.937  17.675  0.00  0.00    +0.000 A 
ATOM      8  C   UNL     1       3.869   3.558  17.413  0.00  0.00    +0.000 A 
ATOM      9  F   UNL     1       4.956   3.072  16.796  0.00  0.00    +0.000 F 
ATOM     10  C   UNL     1       2.866   2.651  17.741  0.00  0.00    +0.000 A 
ATOM     11  C   UNL     1       1.718   3.107  18.349  0.00  0.00    +0.000 A 
ATOM     12 CL   UNL     1       0.446   2.012  18.719  0.00  0.00    +0.000 Cl
ATOM     13  C   UNL     1       1.575   4.467  18.650  0.00  0.00    +0.000 A 
ATOM     14  C   UNL     1       2.567   5.424  18.310  0.00  0.00    +0.000 A 
BRANCH   7  18
ATOM     15  C   UNL     1       7.835   7.697  17.640  0.00  0.00    +0.000 C 
ATOM     16  C   UNL     1       6.589   6.973  17.335  0.00  0.00    +0.000 A 
ATOM     17  N   UNL     1       5.793   6.286  18.120  0.00  0.00    +0.000 NA
ATOM     18  C   UNL     1       4.856   5.782  17.237  0.00  0.00    +0.000 A 
ATOM     19  N   UNL     1       5.075   6.145  15.961  0.00  0.00    +0.000 NA
ATOM     20  O   UNL     1       6.193   6.968  16.032  0.00  0.00    +0.000 OA
ENDBRANCH   7  18
ENDBRANCH   1  14
BRANCH   4  21
ATOM     21  C   UNL     1       0.947  10.932  19.406  0.00  0.00    +0.000 C 
BRANCH  21  22
ATOM     22  N   UNL     1       0.153  10.954  20.614  0.00  0.00    +0.000 N 
ATOM     23  C   UNL     1       0.192  12.049  21.430  0.00  0.00    +0.000 C 
ATOM     24  O   UNL     1       0.953  13.000  21.241  0.00  0.00    +0.000 OA
ATOM     25  N   UNL     1      -0.669  12.038  22.500  0.00  0.00    +0.000 N 
ATOM     26  C   UNL     1      -1.401  10.945  23.109  0.00  0.00    +0.000 C 
ATOM     27  H   UNL     1      -0.723  10.458  20.574  0.00  0.00    +0.000 HD
BRANCH  25  28
ATOM     28  O   UNL     1      -0.515  13.119  23.407  0.00  0.00    +0.000 OA
ATOM     29  H   UNL     1       0.438  13.051  23.637  0.00  0.00    +0.000 HD
ENDBRANCH  25  28
ENDBRANCH  21  22
ENDBRANCH   4  21
TORSDOF 5
ENDMDL
MODEL 4
REMARK VINA RESULT:      -8.8      2.900      4.051
REMARK  Name = 
REMARK  7 active torsions:
REMARK  status: ('A' for Active; 'I' for Inactive)
REMARK    1  A    between atoms: C_1  and  C_2
REMARK    2  A    between atoms: C_4  and  C_5
REMARK    3  A    between atoms: C_12  and  C_13
REMARK    4  A    between atoms: C_16  and  C_17
REMARK    5  A    between atoms: C_17  and  N_18
REMARK    6  A    between atoms: N_21  and  C_22
REMARK    7  A    between atoms: N_21  and  O_23
REMARK                            x       y       z     vdW  Elec       q    Type
REMARK                         _______ _______ _______ _____ _____    ______ ____
ROOT
ATOM      1  C   UNL     1       3.039   6.767  18.308  0.00  0.00    +0.000 A 
ATOM      2  C   UNL     1       2.729   7.972  17.655  0.00  0.00    +0.000 A 
ATOM      3  C   UNL     1       1.919   8.946  18.253  0.00  0.00    +0.000 A 
ATOM      4  C   UNL     1       1.475   8.796  19.570  0.00  0.00    +0.000 A 
ATOM      5  C   UNL     1       1.862   7.655  20.274  0.00  0.00    +0.000 A 
ATOM      6  C   UNL     1       2.619   6.656  19.649  0.00  0.00    +0.000 A 
ENDROOT
BRANCH   1  14
ATOM      7  C   UNL     1       3.492   4.254  17.870  0.00  0.00    +0.000 A 
ATOM      8  C   UNL     1       4.262   3.284  17.196  0.00  0.00    +0.000 A 
ATOM      9  F   UNL     1       4.067   1.977  17.421  0.00  0.00    +0.000 F 
ATOM     10  C   UNL     1       5.275   3.631  16.307  0.00  0.00    +0.000 A 
ATOM     11  C   UNL     1       5.532   4.962  16.066  0.00  0.00    +0.000 A 
ATOM     12 CL   UNL     1       6.809   5.415  15.008  0.00  0.00    +0.000 Cl
ATOM     13  C   UNL     1       4.768   5.952  16.697  0.00  0.00    +0.000 A 
ATOM     14  C   UNL     1       3.743   5.635  17.626  0.00  0.00    +0.000 A 
BRANCH   7  18
ATOM     15  C   UNL     1       1.307   2.519  21.938  0.00  0.00    +0.000 C 
ATOM     16  C   UNL     1       1.664   2.978  20.585  0.00  0.00    +0.000 A 
ATOM     17  N   UNL     1       2.821   3.354  20.094  0.00  0.00    +0.000 NA
ATOM     18  C   UNL     1       2.493   3.749  18.810  0.00  0.00    +0.000 A 
ATOM     19  N   UNL     1       1.184   3.622  18.530  0.00  0.00    +0.000 NA
ATOM     20  O   UNL     1       0.645   3.071  19.687  0.00  0.00    +0.000 OA
ENDBRANCH   7  18
ENDBRANCH   1  14
BRANCH   4  21
ATOM     21  C   UNL     1       0.544   9.805  20.185  0.00  0.00    +0.000 C 
BRANCH  21  22
ATOM     22  N   UNL     1      -0.643   9.966  19.374  0.00  0.00    +0.000 N 
ATOM     23  C   UNL     1      -0.741  11.028  18.521  0.00  0.00    +0.000 C 
ATOM     24  O   UNL     1       0.100  11.928  18.470  0.00  0.00    +0.000 OA
ATOM     25  N   UNL     1      -1.849  11.053  17.710  0.00  0.00    +0.000 N 
ATOM     26  C   UNL     1      -3.099  10.323  17.799  0.00  0.00    +0.000 C 
ATOM     27  H   UNL     1      -1.095   9.114  19.080  0.00  0.00    +0.000 HD
BRANCH  25  28
ATOM     28  O   UNL     1      -1.999  12.231  16.932  0.00  0.00    +0.000 OA
ATOM     29  H   UNL     1      -1.461  12.876  17.443  0.00  0.00    +0.000 HD
ENDBRANCH  25  28
ENDBRANCH  21  22
ENDBRANCH   4  21
TORSDOF 5
ENDMDL
MODEL 5
REMARK VINA RESULT:      -8.8      2.629      3.150
REMARK  Name = 
REMARK  7 active torsions:
REMARK  status: ('A' for Active; 'I' for Inactive)
REMARK    1  A    between atoms: C_1  and  C_2
REMARK    2  A    between atoms: C_4  and  C_5
REMARK    3  A    between atoms: C_12  and  C_13
REMARK    4  A    between atoms: C_16  and  C_17
REMARK    5  A    between atoms: C_17  and  N_18
REMARK    6  A    between atoms: N_21  and  C_22
REMARK    7  A    between atoms: N_21  and  O_23
REMARK                            x       y       z     vdW  Elec       q    Type
REMARK                         _______ _______ _______ _____ _____    ______ ____
ROOT
ATOM      1  C   UNL     1       2.225   6.807  18.774  0.00  0.00    +0.000 A 
ATOM      2  C   UNL     1       2.166   7.846  17.830  0.00  0.00    +0.000 A 
ATOM      3  C   UNL     1       1.691   9.120  18.166  0.00  0.00    +0.000 A 
ATOM      4  C   UNL     1       1.356   9.431  19.487  0.00  0.00    +0.000 A 
ATOM      5  C   UNL     1       1.510   8.444  20.461  0.00  0.00    +0.000 A 
ATOM      6  C   UNL     1       1.926   7.155  20.106  0.00  0.00    +0.000 A 
ENDROOT
BRANCH   1  14
ATOM      7  C   UNL     1       3.733   4.981  17.723  0.00  0.00    +0.000 A 
ATOM      8  C   UNL     1       3.896   3.622  17.386  0.00  0.00    +0.000 A 
ATOM      9  F   UNL     1       4.986   3.205  16.726  0.00  0.00    +0.000 F 
ATOM     10  C   UNL     1       2.929   2.666  17.681  0.00  0.00    +0.000 A 
ATOM     11  C   UNL     1       1.778   3.051  18.331  0.00  0.00    +0.000 A 
ATOM     12 CL   UNL     1       0.548   1.897  18.665  0.00  0.00    +0.000 Cl
ATOM     13  C   UNL     1       1.596   4.388  18.706  0.00  0.00    +0.000 A 
ATOM     14  C   UNL     1       2.551   5.394  18.402  0.00  0.00    +0.000 A 
BRANCH   7  18
ATOM     15  C   UNL     1       7.823   7.739  17.717  0.00  0.00    +0.000 C 
ATOM     16  C   UNL     1       6.550   7.057  17.424  0.00  0.00    +0.000 A 
ATOM     17  N   UNL     1       5.820   6.265  18.171  0.00  0.00    +0.000 NA
ATOM     18  C   UNL     1       4.807   5.883  17.312  0.00  0.00    +0.000 A 
ATOM     19  N   UNL     1       4.917   6.421  16.084  0.00  0.00    +0.000 NA
ATOM     20  O   UNL     1       6.043   7.232  16.172  0.00  0.00    +0.000 OA
ENDBRANCH   7  18
ENDBRANCH   1  14
BRANCH   4  21
ATOM     21  C   UNL     1       0.774  10.775  19.834  0.00  0.00    +0.000 C 
BRANCH  21  22
ATOM     22  N   UNL     1       1.606  11.840  19.319  0.00  0.00    +0.000 N 
ATOM     23  C   UNL     1       1.986  12.860  20.143  0.00  0.00    +0.000 C 
ATOM     24  O   UNL     1       1.576  12.978  21.300  0.00  0.00    +0.000 OA
ATOM     25  N   UNL     1       2.861  13.775  19.611  0.00  0.00    +0.000 N 
ATOM     26  C   UNL     1       3.224  14.040  18.232  0.00  0.00    +0.000 C 
ATOM     27  H   UNL     1       2.262  11.579  18.600  0.00  0.00    +0.000 HD
BRANCH  25  28
ATOM     28  O   UNL     1       3.135  14.898  20.436  0.00  0.00    +0.000 OA
ATOM     29  H   UNL     1       3.803  15.380  19.899  0.00  0.00    +0.000 HD
ENDBRANCH  25  28
ENDBRANCH  21  22
ENDBRANCH   4  21
TORSDOF 5
ENDMDL
MODEL 6
REMARK VINA RESULT:      -8.7      1.636      1.844
REMARK  Name = 
REMARK  7 active torsions:
REMARK  status: ('A' for Active; 'I' for Inactive)
REMARK    1  A    between atoms: C_1  and  C_2
REMARK    2  A    between atoms: C_4  and  C_5
REMARK    3  A    between atoms: C_12  and  C_13
REMARK    4  A    between atoms: C_16  and  C_17
REMARK    5  A    between atoms: C_17  and  N_18
REMARK    6  A    between atoms: N_21  and  C_22
REMARK    7  A    between atoms: N_21  and  O_23
REMARK                            x       y       z     vdW  Elec       q    Type
REMARK                         _______ _______ _______ _____ _____    ______ ____
ROOT
ATOM      1  C   UNL     1       2.306   6.445  19.097  0.00  0.00    +0.000 A 
ATOM      2  C   UNL     1       2.320   7.591  18.285  0.00  0.00    +0.000 A 
ATOM      3  C   UNL     1       1.860   8.829  18.752  0.00  0.00    +0.000 A 
ATOM      4  C   UNL     1       1.468   8.989  20.083  0.00  0.00    +0.000 A 
ATOM      5  C   UNL     1       1.549   7.887  20.936  0.00  0.00    +0.000 A 
ATOM      6  C   UNL     1       1.950   6.638  20.446  0.00  0.00    +0.000 A 
ENDROOT
BRANCH   1  14
ATOM      7  C   UNL     1       3.751   4.745  17.778  0.00  0.00    +0.000 A 
ATOM      8  C   UNL     1       3.898   3.426  17.303  0.00  0.00    +0.000 A 
ATOM      9  F   UNL     1       4.945   3.087  16.536  0.00  0.00    +0.000 F 
ATOM     10  C   UNL     1       2.959   2.434  17.569  0.00  0.00    +0.000 A 
ATOM     11  C   UNL     1       1.852   2.742  18.328  0.00  0.00    +0.000 A 
ATOM     12 CL   UNL     1       0.654   1.547  18.630  0.00  0.00    +0.000 Cl
ATOM     13  C   UNL     1       1.687   4.035  18.840  0.00  0.00    +0.000 A 
ATOM     14  C   UNL     1       2.614   5.077  18.571  0.00  0.00    +0.000 A 
BRANCH   7  18
ATOM     15  C   UNL     1       7.765   7.612  17.806  0.00  0.00    +0.000 C 
ATOM     16  C   UNL     1       6.504   6.910  17.512  0.00  0.00    +0.000 A 
ATOM     17  N   UNL     1       5.814   6.062  18.237  0.00  0.00    +0.000 NA
ATOM     18  C   UNL     1       4.789   5.695  17.385  0.00  0.00    +0.000 A 
ATOM     19  N   UNL     1       4.852   6.295  16.183  0.00  0.00    +0.000 NA
ATOM     20  O   UNL     1       5.959   7.131  16.283  0.00  0.00    +0.000 OA
ENDBRANCH   7  18
ENDBRANCH   1  14
BRANCH   4  21
ATOM     21  C   UNL     1       0.903  10.298  20.564  0.00  0.00    +0.000 C 
BRANCH  21  22
ATOM     22  N   UNL     1      -0.283  10.649  19.816  0.00  0.00    +0.000 N 
ATOM     23  C   UNL     1      -0.205  11.579  18.819  0.00  0.00    +0.000 C 
ATOM     24  O   UNL     1       0.821  12.220  18.578  0.00  0.00    +0.000 OA
ATOM     25  N   UNL     1      -1.348  11.780  18.086  0.00  0.00    +0.000 N 
ATOM     26  C   UNL     1      -2.723  11.411  18.364  0.00  0.00    +0.000 C 
ATOM     27  H   UNL     1      -0.956   9.910  19.685  0.00  0.00    +0.000 HD
BRANCH  25  28
ATOM     28  O   UNL     1      -1.284  12.844  17.148  0.00  0.00    +0.000 OA
ATOM     29  H   UNL     1      -0.417  12.676  16.718  0.00  0.00    +0.000 HD
ENDBRANCH  25  28
ENDBRANCH  21  22
ENDBRANCH   4  21
TORSDOF 5
ENDMDL
MODEL 7
REMARK VINA RESULT:      -8.7      0.826      1.076
REMARK  Name = 
REMARK  7 active torsions:
REMARK  status: ('A' for Active; 'I' for Inactive)
REMARK    1  A    between atoms: C_1  and  C_2
REMARK    2  A    between atoms: C_4  and  C_5
REMARK    3  A    between atoms: C_12  and  C_13
REMARK    4  A    between atoms: C_16  and  C_17
REMARK    5  A    between atoms: C_17  and  N_18
REMARK    6  A    between atoms: N_21  and  C_22
REMARK    7  A    between atoms: N_21  and  O_23
REMARK                            x       y       z     vdW  Elec       q    Type
REMARK                         _______ _______ _______ _____ _____    ______ ____
ROOT
ATOM      1  C   UNL     1       2.283   6.699  19.570  0.00  0.00    +0.000 A 
ATOM      2  C   UNL     1       2.392   7.223  18.271  0.00  0.00    +0.000 A 
ATOM      3  C   UNL     1       1.880   8.485  17.942  0.00  0.00    +0.000 A 
ATOM      4  C   UNL     1       1.335   9.314  18.927  0.00  0.00    +0.000 A 
ATOM      5  C   UNL     1       1.317   8.855  20.245  0.00  0.00    +0.000 A 
ATOM      6  C   UNL     1       1.772   7.567  20.555  0.00  0.00    +0.000 A 
ENDROOT
BRANCH   1  14
ATOM      7  C   UNL     1       3.703   4.549  19.289  0.00  0.00    +0.000 A 
ATOM      8  C   UNL     1       3.915   3.207  19.662  0.00  0.00    +0.000 A 
ATOM      9  F   UNL     1       4.881   2.479  19.083  0.00  0.00    +0.000 F 
ATOM     10  C   UNL     1       3.117   2.567  20.605  0.00  0.00    +0.000 A 
ATOM     11  C   UNL     1       2.092   3.265  21.205  0.00  0.00    +0.000 A 
ATOM     12 CL   UNL     1       1.064   2.482  22.338  0.00  0.00    +0.000 Cl
ATOM     13  C   UNL     1       1.871   4.609  20.879  0.00  0.00    +0.000 A 
ATOM     14  C   UNL     1       2.651   5.287  19.906  0.00  0.00    +0.000 A 
BRANCH   7  18
ATOM     15  C   UNL     1       5.724   5.617  14.918  0.00  0.00    +0.000 C 
ATOM     16  C   UNL     1       5.391   5.448  16.342  0.00  0.00    +0.000 A 
ATOM     17  N   UNL     1       4.410   4.791  16.913  0.00  0.00    +0.000 NA
ATOM     18  C   UNL     1       4.586   5.081  18.252  0.00  0.00    +0.000 A 
ATOM     19  N   UNL     1       5.635   5.888  18.490  0.00  0.00    +0.000 NA
ATOM     20  O   UNL     1       6.193   6.094  17.234  0.00  0.00    +0.000 OA
ENDBRANCH   7  18
ENDBRANCH   1  14
BRANCH   4  21
ATOM     21  C   UNL     1       0.718  10.636  18.560  0.00  0.00    +0.000 C 
BRANCH  21  22
ATOM     22  N   UNL     1      -0.425  10.445  17.695  0.00  0.00    +0.000 N 
ATOM     23  C   UNL     1      -1.492  11.293  17.784  0.00  0.00    +0.000 C 
ATOM     24  O   UNL     1      -1.579  12.174  18.643  0.00  0.00    +0.000 OA
ATOM     25  N   UNL     1      -2.490  11.112  16.859  0.00  0.00    +0.000 N 
ATOM     26  C   UNL     1      -2.774   9.987  15.988  0.00  0.00    +0.000 C 
ATOM     27  H   UNL     1      -0.227  10.072  16.780  0.00  0.00    +0.000 HD
BRANCH  25  28
ATOM     28  O   UNL     1      -3.646  11.911  17.055  0.00  0.00    +0.000 OA
ATOM     29  H   UNL     1      -4.351  11.333  16.688  0.00  0.00    +0.000 HD
ENDBRANCH  25  28
ENDBRANCH  21  22
ENDBRANCH   4  21
TORSDOF 5
ENDMDL
MODEL 8
REMARK VINA RESULT:      -8.6      3.097      4.267
REMARK  Name = 
REMARK  7 active torsions:
REMARK  status: ('A' for Active; 'I' for Inactive)
REMARK    1  A    between atoms: C_1  and  C_2
REMARK    2  A    between atoms: C_4  and  C_5
REMARK    3  A    between atoms: C_12  and  C_13
REMARK    4  A    between atoms: C_16  and  C_17
REMARK    5  A    between atoms: C_17  and  N_18
REMARK    6  A    between atoms: N_21  and  C_22
REMARK    7  A    between atoms: N_21  and  O_23
REMARK                            x       y       z     vdW  Elec       q    Type
REMARK                         _______ _______ _______ _____ _____    ______ ____
ROOT
ATOM      1  C   UNL     1       2.974   6.746  18.386  0.00  0.00    +0.000 A 
ATOM      2  C   UNL     1       2.624   7.957  17.767  0.00  0.00    +0.000 A 
ATOM      3  C   UNL     1       1.814   8.904  18.408  0.00  0.00    +0.000 A 
ATOM      4  C   UNL     1       1.413   8.720  19.734  0.00  0.00    +0.000 A 
ATOM      5  C   UNL     1       1.841   7.572  20.403  0.00  0.00    +0.000 A 
ATOM      6  C   UNL     1       2.596   6.600  19.736  0.00  0.00    +0.000 A 
ENDROOT
BRANCH   1  14
ATOM      7  C   UNL     1       3.448   4.250  17.873  0.00  0.00    +0.000 A 
ATOM      8  C   UNL     1       4.215   3.308  17.159  0.00  0.00    +0.000 A 
ATOM      9  F   UNL     1       4.039   1.993  17.353  0.00  0.00    +0.000 F 
ATOM     10  C   UNL     1       5.205   3.690  16.259  0.00  0.00    +0.000 A 
ATOM     11  C   UNL     1       5.443   5.029  16.048  0.00  0.00    +0.000 A 
ATOM     12 CL   UNL     1       6.693   5.525  14.978  0.00  0.00    +0.000 Cl
ATOM     13  C   UNL     1       4.680   5.993  16.720  0.00  0.00    +0.000 A 
ATOM     14  C   UNL     1       3.677   5.640  17.661  0.00  0.00    +0.000 A 
BRANCH   7  18
ATOM     15  C   UNL     1       1.351   2.440  21.955  0.00  0.00    +0.000 C 
ATOM     16  C   UNL     1       1.684   2.910  20.600  0.00  0.00    +0.000 A 
ATOM     17  N   UNL     1       2.823   3.329  20.102  0.00  0.00    +0.000 NA
ATOM     18  C   UNL     1       2.473   3.709  18.819  0.00  0.00    +0.000 A 
ATOM     19  N   UNL     1       1.169   3.531  18.546  0.00  0.00    +0.000 NA
ATOM     20  O   UNL     1       0.657   2.961  19.706  0.00  0.00    +0.000 OA
ENDBRANCH   7  18
ENDBRANCH   1  14
BRANCH   4  21
ATOM     21  C   UNL     1       0.482   9.699  20.396  0.00  0.00    +0.000 C 
BRANCH  21  22
ATOM     22  N   UNL     1       0.615  11.012  19.803  0.00  0.00    +0.000 N 
ATOM     23  C   UNL     1      -0.311  11.442  18.896  0.00  0.00    +0.000 C 
ATOM     24  O   UNL     1      -1.220  10.724  18.473  0.00  0.00    +0.000 OA
ATOM     25  N   UNL     1      -0.175  12.736  18.459  0.00  0.00    +0.000 N 
ATOM     26  C   UNL     1       0.950  13.647  18.545  0.00  0.00    +0.000 C 
ATOM     27  H   UNL     1       1.028  11.720  20.389  0.00  0.00    +0.000 HD
BRANCH  25  28
ATOM     28  O   UNL     1      -1.063  13.117  17.419  0.00  0.00    +0.000 OA
ATOM     29  H   UNL     1      -1.006  12.342  16.817  0.00  0.00    +0.000 HD
ENDBRANCH  25  28
ENDBRANCH  21  22
ENDBRANCH   4  21
TORSDOF 5
ENDMDL
MODEL 9
REMARK VINA RESULT:      -8.6      3.522      4.752
REMARK  Name = 
REMARK  7 active torsions:
REMARK  status: ('A' for Active; 'I' for Inactive)
REMARK    1  A    between atoms: C_1  and  C_2
REMARK    2  A    between atoms: C_4  and  C_5
REMARK    3  A    between atoms: C_12  and  C_13
REMARK    4  A    between atoms: C_16  and  C_17
REMARK    5  A    between atoms: C_17  and  N_18
REMARK    6  A    between atoms: N_21  and  C_22
REMARK    7  A    between atoms: N_21  and  O_23
REMARK                            x       y       z     vdW  Elec       q    Type
REMARK                         _______ _______ _______ _____ _____    ______ ____
ROOT
ATOM      1  C   UNL     1       3.024   6.893  18.178  0.00  0.00    +0.000 A 
ATOM      2  C   UNL     1       2.673   8.060  17.480  0.00  0.00    +0.000 A 
ATOM      3  C   UNL     1       1.837   9.033  18.045  0.00  0.00    +0.000 A 
ATOM      4  C   UNL     1       1.407   8.922  19.370  0.00  0.00    +0.000 A 
ATOM      5  C   UNL     1       1.834   7.822  20.117  0.00  0.00    +0.000 A 
ATOM      6  C   UNL     1       2.617   6.823  19.525  0.00  0.00    +0.000 A 
ENDROOT
BRANCH   1  14
ATOM      7  C   UNL     1       3.526   4.377  17.810  0.00  0.00    +0.000 A 
ATOM      8  C   UNL     1       4.322   3.405  17.173  0.00  0.00    +0.000 A 
ATOM      9  F   UNL     1       4.144   2.100  17.427  0.00  0.00    +0.000 F 
ATOM     10  C   UNL     1       5.345   3.746  16.293  0.00  0.00    +0.000 A 
ATOM     11  C   UNL     1       5.585   5.075  16.024  0.00  0.00    +0.000 A 
ATOM     12 CL   UNL     1       6.873   5.523  14.978  0.00  0.00    +0.000 Cl
ATOM     13  C   UNL     1       4.794   6.067  16.618  0.00  0.00    +0.000 A 
ATOM     14  C   UNL     1       3.758   5.756  17.537  0.00  0.00    +0.000 A 
BRANCH   7  18
ATOM     15  C   UNL     1       1.310   2.651  21.865  0.00  0.00    +0.000 C 
ATOM     16  C   UNL     1       1.676   3.111  20.515  0.00  0.00    +0.000 A 
ATOM     17  N   UNL     1       2.838   3.477  20.029  0.00  0.00    +0.000 NA
ATOM     18  C   UNL     1       2.518   3.879  18.745  0.00  0.00    +0.000 A 
ATOM     19  N   UNL     1       1.209   3.765  18.460  0.00  0.00    +0.000 NA
ATOM     20  O   UNL     1       0.661   3.216  19.613  0.00  0.00    +0.000 OA
ENDBRANCH   7  18
ENDBRANCH   1  14
BRANCH   4  21
ATOM     21  C   UNL     1       0.449   9.926  19.952  0.00  0.00    +0.000 C 
BRANCH  21  22
ATOM     22  N   UNL     1       1.015  11.256  19.909  0.00  0.00    +0.000 N 
ATOM     23  C   UNL     1       0.919  12.068  21.004  0.00  0.00    +0.000 C 
ATOM     24  O   UNL     1       0.282  11.761  22.014  0.00  0.00    +0.000 OA
ATOM     25  N   UNL     1       1.572  13.273  20.923  0.00  0.00    +0.000 N 
ATOM     26  C   UNL     1       2.096  13.986  19.773  0.00  0.00    +0.000 C 
ATOM     27  H   UNL     1       1.842  11.365  19.344  0.00  0.00    +0.000 HD
BRANCH  25  28
ATOM     28  O   UNL     1       1.347  14.155  22.012  0.00  0.00    +0.000 OA
ATOM     29  H   UNL     1       0.377  14.300  21.951  0.00  0.00    +0.000 HD
ENDBRANCH  25  28
ENDBRANCH  21  22
ENDBRANCH   4  21
TORSDOF 5
ENDMDL
