MODEL 1
REMARK VINA RESULT:      -6.9      0.000      0.000
REMARK  Name = 
REMARK  5 active torsions:
REMARK  status: ('A' for Active; 'I' for Inactive)
REMARK    1  A    between atoms: C_1  and  C_2
REMARK    2  A    between atoms: C_2  and  C_4
REMARK    3  A    between atoms: C_4  and  N_5
REMARK    4  A    between atoms: C_13  and  C_14
REMARK    5  A    between atoms: C_16  and  C_17
REMARK                            x       y       z     vdW  Elec       q    Type
REMARK                         _______ _______ _______ _____ _____    ______ ____
ROOT
ATOM      1  N   UNL     1       4.693   4.859  17.205  0.00  0.00    +0.000 N 
ATOM      2  C   UNL     1       4.421   6.118  16.705  0.00  0.00    +0.000 A 
ATOM      3  N   UNL     1       3.679   7.032  17.247  0.00  0.00    +0.000 NA
ATOM      4  C   UNL     1       3.090   6.651  18.464  0.00  0.00    +0.000 A 
ATOM      5  C   UNL     1       3.285   5.412  19.009  0.00  0.00    +0.000 A 
ATOM      6  S   UNL     1       2.458   5.224  20.476  0.00  0.00    +0.000 S 
ATOM      7  C   UNL     1       1.823   6.815  20.384  0.00  0.00    +0.000 A 
ATOM      8  N   UNL     1       1.011   7.286  21.352  0.00  0.00    +0.000 NA
ATOM      9  C   UNL     1       0.577   8.550  21.156  0.00  0.00    +0.000 A 
ATOM     10  C   UNL     1      -0.344   9.127  22.196  0.00  0.00    +0.000 C 
ATOM     11  C   UNL     1       0.931   9.337  20.065  0.00  0.00    +0.000 A 
ATOM     12  C   UNL     1       1.782   8.829  19.074  0.00  0.00    +0.000 A 
ATOM     13  C   UNL     1       2.164   9.688  17.902  0.00  0.00    +0.000 C 
ATOM     14  C   UNL     1       2.244   7.499  19.242  0.00  0.00    +0.000 A 
ATOM     15  C   UNL     1       4.114   4.414  18.394  0.00  0.00    +0.000 A 
ATOM     16  O   UNL     1       4.337   3.294  18.852  0.00  0.00    +0.000 OA
ENDROOT
BRANCH   1  17
ATOM     17  C   UNL     1       5.657   4.000  16.532  0.00  0.00    +0.000 C 
BRANCH  17  19
ATOM     18  C   UNL     1       7.718   4.711  17.899  0.00  0.00    +0.000 C 
ATOM     19  C   UNL     1       7.071   4.568  16.541  0.00  0.00    +0.000 C 
ATOM     20  O   UNL     1       7.623   4.980  15.522  0.00  0.00    +0.000 OA
ENDBRANCH  17  19
ENDBRANCH   1  17
TORSDOF 2
ENDMDL
MODEL 2
REMARK VINA RESULT:      -6.8      0.754      1.099
REMARK  Name = 
REMARK  5 active torsions:
REMARK  status: ('A' for Active; 'I' for Inactive)
REMARK    1  A    between atoms: C_1  and  C_2
REMARK    2  A    between atoms: C_2  and  C_4
REMARK    3  A    between atoms: C_4  and  N_5
REMARK    4  A    between atoms: C_13  and  C_14
REMARK    5  A    between atoms: C_16  and  C_17
REMARK                            x       y       z     vdW  Elec       q    Type
REMARK                         _______ _______ _______ _____ _____    ______ ____
ROOT
ATOM      1  N   UNL     1       5.164   5.038  17.191  0.00  0.00    +0.000 N 
ATOM      2  C   UNL     1       4.811   6.270  16.674  0.00  0.00    +0.000 A 
ATOM      3  N   UNL     1       3.975   7.121  17.181  0.00  0.00    +0.000 NA
ATOM      4  C   UNL     1       3.369   6.694  18.375  0.00  0.00    +0.000 A 
ATOM      5  C   UNL     1       3.642   5.477  18.932  0.00  0.00    +0.000 A 
ATOM      6  S   UNL     1       2.773   5.223  20.366  0.00  0.00    +0.000 S 
ATOM      7  C   UNL     1       2.014   6.757  20.240  0.00  0.00    +0.000 A 
ATOM      8  N   UNL     1       1.127   7.161  21.172  0.00  0.00    +0.000 NA
ATOM      9  C   UNL     1       0.600   8.384  20.952  0.00  0.00    +0.000 A 
ATOM     10  C   UNL     1      -0.407   8.885  21.951  0.00  0.00    +0.000 C 
ATOM     11  C   UNL     1       0.933   9.196  19.873  0.00  0.00    +0.000 A 
ATOM     12  C   UNL     1       1.863   8.759  18.921  0.00  0.00    +0.000 A 
ATOM     13  C   UNL     1       2.222   9.645  17.762  0.00  0.00    +0.000 C 
ATOM     14  C   UNL     1       2.426   7.471  19.113  0.00  0.00    +0.000 A 
ATOM     15  C   UNL     1       4.575   4.549  18.357  0.00  0.00    +0.000 A 
ATOM     16  O   UNL     1       4.869   3.451  18.829  0.00  0.00    +0.000 OA
ENDROOT
BRANCH   1  17
ATOM     17  C   UNL     1       6.222   4.261  16.561  0.00  0.00    +0.000 C 
BRANCH  17  19
ATOM     18  C   UNL     1       5.765   4.155  14.031  0.00  0.00    +0.000 C 
ATOM     19  C   UNL     1       6.570   4.751  15.162  0.00  0.00    +0.000 C 
ATOM     20  O   UNL     1       7.513   5.512  14.945  0.00  0.00    +0.000 OA
ENDBRANCH  17  19
ENDBRANCH   1  17
TORSDOF 2
ENDMDL
MODEL 3
REMARK VINA RESULT:      -6.5      2.009      2.828
REMARK  Name = 
REMARK  5 active torsions:
REMARK  status: ('A' for Active; 'I' for Inactive)
REMARK    1  A    between atoms: C_1  and  C_2
REMARK    2  A    between atoms: C_2  and  C_4
REMARK    3  A    between atoms: C_4  and  N_5
REMARK    4  A    between atoms: C_13  and  C_14
REMARK    5  A    between atoms: C_16  and  C_17
REMARK                            x       y       z     vdW  Elec       q    Type
REMARK                         _______ _______ _______ _____ _____    ______ ____
ROOT
ATOM      1  N   UNL     1       4.915   4.651  16.329  0.00  0.00    +0.000 N 
ATOM      2  C   UNL     1       4.435   3.851  17.348  0.00  0.00    +0.000 A 
ATOM      3  N   UNL     1       3.683   4.213  18.339  0.00  0.00    +0.000 NA
ATOM      4  C   UNL     1       3.361   5.581  18.351  0.00  0.00    +0.000 A 
ATOM      5  C   UNL     1       3.823   6.443  17.396  0.00  0.00    +0.000 A 
ATOM      6  S   UNL     1       3.283   8.029  17.654  0.00  0.00    +0.000 S 
ATOM      7  C   UNL     1       2.425   7.563  19.065  0.00  0.00    +0.000 A 
ATOM      8  N   UNL     1       1.734   8.476  19.779  0.00  0.00    +0.000 NA
ATOM      9  C   UNL     1       1.109   7.980  20.868  0.00  0.00    +0.000 A 
ATOM     10  C   UNL     1       0.333   8.952  21.714  0.00  0.00    +0.000 C 
ATOM     11  C   UNL     1       1.138   6.641  21.244  0.00  0.00    +0.000 A 
ATOM     12  C   UNL     1       1.857   5.709  20.483  0.00  0.00    +0.000 A 
ATOM     13  C   UNL     1       1.878   4.265  20.893  0.00  0.00    +0.000 C 
ATOM     14  C   UNL     1       2.538   6.199  19.340  0.00  0.00    +0.000 A 
ATOM     15  C   UNL     1       4.653   6.021  16.303  0.00  0.00    +0.000 A 
ATOM     16  O   UNL     1       5.079   6.752  15.409  0.00  0.00    +0.000 OA
ENDROOT
BRANCH   1  17
ATOM     17  C   UNL     1       5.642   4.056  15.217  0.00  0.00    +0.000 C 
BRANCH  17  19
ATOM     18  C   UNL     1       7.522   4.957  13.709  0.00  0.00    +0.000 C 
ATOM     19  C   UNL     1       7.072   4.567  15.097  0.00  0.00    +0.000 C 
ATOM     20  O   UNL     1       7.852   4.573  16.049  0.00  0.00    +0.000 OA
ENDBRANCH  17  19
ENDBRANCH   1  17
TORSDOF 2
ENDMDL
MODEL 4
REMARK VINA RESULT:      -6.5      4.056      5.924
REMARK  Name = 
REMARK  5 active torsions:
REMARK  status: ('A' for Active; 'I' for Inactive)
REMARK    1  A    between atoms: C_1  and  C_2
REMARK    2  A    between atoms: C_2  and  C_4
REMARK    3  A    between atoms: C_4  and  N_5
REMARK    4  A    between atoms: C_13  and  C_14
REMARK    5  A    between atoms: C_16  and  C_17
REMARK                            x       y       z     vdW  Elec       q    Type
REMARK                         _______ _______ _______ _____ _____    ______ ____
ROOT
ATOM      1  N   UNL     1       3.506   2.829  18.507  0.00  0.00    +0.000 N 
ATOM      2  C   UNL     1       4.618   2.776  19.326  0.00  0.00    +0.000 A 
ATOM      3  N   UNL     1       5.580   3.642  19.397  0.00  0.00    +0.000 NA
ATOM      4  C   UNL     1       5.447   4.726  18.513  0.00  0.00    +0.000 A 
ATOM      5  C   UNL     1       4.393   4.834  17.650  0.00  0.00    +0.000 A 
ATOM      6  S   UNL     1       4.486   6.236  16.702  0.00  0.00    +0.000 S 
ATOM      7  C   UNL     1       5.959   6.706  17.447  0.00  0.00    +0.000 A 
ATOM      8  N   UNL     1       6.583   7.842  17.075  0.00  0.00    +0.000 NA
ATOM      9  C   UNL     1       7.734   8.092  17.735  0.00  0.00    +0.000 A 
ATOM     10  C   UNL     1       8.484   9.339  17.355  0.00  0.00    +0.000 C 
ATOM     11  C   UNL     1       8.255   7.276  18.734  0.00  0.00    +0.000 A 
ATOM     12  C   UNL     1       7.586   6.104  19.109  0.00  0.00    +0.000 A 
ATOM     13  C   UNL     1       8.153   5.232  20.193  0.00  0.00    +0.000 C 
ATOM     14  C   UNL     1       6.380   5.803  18.425  0.00  0.00    +0.000 A 
ATOM     15  C   UNL     1       3.334   3.865  17.589  0.00  0.00    +0.000 A 
ATOM     16  O   UNL     1       2.356   3.926  16.845  0.00  0.00    +0.000 OA
ENDROOT
BRANCH   1  17
ATOM     17  C   UNL     1       2.451   1.836  18.648  0.00  0.00    +0.000 C 
BRANCH  17  19
ATOM     18  C   UNL     1       1.395   2.808  20.784  0.00  0.00    +0.000 C 
ATOM     19  C   UNL     1       1.211   2.378  19.348  0.00  0.00    +0.000 C 
ATOM     20  O   UNL     1       0.101   2.378  18.817  0.00  0.00    +0.000 OA
ENDBRANCH  17  19
ENDBRANCH   1  17
TORSDOF 2
ENDMDL
MODEL 5
REMARK VINA RESULT:      -6.3      2.536      3.918
REMARK  Name = 
REMARK  5 active torsions:
REMARK  status: ('A' for Active; 'I' for Inactive)
REMARK    1  A    between atoms: C_1  and  C_2
REMARK    2  A    between atoms: C_2  and  C_4
REMARK    3  A    between atoms: C_4  and  N_5
REMARK    4  A    between atoms: C_13  and  C_14
REMARK    5  A    between atoms: C_16  and  C_17
REMARK                            x       y       z     vdW  Elec       q    Type
REMARK                         _______ _______ _______ _____ _____    ______ ____
ROOT
ATOM      1  N   UNL     1       2.874   4.612  19.726  0.00  0.00    +0.000 N 
ATOM      2  C   UNL     1       2.104   5.072  20.776  0.00  0.00    +0.000 A 
ATOM      3  N   UNL     1       1.593   6.255  20.913  0.00  0.00    +0.000 NA
ATOM      4  C   UNL     1       1.899   7.141  19.866  0.00  0.00    +0.000 A 
ATOM      5  C   UNL     1       2.682   6.771  18.808  0.00  0.00    +0.000 A 
ATOM      6  S   UNL     1       2.888   8.033  17.695  0.00  0.00    +0.000 S 
ATOM      7  C   UNL     1       1.926   9.094  18.641  0.00  0.00    +0.000 A 
ATOM      8  N   UNL     1       1.708  10.363  18.238  0.00  0.00    +0.000 NA
ATOM      9  C   UNL     1       0.939  11.093  19.074  0.00  0.00    +0.000 A 
ATOM     10  C   UNL     1       0.671  12.522  18.687  0.00  0.00    +0.000 C 
ATOM     11  C   UNL     1       0.386  10.605  20.254  0.00  0.00    +0.000 A 
ATOM     12  C   UNL     1       0.620   9.281  20.648  0.00  0.00    +0.000 A 
ATOM     13  C   UNL     1       0.014   8.760  21.920  0.00  0.00    +0.000 C 
ATOM     14  C   UNL     1       1.437   8.490  19.800  0.00  0.00    +0.000 A 
ATOM     15  C   UNL     1       3.236   5.453  18.673  0.00  0.00    +0.000 A 
ATOM     16  O   UNL     1       3.928   5.065  17.733  0.00  0.00    +0.000 OA
ENDROOT
BRANCH   1  17
ATOM     17  C   UNL     1       3.260   3.209  19.666  0.00  0.00    +0.000 C 
BRANCH  17  19
ATOM     18  C   UNL     1       0.975   2.374  18.825  0.00  0.00    +0.000 C 
ATOM     19  C   UNL     1       2.472   2.419  18.628  0.00  0.00    +0.000 C 
ATOM     20  O   UNL     1       3.021   1.771  17.737  0.00  0.00    +0.000 OA
ENDBRANCH  17  19
ENDBRANCH   1  17
TORSDOF 2
ENDMDL
MODEL 6
REMARK VINA RESULT:      -6.3      2.636      4.093
REMARK  Name = 
REMARK  5 active torsions:
REMARK  status: ('A' for Active; 'I' for Inactive)
REMARK    1  A    between atoms: C_1  and  C_2
REMARK    2  A    between atoms: C_2  and  C_4
REMARK    3  A    between atoms: C_4  and  N_5
REMARK    4  A    between atoms: C_13  and  C_14
REMARK    5  A    between atoms: C_16  and  C_17
REMARK                            x       y       z     vdW  Elec       q    Type
REMARK                         _______ _______ _______ _____ _____    ______ ____
ROOT
ATOM      1  N   UNL     1       2.747   5.437  19.387  0.00  0.00    +0.000 N 
ATOM      2  C   UNL     1       2.031   5.671  20.545  0.00  0.00    +0.000 A 
ATOM      3  N   UNL     1       1.425   6.766  20.883  0.00  0.00    +0.000 NA
ATOM      4  C   UNL     1       1.555   7.810  19.951  0.00  0.00    +0.000 A 
ATOM      5  C   UNL     1       2.273   7.667  18.797  0.00  0.00    +0.000 A 
ATOM      6  S   UNL     1       2.263   9.079  17.860  0.00  0.00    +0.000 S 
ATOM      7  C   UNL     1       1.291   9.899  19.013  0.00  0.00    +0.000 A 
ATOM      8  N   UNL     1       0.921  11.180  18.809  0.00  0.00    +0.000 NA
ATOM      9  C   UNL     1       0.163  11.708  19.794  0.00  0.00    +0.000 A 
ATOM     10  C   UNL     1      -0.271  13.140  19.631  0.00  0.00    +0.000 C 
ATOM     11  C   UNL     1      -0.237  11.014  20.930  0.00  0.00    +0.000 A 
ATOM     12  C   UNL     1       0.154   9.681  21.117  0.00  0.00    +0.000 A 
ATOM     13  C   UNL     1      -0.288   8.937  22.345  0.00  0.00    +0.000 C 
ATOM     14  C   UNL     1       0.964   9.099  20.109  0.00  0.00    +0.000 A 
ATOM     15  C   UNL     1       2.935   6.443  18.438  0.00  0.00    +0.000 A 
ATOM     16  O   UNL     1       3.576   6.258  17.405  0.00  0.00    +0.000 OA
ENDROOT
BRANCH   1  17
ATOM     17  C   UNL     1       3.255   4.103  19.103  0.00  0.00    +0.000 C 
BRANCH  17  19
ATOM     18  C   UNL     1       1.521   2.211  19.292  0.00  0.00    +0.000 C 
ATOM     19  C   UNL     1       2.233   3.210  18.411  0.00  0.00    +0.000 C 
ATOM     20  O   UNL     1       2.061   3.226  17.192  0.00  0.00    +0.000 OA
ENDBRANCH  17  19
ENDBRANCH   1  17
TORSDOF 2
ENDMDL
MODEL 7
REMARK VINA RESULT:      -6.2      0.998      1.062
REMARK  Name = 
REMARK  5 active torsions:
REMARK  status: ('A' for Active; 'I' for Inactive)
REMARK    1  A    between atoms: C_1  and  C_2
REMARK    2  A    between atoms: C_2  and  C_4
REMARK    3  A    between atoms: C_4  and  N_5
REMARK    4  A    between atoms: C_13  and  C_14
REMARK    5  A    between atoms: C_16  and  C_17
REMARK                            x       y       z     vdW  Elec       q    Type
REMARK                         _______ _______ _______ _____ _____    ______ ____
ROOT
ATOM      1  N   UNL     1       4.187   5.086  17.658  0.00  0.00    +0.000 N 
ATOM      2  C   UNL     1       4.017   6.322  17.064  0.00  0.00    +0.000 A 
ATOM      3  N   UNL     1       3.343   7.327  17.528  0.00  0.00    +0.000 NA
ATOM      4  C   UNL     1       2.716   7.082  18.762  0.00  0.00    +0.000 A 
ATOM      5  C   UNL     1       2.811   5.875  19.397  0.00  0.00    +0.000 A 
ATOM      6  S   UNL     1       1.960   5.857  20.863  0.00  0.00    +0.000 S 
ATOM      7  C   UNL     1       1.449   7.481  20.646  0.00  0.00    +0.000 A 
ATOM      8  N   UNL     1       0.667   8.082  21.567  0.00  0.00    +0.000 NA
ATOM      9  C   UNL     1       0.334   9.357  21.274  0.00  0.00    +0.000 A 
ATOM     10  C   UNL     1      -0.549  10.076  22.257  0.00  0.00    +0.000 C 
ATOM     11  C   UNL     1       0.756  10.033  20.134  0.00  0.00    +0.000 A 
ATOM     12  C   UNL     1       1.574   9.391  19.195  0.00  0.00    +0.000 A 
ATOM     13  C   UNL     1       2.030  10.131  17.970  0.00  0.00    +0.000 C 
ATOM     14  C   UNL     1       1.932   8.046  19.464  0.00  0.00    +0.000 A 
ATOM     15  C   UNL     1       3.566   4.774  18.868  0.00  0.00    +0.000 A 
ATOM     16  O   UNL     1       3.699   3.677  19.408  0.00  0.00    +0.000 OA
ENDROOT
BRANCH   1  17
ATOM     17  C   UNL     1       5.088   4.110  17.061  0.00  0.00    +0.000 C 
BRANCH  17  19
ATOM     18  C   UNL     1       7.256   4.794  15.856  0.00  0.00    +0.000 C 
ATOM     19  C   UNL     1       6.554   4.511  17.163  0.00  0.00    +0.000 C 
ATOM     20  O   UNL     1       7.166   4.512  18.231  0.00  0.00    +0.000 OA
ENDBRANCH  17  19
ENDBRANCH   1  17
TORSDOF 2
ENDMDL
MODEL 8
REMARK VINA RESULT:      -6.1      3.047      5.024
REMARK  Name = 
REMARK  5 active torsions:
REMARK  status: ('A' for Active; 'I' for Inactive)
REMARK    1  A    between atoms: C_1  and  C_2
REMARK    2  A    between atoms: C_2  and  C_4
REMARK    3  A    between atoms: C_4  and  N_5
REMARK    4  A    between atoms: C_13  and  C_14
REMARK    5  A    between atoms: C_16  and  C_17
REMARK                            x       y       z     vdW  Elec       q    Type
REMARK                         _______ _______ _______ _____ _____    ______ ____
ROOT
ATOM      1  N   UNL     1       2.354   7.622  18.972  0.00  0.00    +0.000 N 
ATOM      2  C   UNL     1       2.050   7.396  20.300  0.00  0.00    +0.000 A 
ATOM      3  N   UNL     1       1.335   8.147  21.078  0.00  0.00    +0.000 NA
ATOM      4  C   UNL     1       0.854   9.318  20.468  0.00  0.00    +0.000 A 
ATOM      5  C   UNL     1       1.137   9.628  19.168  0.00  0.00    +0.000 A 
ATOM      6  S   UNL     1       0.432  11.094  18.693  0.00  0.00    +0.000 S 
ATOM      7  C   UNL     1      -0.258  11.326  20.248  0.00  0.00    +0.000 A 
ATOM      8  N   UNL     1      -0.998  12.422  20.512  0.00  0.00    +0.000 NA
ATOM      9  C   UNL     1      -1.478  12.484  21.773  0.00  0.00    +0.000 A 
ATOM     10  C   UNL     1      -2.301  13.691  22.133  0.00  0.00    +0.000 C 
ATOM     11  C   UNL     1      -1.261  11.509  22.741  0.00  0.00    +0.000 A 
ATOM     12  C   UNL     1      -0.494  10.375  22.441  0.00  0.00    +0.000 A 
ATOM     13  C   UNL     1      -0.269   9.324  23.491  0.00  0.00    +0.000 C 
ATOM     14  C   UNL     1       0.038  10.285  21.130  0.00  0.00    +0.000 A 
ATOM     15  C   UNL     1       1.929   8.781  18.320  0.00  0.00    +0.000 A 
ATOM     16  O   UNL     1       2.197   9.005  17.141  0.00  0.00    +0.000 OA
ENDROOT
BRANCH   1  17
ATOM     17  C   UNL     1       3.063   6.608  18.205  0.00  0.00    +0.000 C 
BRANCH  17  19
ATOM     18  C   UNL     1       1.603   4.511  17.903  0.00  0.00    +0.000 C 
ATOM     19  C   UNL     1       2.732   5.188  18.644  0.00  0.00    +0.000 C 
ATOM     20  O   UNL     1       3.278   4.650  19.607  0.00  0.00    +0.000 OA
ENDBRANCH  17  19
ENDBRANCH   1  17
TORSDOF 2
ENDMDL
MODEL 9
REMARK VINA RESULT:      -6.1      3.006      4.762
REMARK  Name = 
REMARK  5 active torsions:
REMARK  status: ('A' for Active; 'I' for Inactive)
REMARK    1  A    between atoms: C_1  and  C_2
REMARK    2  A    between atoms: C_2  and  C_4
REMARK    3  A    between atoms: C_4  and  N_5
REMARK    4  A    between atoms: C_13  and  C_14
REMARK    5  A    between atoms: C_16  and  C_17
REMARK                            x       y       z     vdW  Elec       q    Type
REMARK                         _______ _______ _______ _____ _____    ______ ____
ROOT
ATOM      1  N   UNL     1       2.331   6.570  19.395  0.00  0.00    +0.000 N 
ATOM      2  C   UNL     1       1.790   6.640  20.664  0.00  0.00    +0.000 A 
ATOM      3  N   UNL     1       1.212   7.662  21.213  0.00  0.00    +0.000 NA
ATOM      4  C   UNL     1       1.170   8.808  20.401  0.00  0.00    +0.000 A 
ATOM      5  C   UNL     1       1.712   8.828  19.146  0.00  0.00    +0.000 A 
ATOM      6  S   UNL     1       1.521  10.334  18.393  0.00  0.00    +0.000 S 
ATOM      7  C   UNL     1       0.710  10.976  19.763  0.00  0.00    +0.000 A 
ATOM      8  N   UNL     1       0.278  12.253  19.767  0.00  0.00    +0.000 NA
ATOM      9  C   UNL     1      -0.339  12.633  20.906  0.00  0.00    +0.000 A 
ATOM     10  C   UNL     1      -0.832  14.053  20.977  0.00  0.00    +0.000 C 
ATOM     11  C   UNL     1      -0.544  11.798  22.000  0.00  0.00    +0.000 A 
ATOM     12  C   UNL     1      -0.092  10.472  21.970  0.00  0.00    +0.000 A 
ATOM     13  C   UNL     1      -0.323   9.576  23.153  0.00  0.00    +0.000 C 
ATOM     14  C   UNL     1       0.573  10.044  20.794  0.00  0.00    +0.000 A 
ATOM     15  C   UNL     1       2.346   7.683  18.554  0.00  0.00    +0.000 A 
ATOM     16  O   UNL     1       2.830   7.644  17.423  0.00  0.00    +0.000 OA
ENDROOT
BRANCH   1  17
ATOM     17  C   UNL     1       2.828   5.301  18.885  0.00  0.00    +0.000 C 
BRANCH  17  19
ATOM     18  C   UNL     1       1.311   3.335  19.561  0.00  0.00    +0.000 C 
ATOM     19  C   UNL     1       1.715   4.334  18.502  0.00  0.00    +0.000 C 
ATOM     20  O   UNL     1       1.235   4.296  17.369  0.00  0.00    +0.000 OA
ENDBRANCH  17  19
ENDBRANCH   1  17
TORSDOF 2
ENDMDL
