MODEL 1
REMARK VINA RESULT:      -8.1      0.000      0.000
REMARK  Name = 
REMARK  6 active torsions:
REMARK  status: ('A' for Active; 'I' for Inactive)
REMARK    1  A    between atoms: C_1  and  C_2
REMARK    2  A    between atoms: C_2  and  C_3
REMARK    3  A    between atoms: C_2  and  C_4
REMARK    4  A    between atoms: C_7  and  C_8
REMARK    5  A    between atoms: C_10  and  O_11
REMARK    6  A    between atoms: O_11  and  C_12
REMARK                            x       y       z     vdW  Elec       q    Type
REMARK                         _______ _______ _______ _____ _____    ______ ____
ROOT
ATOM      1  C   UNL     1       2.059   8.446  18.459  0.00  0.00    +0.000 C 
ATOM      2  O   UNL     1       2.148   8.949  17.349  0.00  0.00    +0.000 OA
ATOM      3  N   UNL     1       1.142   8.862  19.412  0.00  0.00    +0.000 N 
ATOM      4  C   UNL     1       1.009   8.212  20.716  0.00  0.00    +0.000 C 
ATOM      5  C   UNL     1      -0.311   8.544  21.420  0.00  0.00    +0.000 C 
ATOM      6  C   UNL     1      -0.390  10.041  21.566  0.00  0.00    +0.000 A 
ATOM      7  C   UNL     1      -0.804  10.652  22.752  0.00  0.00    +0.000 A 
ATOM      8  C   UNL     1      -0.769  12.041  22.862  0.00  0.00    +0.000 A 
ATOM      9  C   UNL     1      -0.343  12.818  21.783  0.00  0.00    +0.000 A 
ATOM     10  C   UNL     1       0.039  12.212  20.586  0.00  0.00    +0.000 A 
ATOM     11  C   UNL     1       0.026  10.817  20.469  0.00  0.00    +0.000 A 
ATOM     12  C   UNL     1       0.432  10.123  19.185  0.00  0.00    +0.000 C 
ENDROOT
BRANCH   1  13
ATOM     13  O   UNL     1       2.867   7.430  18.899  0.00  0.00    +0.000 OA
BRANCH  13  20
ATOM     14  C   UNL     1       4.359   5.721  17.859  0.00  0.00    +0.000 C 
ATOM     15  C   UNL     1       4.313   4.333  17.164  0.00  0.00    +0.000 C 
ATOM     16  C   UNL     1       3.425   3.313  17.872  0.00  0.00    +0.000 C 
ATOM     17  C   UNL     1       2.010   3.846  18.084  0.00  0.00    +0.000 C 
ATOM     18  C   UNL     1       1.158   2.845  18.864  0.00  0.00    +0.000 C 
ATOM     19  C   UNL     1       2.062   5.181  18.819  0.00  0.00    +0.000 C 
ATOM     20  C   UNL     1       2.898   6.236  18.079  0.00  0.00    +0.000 C 
BRANCH  14  22
ATOM     21  C   UNL     1       5.303   6.350  15.536  0.00  0.00    +0.000 C 
ATOM     22  C   UNL     1       5.273   6.697  17.038  0.00  0.00    +0.000 C 
ATOM     23  C   UNL     1       6.725   6.743  17.522  0.00  0.00    +0.000 C 
ENDBRANCH  14  22
ENDBRANCH  13  20
ENDBRANCH   1  13
TORSDOF 3
ENDMDL
MODEL 2
REMARK VINA RESULT:      -7.8      1.041      1.243
REMARK  Name = 
REMARK  6 active torsions:
REMARK  status: ('A' for Active; 'I' for Inactive)
REMARK    1  A    between atoms: C_1  and  C_2
REMARK    2  A    between atoms: C_2  and  C_3
REMARK    3  A    between atoms: C_2  and  C_4
REMARK    4  A    between atoms: C_7  and  C_8
REMARK    5  A    between atoms: C_10  and  O_11
REMARK    6  A    between atoms: O_11  and  C_12
REMARK                            x       y       z     vdW  Elec       q    Type
REMARK                         _______ _______ _______ _____ _____    ______ ____
ROOT
ATOM      1  C   UNL     1       2.186   7.947  18.935  0.00  0.00    +0.000 C 
ATOM      2  O   UNL     1       2.343   8.226  17.756  0.00  0.00    +0.000 OA
ATOM      3  N   UNL     1       1.255   8.574  19.749  0.00  0.00    +0.000 N 
ATOM      4  C   UNL     1       1.038   8.189  21.144  0.00  0.00    +0.000 C 
ATOM      5  C   UNL     1      -0.290   8.703  21.709  0.00  0.00    +0.000 C 
ATOM      6  C   UNL     1      -0.300  10.202  21.567  0.00  0.00    +0.000 A 
ATOM      7  C   UNL     1      -0.729  11.044  22.597  0.00  0.00    +0.000 A 
ATOM      8  C   UNL     1      -0.628  12.426  22.445  0.00  0.00    +0.000 A 
ATOM      9  C   UNL     1      -0.122  12.966  21.262  0.00  0.00    +0.000 A 
ATOM     10  C   UNL     1       0.275  12.129  20.219  0.00  0.00    +0.000 A 
ATOM     11  C   UNL     1       0.197  10.739  20.365  0.00  0.00    +0.000 A 
ATOM     12  C   UNL     1       0.618   9.797  19.256  0.00  0.00    +0.000 C 
ENDROOT
BRANCH   1  13
ATOM     13  O   UNL     1       2.924   7.000  19.596  0.00  0.00    +0.000 OA
BRANCH  13  20
ATOM     14  C   UNL     1       3.977   4.953  18.633  0.00  0.00    +0.000 C 
ATOM     15  C   UNL     1       3.724   3.432  18.446  0.00  0.00    +0.000 C 
ATOM     16  C   UNL     1       3.204   2.731  19.698  0.00  0.00    +0.000 C 
ATOM     17  C   UNL     1       1.954   3.411  20.250  0.00  0.00    +0.000 C 
ATOM     18  C   UNL     1       1.494   2.746  21.546  0.00  0.00    +0.000 C 
ATOM     19  C   UNL     1       2.230   4.893  20.486  0.00  0.00    +0.000 C 
ATOM     20  C   UNL     1       2.688   5.623  19.214  0.00  0.00    +0.000 C 
BRANCH  14  22
ATOM     21  C   UNL     1       4.884   4.504  16.254  0.00  0.00    +0.000 C 
ATOM     22  C   UNL     1       4.481   5.578  17.284  0.00  0.00    +0.000 C 
ATOM     23  C   UNL     1       5.673   6.524  17.445  0.00  0.00    +0.000 C 
ENDBRANCH  14  22
ENDBRANCH  13  20
ENDBRANCH   1  13
TORSDOF 3
ENDMDL
MODEL 3
REMARK VINA RESULT:      -7.5      2.403      7.482
REMARK  Name = 
REMARK  6 active torsions:
REMARK  status: ('A' for Active; 'I' for Inactive)
REMARK    1  A    between atoms: C_1  and  C_2
REMARK    2  A    between atoms: C_2  and  C_3
REMARK    3  A    between atoms: C_2  and  C_4
REMARK    4  A    between atoms: C_7  and  C_8
REMARK    5  A    between atoms: C_10  and  O_11
REMARK    6  A    between atoms: O_11  and  C_12
REMARK                            x       y       z     vdW  Elec       q    Type
REMARK                         _______ _______ _______ _____ _____    ______ ____
ROOT
ATOM      1  C   UNL     1       1.910   8.832  18.387  0.00  0.00    +0.000 C 
ATOM      2  O   UNL     1       2.332   9.053  17.262  0.00  0.00    +0.000 OA
ATOM      3  N   UNL     1       2.049   7.610  19.027  0.00  0.00    +0.000 N 
ATOM      4  C   UNL     1       1.589   7.379  20.397  0.00  0.00    +0.000 C 
ATOM      5  C   UNL     1       2.210   6.132  21.036  0.00  0.00    +0.000 C 
ATOM      6  C   UNL     1       1.877   4.953  20.160  0.00  0.00    +0.000 A 
ATOM      7  C   UNL     1       1.441   3.735  20.687  0.00  0.00    +0.000 A 
ATOM      8  C   UNL     1       1.058   2.707  19.825  0.00  0.00    +0.000 A 
ATOM      9  C   UNL     1       1.132   2.888  18.444  0.00  0.00    +0.000 A 
ATOM     10  C   UNL     1       1.599   4.092  17.914  0.00  0.00    +0.000 A 
ATOM     11  C   UNL     1       1.970   5.138  18.768  0.00  0.00    +0.000 A 
ATOM     12  C   UNL     1       2.482   6.459  18.232  0.00  0.00    +0.000 C 
ENDROOT
BRANCH   1  13
ATOM     13  O   UNL     1       1.230   9.756  19.138  0.00  0.00    +0.000 OA
BRANCH  13  20
ATOM     14  C   UNL     1      -0.463  11.582  18.962  0.00  0.00    +0.000 C 
ATOM     15  C   UNL     1      -0.647  13.013  18.389  0.00  0.00    +0.000 C 
ATOM     16  C   UNL     1       0.524  13.951  18.672  0.00  0.00    +0.000 C 
ATOM     17  C   UNL     1       1.849  13.359  18.201  0.00  0.00    +0.000 C 
ATOM     18  C   UNL     1       3.018  14.274  18.564  0.00  0.00    +0.000 C 
ATOM     19  C   UNL     1       2.049  11.977  18.816  0.00  0.00    +0.000 C 
ATOM     20  C   UNL     1       0.909  11.005  18.478  0.00  0.00    +0.000 C 
BRANCH  14  22
ATOM     21  C   UNL     1      -1.535   9.985  17.235  0.00  0.00    +0.000 C 
ATOM     22  C   UNL     1      -1.705  10.697  18.591  0.00  0.00    +0.000 C 
ATOM     23  C   UNL     1      -3.024  11.470  18.536  0.00  0.00    +0.000 C 
ENDBRANCH  14  22
ENDBRANCH  13  20
ENDBRANCH   1  13
TORSDOF 3
ENDMDL
MODEL 4
REMARK VINA RESULT:      -7.3      1.231      3.498
REMARK  Name = 
REMARK  6 active torsions:
REMARK  status: ('A' for Active; 'I' for Inactive)
REMARK    1  A    between atoms: C_1  and  C_2
REMARK    2  A    between atoms: C_2  and  C_3
REMARK    3  A    between atoms: C_2  and  C_4
REMARK    4  A    between atoms: C_7  and  C_8
REMARK    5  A    between atoms: C_10  and  O_11
REMARK    6  A    between atoms: O_11  and  C_12
REMARK                            x       y       z     vdW  Elec       q    Type
REMARK                         _______ _______ _______ _____ _____    ______ ____
ROOT
ATOM      1  C   UNL     1       1.843   7.124  20.449  0.00  0.00    +0.000 C 
ATOM      2  O   UNL     1       2.188   6.411  21.380  0.00  0.00    +0.000 OA
ATOM      3  N   UNL     1       1.457   8.446  20.604  0.00  0.00    +0.000 N 
ATOM      4  C   UNL     1       1.101   9.303  19.472  0.00  0.00    +0.000 C 
ATOM      5  C   UNL     1       1.123  10.795  19.819  0.00  0.00    +0.000 C 
ATOM      6  C   UNL     1       0.173  11.014  20.966  0.00  0.00    +0.000 A 
ATOM      7  C   UNL     1      -0.726  12.083  20.994  0.00  0.00    +0.000 A 
ATOM      8  C   UNL     1      -1.647  12.184  22.037  0.00  0.00    +0.000 A 
ATOM      9  C   UNL     1      -1.653  11.235  23.059  0.00  0.00    +0.000 A 
ATOM     10  C   UNL     1      -0.734  10.185  23.052  0.00  0.00    +0.000 A 
ATOM     11  C   UNL     1       0.183  10.061  22.002  0.00  0.00    +0.000 A 
ATOM     12  C   UNL     1       1.197   8.936  21.959  0.00  0.00    +0.000 C 
ENDROOT
BRANCH   1  13
ATOM     13  O   UNL     1       1.774   6.694  19.149  0.00  0.00    +0.000 OA
BRANCH  13  20
ATOM     14  C   UNL     1       2.115   4.402  18.222  0.00  0.00    +0.000 C 
ATOM     15  C   UNL     1       3.214   3.496  17.603  0.00  0.00    +0.000 C 
ATOM     16  C   UNL     1       4.070   4.190  16.546  0.00  0.00    +0.000 C 
ATOM     17  C   UNL     1       4.686   5.481  17.077  0.00  0.00    +0.000 C 
ATOM     18  C   UNL     1       5.473   6.204  15.984  0.00  0.00    +0.000 C 
ATOM     19  C   UNL     1       3.593   6.391  17.629  0.00  0.00    +0.000 C 
ATOM     20  C   UNL     1       2.770   5.724  18.742  0.00  0.00    +0.000 C 
BRANCH  14  22
ATOM     21  C   UNL     1       2.203   3.184  20.500  0.00  0.00    +0.000 C 
ATOM     22  C   UNL     1       1.317   3.602  19.310  0.00  0.00    +0.000 C 
ATOM     23  C   UNL     1       0.642   2.335  18.779  0.00  0.00    +0.000 C 
ENDBRANCH  14  22
ENDBRANCH  13  20
ENDBRANCH   1  13
TORSDOF 3
ENDMDL
MODEL 5
REMARK VINA RESULT:      -7.2      1.361      3.600
REMARK  Name = 
REMARK  6 active torsions:
REMARK  status: ('A' for Active; 'I' for Inactive)
REMARK    1  A    between atoms: C_1  and  C_2
REMARK    2  A    between atoms: C_2  and  C_3
REMARK    3  A    between atoms: C_2  and  C_4
REMARK    4  A    between atoms: C_7  and  C_8
REMARK    5  A    between atoms: C_10  and  O_11
REMARK    6  A    between atoms: O_11  and  C_12
REMARK                            x       y       z     vdW  Elec       q    Type
REMARK                         _______ _______ _______ _____ _____    ______ ____
ROOT
ATOM      1  C   UNL     1       1.896   7.483  19.541  0.00  0.00    +0.000 C 
ATOM      2  O   UNL     1       1.901   6.926  20.629  0.00  0.00    +0.000 OA
ATOM      3  N   UNL     1       1.652   8.839  19.381  0.00  0.00    +0.000 N 
ATOM      4  C   UNL     1       1.705   9.503  18.079  0.00  0.00    +0.000 C 
ATOM      5  C   UNL     1       1.825  11.027  18.186  0.00  0.00    +0.000 C 
ATOM      6  C   UNL     1       0.650  11.525  18.985  0.00  0.00    +0.000 A 
ATOM      7  C   UNL     1      -0.086  12.650  18.603  0.00  0.00    +0.000 A 
ATOM      8  C   UNL     1      -1.221  13.011  19.329  0.00  0.00    +0.000 A 
ATOM      9  C   UNL     1      -1.606  12.265  20.443  0.00  0.00    +0.000 A 
ATOM     10  C   UNL     1      -0.853  11.161  20.847  0.00  0.00    +0.000 A 
ATOM     11  C   UNL     1       0.277  10.777  20.117  0.00  0.00    +0.000 A 
ATOM     12  C   UNL     1       1.120   9.585  20.524  0.00  0.00    +0.000 C 
ENDROOT
BRANCH   1  13
ATOM     13  O   UNL     1       2.106   6.833  18.353  0.00  0.00    +0.000 OA
BRANCH  13  20
ATOM     14  C   UNL     1       2.497   4.391  18.013  0.00  0.00    +0.000 C 
ATOM     15  C   UNL     1       3.644   3.361  17.828  0.00  0.00    +0.000 C 
ATOM     16  C   UNL     1       4.723   3.802  16.842  0.00  0.00    +0.000 C 
ATOM     17  C   UNL     1       5.293   5.171  17.203  0.00  0.00    +0.000 C 
ATOM     18  C   UNL     1       6.313   5.632  16.161  0.00  0.00    +0.000 C 
ATOM     19  C   UNL     1       4.164   6.190  17.324  0.00  0.00    +0.000 C 
ATOM     20  C   UNL     1       3.109   5.788  18.365  0.00  0.00    +0.000 C 
BRANCH  14  22
ATOM     21  C   UNL     1       2.087   3.667  20.460  0.00  0.00    +0.000 C 
ATOM     22  C   UNL     1       1.463   3.853  19.063  0.00  0.00    +0.000 C 
ATOM     23  C   UNL     1       0.817   2.522  18.673  0.00  0.00    +0.000 C 
ENDBRANCH  14  22
ENDBRANCH  13  20
ENDBRANCH   1  13
TORSDOF 3
ENDMDL
MODEL 6
REMARK VINA RESULT:      -7.1      1.877      7.101
REMARK  Name = 
REMARK  6 active torsions:
REMARK  status: ('A' for Active; 'I' for Inactive)
REMARK    1  A    between atoms: C_1  and  C_2
REMARK    2  A    between atoms: C_2  and  C_3
REMARK    3  A    between atoms: C_2  and  C_4
REMARK    4  A    between atoms: C_7  and  C_8
REMARK    5  A    between atoms: C_10  and  O_11
REMARK    6  A    between atoms: O_11  and  C_12
REMARK                            x       y       z     vdW  Elec       q    Type
REMARK                         _______ _______ _______ _____ _____    ______ ____
ROOT
ATOM      1  C   UNL     1       1.993   8.905  18.406  0.00  0.00    +0.000 C 
ATOM      2  O   UNL     1       2.292   9.134  17.244  0.00  0.00    +0.000 OA
ATOM      3  N   UNL     1       2.143   7.661  19.000  0.00  0.00    +0.000 N 
ATOM      4  C   UNL     1       1.834   7.417  20.410  0.00  0.00    +0.000 C 
ATOM      5  C   UNL     1       2.459   6.125  20.946  0.00  0.00    +0.000 C 
ATOM      6  C   UNL     1       1.966   4.987  20.092  0.00  0.00    +0.000 A 
ATOM      7  C   UNL     1       1.531   3.778  20.642  0.00  0.00    +0.000 A 
ATOM      8  C   UNL     1       0.998   2.794  19.810  0.00  0.00    +0.000 A 
ATOM      9  C   UNL     1       0.919   3.007  18.434  0.00  0.00    +0.000 A 
ATOM     10  C   UNL     1       1.384   4.200  17.878  0.00  0.00    +0.000 A 
ATOM     11  C   UNL     1       1.905   5.203  18.703  0.00  0.00    +0.000 A 
ATOM     12  C   UNL     1       2.420   6.511  18.137  0.00  0.00    +0.000 C 
ENDROOT
BRANCH   1  13
ATOM     13  O   UNL     1       1.454   9.841  19.250  0.00  0.00    +0.000 OA
BRANCH  13  20
ATOM     14  C   UNL     1      -0.489  11.177  20.066  0.00  0.00    +0.000 C 
ATOM     15  C   UNL     1      -2.023  11.328  19.876  0.00  0.00    +0.000 C 
ATOM     16  C   UNL     1      -2.471  11.330  18.416  0.00  0.00    +0.000 C 
ATOM     17  C   UNL     1      -1.962  10.101  17.667  0.00  0.00    +0.000 C 
ATOM     18  C   UNL     1      -2.351  10.159  16.190  0.00  0.00    +0.000 C 
ATOM     19  C   UNL     1      -0.447   9.994  17.811  0.00  0.00    +0.000 C 
ATOM     20  C   UNL     1       0.008   9.922  19.276  0.00  0.00    +0.000 C 
BRANCH  14  22
ATOM     21  C   UNL     1      -0.364   9.772  22.232  0.00  0.00    +0.000 C 
ATOM     22  C   UNL     1      -0.143  11.159  21.597  0.00  0.00    +0.000 C 
ATOM     23  C   UNL     1      -0.938  12.171  22.426  0.00  0.00    +0.000 C 
ENDBRANCH  14  22
ENDBRANCH  13  20
ENDBRANCH   1  13
TORSDOF 3
ENDMDL
MODEL 7
REMARK VINA RESULT:      -7.1      1.346      1.713
REMARK  Name = 
REMARK  6 active torsions:
REMARK  status: ('A' for Active; 'I' for Inactive)
REMARK    1  A    between atoms: C_1  and  C_2
REMARK    2  A    between atoms: C_2  and  C_3
REMARK    3  A    between atoms: C_2  and  C_4
REMARK    4  A    between atoms: C_7  and  C_8
REMARK    5  A    between atoms: C_10  and  O_11
REMARK    6  A    between atoms: O_11  and  C_12
REMARK                            x       y       z     vdW  Elec       q    Type
REMARK                         _______ _______ _______ _____ _____    ______ ____
ROOT
ATOM      1  C   UNL     1       2.618   7.541  18.740  0.00  0.00    +0.000 C 
ATOM      2  O   UNL     1       2.760   7.668  17.533  0.00  0.00    +0.000 OA
ATOM      3  N   UNL     1       1.688   8.258  19.478  0.00  0.00    +0.000 N 
ATOM      4  C   UNL     1       1.491   8.054  20.913  0.00  0.00    +0.000 C 
ATOM      5  C   UNL     1       0.162   8.623  21.423  0.00  0.00    +0.000 C 
ATOM      6  C   UNL     1       0.133  10.091  21.089  0.00  0.00    +0.000 A 
ATOM      7  C   UNL     1      -0.295  11.054  22.007  0.00  0.00    +0.000 A 
ATOM      8  C   UNL     1      -0.213  12.407  21.677  0.00  0.00    +0.000 A 
ATOM      9  C   UNL     1       0.274  12.795  20.428  0.00  0.00    +0.000 A 
ATOM     10  C   UNL     1       0.671  11.833  19.497  0.00  0.00    +0.000 A 
ATOM     11  C   UNL     1       0.610  10.474  19.822  0.00  0.00    +0.000 A 
ATOM     12  C   UNL     1       1.031   9.401  18.838  0.00  0.00    +0.000 C 
ENDROOT
BRANCH   1  13
ATOM     13  O   UNL     1       3.374   6.696  19.509  0.00  0.00    +0.000 OA
BRANCH  13  20
ATOM     14  C   UNL     1       4.562   4.532  19.141  0.00  0.00    +0.000 C 
ATOM     15  C   UNL     1       4.308   3.001  19.103  0.00  0.00    +0.000 C 
ATOM     16  C   UNL     1       3.457   2.483  20.261  0.00  0.00    +0.000 C 
ATOM     17  C   UNL     1       2.134   3.236  20.370  0.00  0.00    +0.000 C 
ATOM     18  C   UNL     1       1.331   2.761  21.580  0.00  0.00    +0.000 C 
ATOM     19  C   UNL     1       2.396   4.736  20.465  0.00  0.00    +0.000 C 
ATOM     20  C   UNL     1       3.193   5.279  19.270  0.00  0.00    +0.000 C 
BRANCH  14  22
ATOM     21  C   UNL     1       6.165   6.289  18.127  0.00  0.00    +0.000 C 
ATOM     22  C   UNL     1       5.419   4.959  17.898  0.00  0.00    +0.000 C 
ATOM     23  C   UNL     1       4.609   5.109  16.607  0.00  0.00    +0.000 C 
ENDBRANCH  14  22
ENDBRANCH  13  20
ENDBRANCH   1  13
TORSDOF 3
ENDMDL
MODEL 8
REMARK VINA RESULT:      -7.0      1.389      3.551
REMARK  Name = 
REMARK  6 active torsions:
REMARK  status: ('A' for Active; 'I' for Inactive)
REMARK    1  A    between atoms: C_1  and  C_2
REMARK    2  A    between atoms: C_2  and  C_3
REMARK    3  A    between atoms: C_2  and  C_4
REMARK    4  A    between atoms: C_7  and  C_8
REMARK    5  A    between atoms: C_10  and  O_11
REMARK    6  A    between atoms: O_11  and  C_12
REMARK                            x       y       z     vdW  Elec       q    Type
REMARK                         _______ _______ _______ _____ _____    ______ ____
ROOT
ATOM      1  C   UNL     1       1.573   8.101  20.625  0.00  0.00    +0.000 C 
ATOM      2  O   UNL     1       2.102   7.623  21.617  0.00  0.00    +0.000 OA
ATOM      3  N   UNL     1       0.968   9.348  20.610  0.00  0.00    +0.000 N 
ATOM      4  C   UNL     1       0.390   9.931  19.399  0.00  0.00    +0.000 C 
ATOM      5  C   UNL     1       0.168  11.443  19.508  0.00  0.00    +0.000 C 
ATOM      6  C   UNL     1      -0.727  11.692  20.693  0.00  0.00    +0.000 A 
ATOM      7  C   UNL     1      -1.799  12.586  20.641  0.00  0.00    +0.000 A 
ATOM      8  C   UNL     1      -2.651  12.708  21.738  0.00  0.00    +0.000 A 
ATOM      9  C   UNL     1      -2.420  11.956  22.891  0.00  0.00    +0.000 A 
ATOM     10  C   UNL     1      -1.330  11.086  22.958  0.00  0.00    +0.000 A 
ATOM     11  C   UNL     1      -0.478  10.942  21.857  0.00  0.00    +0.000 A 
ATOM     12  C   UNL     1       0.716  10.009  21.892  0.00  0.00    +0.000 C 
ENDROOT
BRANCH   1  13
ATOM     13  O   UNL     1       1.495   7.453  19.419  0.00  0.00    +0.000 OA
BRANCH  13  20
ATOM     14  C   UNL     1       2.012   5.072  18.877  0.00  0.00    +0.000 C 
ATOM     15  C   UNL     1       3.164   4.169  18.359  0.00  0.00    +0.000 C 
ATOM     16  C   UNL     1       3.906   4.739  17.152  0.00  0.00    +0.000 C 
ATOM     17  C   UNL     1       4.420   6.151  17.420  0.00  0.00    +0.000 C 
ATOM     18  C   UNL     1       5.089   6.736  16.176  0.00  0.00    +0.000 C 
ATOM     19  C   UNL     1       3.270   7.046  17.871  0.00  0.00    +0.000 C 
ATOM     20  C   UNL     1       2.561   6.516  19.126  0.00  0.00    +0.000 C 
BRANCH  14  22
ATOM     21  C   UNL     1       2.316   4.258  21.311  0.00  0.00    +0.000 C 
ATOM     22  C   UNL     1       1.338   4.409  20.129  0.00  0.00    +0.000 C 
ATOM     23  C   UNL     1       0.742   3.026  19.854  0.00  0.00    +0.000 C 
ENDBRANCH  14  22
ENDBRANCH  13  20
ENDBRANCH   1  13
TORSDOF 3
ENDMDL
MODEL 9
REMARK VINA RESULT:      -7.0      1.870      7.684
REMARK  Name = 
REMARK  6 active torsions:
REMARK  status: ('A' for Active; 'I' for Inactive)
REMARK    1  A    between atoms: C_1  and  C_2
REMARK    2  A    between atoms: C_2  and  C_3
REMARK    3  A    between atoms: C_2  and  C_4
REMARK    4  A    between atoms: C_7  and  C_8
REMARK    5  A    between atoms: C_10  and  O_11
REMARK    6  A    between atoms: O_11  and  C_12
REMARK                            x       y       z     vdW  Elec       q    Type
REMARK                         _______ _______ _______ _____ _____    ______ ____
ROOT
ATOM      1  C   UNL     1       1.276   8.324  20.384  0.00  0.00    +0.000 C 
ATOM      2  O   UNL     1       0.844   7.706  21.345  0.00  0.00    +0.000 OA
ATOM      3  N   UNL     1       2.047   7.743  19.389  0.00  0.00    +0.000 N 
ATOM      4  C   UNL     1       2.509   8.484  18.214  0.00  0.00    +0.000 C 
ATOM      5  C   UNL     1       2.964   7.571  17.070  0.00  0.00    +0.000 C 
ATOM      6  C   UNL     1       4.059   6.683  17.599  0.00  0.00    +0.000 A 
ATOM      7  C   UNL     1       5.229   6.435  16.877  0.00  0.00    +0.000 A 
ATOM      8  C   UNL     1       6.250   5.681  17.455  0.00  0.00    +0.000 A 
ATOM      9  C   UNL     1       6.093   5.158  18.739  0.00  0.00    +0.000 A 
ATOM     10  C   UNL     1       4.912   5.375  19.449  0.00  0.00    +0.000 A 
ATOM     11  C   UNL     1       3.887   6.146  18.888  0.00  0.00    +0.000 A 
ATOM     12  C   UNL     1       2.590   6.404  19.627  0.00  0.00    +0.000 C 
ENDROOT
BRANCH   1  13
ATOM     13  O   UNL     1       1.070   9.665  20.188  0.00  0.00    +0.000 OA
BRANCH  13  20
ATOM     14  C   UNL     1      -0.542  11.524  20.606  0.00  0.00    +0.000 C 
ATOM     15  C   UNL     1      -1.970  12.000  20.225  0.00  0.00    +0.000 C 
ATOM     16  C   UNL     1      -2.284  11.892  18.734  0.00  0.00    +0.000 C 
ATOM     17  C   UNL     1      -2.036  10.481  18.205  0.00  0.00    +0.000 C 
ATOM     18  C   UNL     1      -2.278  10.411  16.698  0.00  0.00    +0.000 C 
ATOM     19  C   UNL     1      -0.612  10.046  18.533  0.00  0.00    +0.000 C 
ATOM     20  C   UNL     1      -0.309  10.085  20.038  0.00  0.00    +0.000 C 
BRANCH  14  22
ATOM     21  C   UNL     1      -0.852  10.415  22.920  0.00  0.00    +0.000 C 
ATOM     22  C   UNL     1      -0.336  11.651  22.157  0.00  0.00    +0.000 C 
ATOM     23  C   UNL     1      -1.007  12.880  22.774  0.00  0.00    +0.000 C 
ENDBRANCH  14  22
ENDBRANCH  13  20
ENDBRANCH   1  13
TORSDOF 3
ENDMDL
