MODEL 1
REMARK VINA RESULT:      -7.2      0.000      0.000
REMARK  Name = 
REMARK  8 active torsions:
REMARK  status: ('A' for Active; 'I' for Inactive)
REMARK    1  A    between atoms: C_2  and  C_3
REMARK    2  A    between atoms: C_2  and  C_23
REMARK    3  A    between atoms: C_5  and  O_6
REMARK    4  A    between atoms: C_7  and  C_8
REMARK    5  A    between atoms: C_14  and  O_15
REMARK    6  A    between atoms: C_17  and  C_18
REMARK    7  A    between atoms: C_23  and  C_24
REMARK    8  A    between atoms: C_23  and  O_25
REMARK                            x       y       z     vdW  Elec       q    Type
REMARK                         _______ _______ _______ _____ _____    ______ ____
ROOT
ATOM      1  C   UNL     1       4.328   6.933  17.500  0.00  0.00    +0.000 A 
ATOM      2  C   UNL     1       3.676   8.111  17.095  0.00  0.00    +0.000 A 
ATOM      3  C   UNL     1       2.633   8.654  17.855  0.00  0.00    +0.000 A 
ATOM      4  C   UNL     1       2.198   8.044  19.034  0.00  0.00    +0.000 A 
ATOM      5  C   UNL     1       1.061   8.590  19.849  0.00  0.00    +0.000 C 
ATOM      6  C   UNL     1       2.850   6.869  19.424  0.00  0.00    +0.000 A 
ATOM      7  C   UNL     1       3.896   6.313  18.682  0.00  0.00    +0.000 A 
ATOM      8  O   UNL     1       4.529   5.200  19.179  0.00  0.00    +0.000 OA
ATOM      9  C   UNL     1       3.759   4.060  19.321  0.00  0.00    +0.000 A 
ATOM     10  C   UNL     1       4.465   2.899  18.979  0.00  0.00    +0.000 A 
ATOM     11  C   UNL     1       3.794   1.693  18.877  0.00  0.00    +0.000 A 
ATOM     12  C   UNL     1       2.447   1.606  19.189  0.00  0.00    +0.000 A 
ATOM     13  C   UNL     1       1.739   2.734  19.641  0.00  0.00    +0.000 A 
ATOM     14  C   UNL     1       0.292   2.536  20.015  0.00  0.00    +0.000 C 
ATOM     15  C   UNL     1       2.403   3.987  19.716  0.00  0.00    +0.000 A 
ATOM     16  C   UNL     1       1.666   5.191  20.233  0.00  0.00    +0.000 C 
ATOM     17  O   UNL     1       0.457   5.223  20.450  0.00  0.00    +0.000 OA
ATOM     18  O   UNL     1       2.483   6.226  20.605  0.00  0.00    +0.000 OA
ENDROOT
BRANCH   1  20
ATOM     19  C   UNL     1       5.025   5.994  15.374  0.00  0.00    +0.000 C 
ATOM     20  C   UNL     1       5.379   6.386  16.612  0.00  0.00    +0.000 C 
BRANCH  20  21
ATOM     21  C   UNL     1       6.822   6.373  17.066  0.00  0.00    +0.000 C 
ATOM     22  C   UNL     1       7.350   7.729  17.514  0.00  0.00    +0.000 C 
BRANCH  21  23
ATOM     23  O   UNL     1       7.643   5.850  16.025  0.00  0.00    +0.000 OA
ATOM     24  H   UNL     1       8.408   5.423  16.449  0.00  0.00    +0.000 HD
ENDBRANCH  21  23
ENDBRANCH  20  21
ENDBRANCH   1  20
BRANCH   3  25
ATOM     25  O   UNL     1       2.019   9.801  17.442  0.00  0.00    +0.000 OA
ATOM     26  H   UNL     1       1.722  10.306  18.215  0.00  0.00    +0.000 HD
ENDBRANCH   3  25
BRANCH  11  27
ATOM     27  O   UNL     1       4.420   0.570  18.428  0.00  0.00    +0.000 OA
ATOM     28  H   UNL     1       4.144  -0.178  18.984  0.00  0.00    +0.000 HD
ENDBRANCH  11  27
TORSDOF 5
ENDMDL
MODEL 2
REMARK VINA RESULT:      -7.0      1.448      5.052
REMARK  Name = 
REMARK  8 active torsions:
REMARK  status: ('A' for Active; 'I' for Inactive)
REMARK    1  A    between atoms: C_2  and  C_3
REMARK    2  A    between atoms: C_2  and  C_23
REMARK    3  A    between atoms: C_5  and  O_6
REMARK    4  A    between atoms: C_7  and  C_8
REMARK    5  A    between atoms: C_14  and  O_15
REMARK    6  A    between atoms: C_17  and  C_18
REMARK    7  A    between atoms: C_23  and  C_24
REMARK    8  A    between atoms: C_23  and  O_25
REMARK                            x       y       z     vdW  Elec       q    Type
REMARK                         _______ _______ _______ _____ _____    ______ ____
ROOT
ATOM      1  C   UNL     1       4.958   5.136  17.804  0.00  0.00    +0.000 A 
ATOM      2  C   UNL     1       5.577   4.086  18.505  0.00  0.00    +0.000 A 
ATOM      3  C   UNL     1       4.861   3.320  19.433  0.00  0.00    +0.000 A 
ATOM      4  C   UNL     1       3.514   3.574  19.702  0.00  0.00    +0.000 A 
ATOM      5  C   UNL     1       2.735   2.787  20.715  0.00  0.00    +0.000 C 
ATOM      6  C   UNL     1       2.910   4.625  19.004  0.00  0.00    +0.000 A 
ATOM      7  C   UNL     1       3.606   5.399  18.070  0.00  0.00    +0.000 A 
ATOM      8  O   UNL     1       2.914   6.361  17.375  0.00  0.00    +0.000 OA
ATOM      9  C   UNL     1       2.368   7.392  18.119  0.00  0.00    +0.000 A 
ATOM     10  C   UNL     1       2.473   8.628  17.467  0.00  0.00    +0.000 A 
ATOM     11  C   UNL     1       2.155   9.790  18.147  0.00  0.00    +0.000 A 
ATOM     12  C   UNL     1       1.655   9.739  19.439  0.00  0.00    +0.000 A 
ATOM     13  C   UNL     1       1.436   8.505  20.077  0.00  0.00    +0.000 A 
ATOM     14  C   UNL     1       0.835   8.541  21.459  0.00  0.00    +0.000 C 
ATOM     15  C   UNL     1       1.792   7.304  19.408  0.00  0.00    +0.000 A 
ATOM     16  C   UNL     1       1.527   5.978  20.066  0.00  0.00    +0.000 C 
ATOM     17  O   UNL     1       1.169   5.843  21.233  0.00  0.00    +0.000 OA
ATOM     18  O   UNL     1       1.562   4.913  19.204  0.00  0.00    +0.000 OA
ENDROOT
BRANCH   1  20
ATOM     19  C   UNL     1       6.433   7.016  17.384  0.00  0.00    +0.000 C 
ATOM     20  C   UNL     1       5.796   5.940  16.886  0.00  0.00    +0.000 C 
BRANCH  20  21
ATOM     21  C   UNL     1       5.998   5.490  15.456  0.00  0.00    +0.000 C 
ATOM     22  C   UNL     1       5.396   4.128  15.137  0.00  0.00    +0.000 C 
BRANCH  21  23
ATOM     23  O   UNL     1       7.390   5.490  15.150  0.00  0.00    +0.000 OA
ATOM     24  H   UNL     1       7.475   5.311  14.197  0.00  0.00    +0.000 HD
ENDBRANCH  21  23
ENDBRANCH  20  21
ENDBRANCH   1  20
BRANCH   3  25
ATOM     25  O   UNL     1       5.484   2.303  20.097  0.00  0.00    +0.000 OA
ATOM     26  H   UNL     1       4.833   1.808  20.618  0.00  0.00    +0.000 HD
ENDBRANCH   3  25
BRANCH  11  27
ATOM     27  O   UNL     1       2.361  11.015  17.590  0.00  0.00    +0.000 OA
ATOM     28  H   UNL     1       3.162  10.972  17.040  0.00  0.00    +0.000 HD
ENDBRANCH  11  27
TORSDOF 5
ENDMDL
MODEL 3
REMARK VINA RESULT:      -7.0      1.429      4.936
REMARK  Name = 
REMARK  8 active torsions:
REMARK  status: ('A' for Active; 'I' for Inactive)
REMARK    1  A    between atoms: C_2  and  C_3
REMARK    2  A    between atoms: C_2  and  C_23
REMARK    3  A    between atoms: C_5  and  O_6
REMARK    4  A    between atoms: C_7  and  C_8
REMARK    5  A    between atoms: C_14  and  O_15
REMARK    6  A    between atoms: C_17  and  C_18
REMARK    7  A    between atoms: C_23  and  C_24
REMARK    8  A    between atoms: C_23  and  O_25
REMARK                            x       y       z     vdW  Elec       q    Type
REMARK                         _______ _______ _______ _____ _____    ______ ____
ROOT
ATOM      1  C   UNL     1       4.776   5.122  17.724  0.00  0.00    +0.000 A 
ATOM      2  C   UNL     1       5.422   4.071  18.400  0.00  0.00    +0.000 A 
ATOM      3  C   UNL     1       4.758   3.334  19.388  0.00  0.00    +0.000 A 
ATOM      4  C   UNL     1       3.438   3.619  19.743  0.00  0.00    +0.000 A 
ATOM      5  C   UNL     1       2.715   2.864  20.821  0.00  0.00    +0.000 C 
ATOM      6  C   UNL     1       2.806   4.670  19.069  0.00  0.00    +0.000 A 
ATOM      7  C   UNL     1       3.450   5.416  18.077  0.00  0.00    +0.000 A 
ATOM      8  O   UNL     1       2.731   6.379  17.414  0.00  0.00    +0.000 OA
ATOM      9  C   UNL     1       2.256   7.432  18.175  0.00  0.00    +0.000 A 
ATOM     10  C   UNL     1       2.338   8.655  17.496  0.00  0.00    +0.000 A 
ATOM     11  C   UNL     1       2.088   9.834  18.175  0.00  0.00    +0.000 A 
ATOM     12  C   UNL     1       1.677   9.814  19.499  0.00  0.00    +0.000 A 
ATOM     13  C   UNL     1       1.480   8.595  20.171  0.00  0.00    +0.000 A 
ATOM     14  C   UNL     1       0.975   8.665  21.591  0.00  0.00    +0.000 C 
ATOM     15  C   UNL     1       1.767   7.376  19.501  0.00  0.00    +0.000 A 
ATOM     16  C   UNL     1       1.524   6.067  20.199  0.00  0.00    +0.000 C 
ATOM     17  O   UNL     1       1.244   5.958  21.390  0.00  0.00    +0.000 OA
ATOM     18  O   UNL     1       1.480   4.987  19.356  0.00  0.00    +0.000 OA
ENDROOT
BRANCH   1  20
ATOM     19  C   UNL     1       4.902   6.538  15.759  0.00  0.00    +0.000 C 
ATOM     20  C   UNL     1       5.564   5.894  16.738  0.00  0.00    +0.000 C 
BRANCH  20  21
ATOM     21  C   UNL     1       7.063   6.027  16.902  0.00  0.00    +0.000 C 
ATOM     22  C   UNL     1       7.508   7.326  17.561  0.00  0.00    +0.000 C 
BRANCH  21  23
ATOM     23  O   UNL     1       7.695   5.882  15.633  0.00  0.00    +0.000 OA
ATOM     24  H   UNL     1       7.005   5.987  14.955  0.00  0.00    +0.000 HD
ENDBRANCH  21  23
ENDBRANCH  20  21
ENDBRANCH   1  20
BRANCH   3  25
ATOM     25  O   UNL     1       5.406   2.317  20.026  0.00  0.00    +0.000 OA
ATOM     26  H   UNL     1       5.176   1.472  19.607  0.00  0.00    +0.000 HD
ENDBRANCH   3  25
BRANCH  11  27
ATOM     27  O   UNL     1       2.279  11.046  17.584  0.00  0.00    +0.000 OA
ATOM     28  H   UNL     1       2.358  11.719  18.281  0.00  0.00    +0.000 HD
ENDBRANCH  11  27
TORSDOF 5
ENDMDL
MODEL 4
REMARK VINA RESULT:      -6.9      0.578      1.233
REMARK  Name = 
REMARK  8 active torsions:
REMARK  status: ('A' for Active; 'I' for Inactive)
REMARK    1  A    between atoms: C_2  and  C_3
REMARK    2  A    between atoms: C_2  and  C_23
REMARK    3  A    between atoms: C_5  and  O_6
REMARK    4  A    between atoms: C_7  and  C_8
REMARK    5  A    between atoms: C_14  and  O_15
REMARK    6  A    between atoms: C_17  and  C_18
REMARK    7  A    between atoms: C_23  and  C_24
REMARK    8  A    between atoms: C_23  and  O_25
REMARK                            x       y       z     vdW  Elec       q    Type
REMARK                         _______ _______ _______ _____ _____    ______ ____
ROOT
ATOM      1  C   UNL     1       4.400   6.934  17.639  0.00  0.00    +0.000 A 
ATOM      2  C   UNL     1       3.751   8.097  17.187  0.00  0.00    +0.000 A 
ATOM      3  C   UNL     1       2.655   8.624  17.880  0.00  0.00    +0.000 A 
ATOM      4  C   UNL     1       2.162   8.013  19.036  0.00  0.00    +0.000 A 
ATOM      5  C   UNL     1       0.969   8.542  19.778  0.00  0.00    +0.000 C 
ATOM      6  C   UNL     1       2.812   6.854  19.473  0.00  0.00    +0.000 A 
ATOM      7  C   UNL     1       3.910   6.313  18.798  0.00  0.00    +0.000 A 
ATOM      8  O   UNL     1       4.534   5.216  19.339  0.00  0.00    +0.000 OA
ATOM      9  C   UNL     1       3.779   4.062  19.444  0.00  0.00    +0.000 A 
ATOM     10  C   UNL     1       4.527   2.913  19.153  0.00  0.00    +0.000 A 
ATOM     11  C   UNL     1       3.886   1.694  19.021  0.00  0.00    +0.000 A 
ATOM     12  C   UNL     1       2.524   1.582  19.253  0.00  0.00    +0.000 A 
ATOM     13  C   UNL     1       1.770   2.699  19.654  0.00  0.00    +0.000 A 
ATOM     14  C   UNL     1       0.307   2.475  19.943  0.00  0.00    +0.000 C 
ATOM     15  C   UNL     1       2.404   3.966  19.759  0.00  0.00    +0.000 A 
ATOM     16  C   UNL     1       1.614   5.158  20.223  0.00  0.00    +0.000 C 
ATOM     17  O   UNL     1       0.395   5.168  20.368  0.00  0.00    +0.000 OA
ATOM     18  O   UNL     1       2.389   6.212  20.635  0.00  0.00    +0.000 OA
ENDROOT
BRANCH   1  20
ATOM     19  C   UNL     1       6.772   6.618  17.238  0.00  0.00    +0.000 C 
ATOM     20  C   UNL     1       5.512   6.403  16.818  0.00  0.00    +0.000 C 
BRANCH  20  21
ATOM     21  C   UNL     1       5.215   5.558  15.598  0.00  0.00    +0.000 C 
ATOM     22  C   UNL     1       4.954   4.089  15.903  0.00  0.00    +0.000 C 
BRANCH  21  23
ATOM     23  O   UNL     1       6.286   5.679  14.665  0.00  0.00    +0.000 OA
ATOM     24  H   UNL     1       5.894   5.662  13.774  0.00  0.00    +0.000 HD
ENDBRANCH  21  23
ENDBRANCH  20  21
ENDBRANCH   1  20
BRANCH   3  25
ATOM     25  O   UNL     1       2.045   9.756  17.423  0.00  0.00    +0.000 OA
ATOM     26  H   UNL     1       2.653  10.508  17.504  0.00  0.00    +0.000 HD
ENDBRANCH   3  25
BRANCH  11  27
ATOM     27  O   UNL     1       4.559   0.581  18.618  0.00  0.00    +0.000 OA
ATOM     28  H   UNL     1       5.449   0.846  18.333  0.00  0.00    +0.000 HD
ENDBRANCH  11  27
TORSDOF 5
ENDMDL
MODEL 5
REMARK VINA RESULT:      -6.7      5.380      8.732
REMARK  Name = 
REMARK  8 active torsions:
REMARK  status: ('A' for Active; 'I' for Inactive)
REMARK    1  A    between atoms: C_2  and  C_3
REMARK    2  A    between atoms: C_2  and  C_23
REMARK    3  A    between atoms: C_5  and  O_6
REMARK    4  A    between atoms: C_7  and  C_8
REMARK    5  A    between atoms: C_14  and  O_15
REMARK    6  A    between atoms: C_17  and  C_18
REMARK    7  A    between atoms: C_23  and  C_24
REMARK    8  A    between atoms: C_23  and  O_25
REMARK                            x       y       z     vdW  Elec       q    Type
REMARK                         _______ _______ _______ _____ _____    ______ ____
ROOT
ATOM      1  C   UNL     1      -3.578  11.410  18.538  0.00  0.00    +0.000 A 
ATOM      2  C   UNL     1      -4.886  11.760  18.914  0.00  0.00    +0.000 A 
ATOM      3  C   UNL     1      -5.129  12.483  20.089  0.00  0.00    +0.000 A 
ATOM      4  C   UNL     1      -4.085  12.874  20.930  0.00  0.00    +0.000 A 
ATOM      5  C   UNL     1      -4.322  13.622  22.210  0.00  0.00    +0.000 C 
ATOM      6  C   UNL     1      -2.788  12.515  20.550  0.00  0.00    +0.000 A 
ATOM      7  C   UNL     1      -2.524  11.797  19.380  0.00  0.00    +0.000 A 
ATOM      8  O   UNL     1      -1.215  11.554  19.044  0.00  0.00    +0.000 OA
ATOM      9  C   UNL     1      -0.484  10.775  19.923  0.00  0.00    +0.000 A 
ATOM     10  C   UNL     1       0.381   9.896  19.257  0.00  0.00    +0.000 A 
ATOM     11  C   UNL     1       1.043   8.913  19.971  0.00  0.00    +0.000 A 
ATOM     12  C   UNL     1       0.923   8.840  21.350  0.00  0.00    +0.000 A 
ATOM     13  C   UNL     1       0.149   9.779  22.055  0.00  0.00    +0.000 A 
ATOM     14  C   UNL     1       0.122   9.661  23.558  0.00  0.00    +0.000 C 
ATOM     15  C   UNL     1      -0.567  10.772  21.335  0.00  0.00    +0.000 A 
ATOM     16  C   UNL     1      -1.367  11.802  22.081  0.00  0.00    +0.000 C 
ATOM     17  O   UNL     1      -1.595  11.762  23.288  0.00  0.00    +0.000 OA
ATOM     18  O   UNL     1      -1.699  12.900  21.330  0.00  0.00    +0.000 OA
ENDROOT
BRANCH   1  20
ATOM     19  C   UNL     1      -3.570   9.259  17.415  0.00  0.00    +0.000 C 
ATOM     20  C   UNL     1      -3.408  10.592  17.316  0.00  0.00    +0.000 C 
BRANCH  20  21
ATOM     21  C   UNL     1      -3.157  11.264  15.984  0.00  0.00    +0.000 C 
ATOM     22  C   UNL     1      -3.261  10.332  14.784  0.00  0.00    +0.000 C 
BRANCH  21  23
ATOM     23  O   UNL     1      -1.879  11.894  16.002  0.00  0.00    +0.000 OA
ATOM     24  H   UNL     1      -1.313  11.413  15.374  0.00  0.00    +0.000 HD
ENDBRANCH  21  23
ENDBRANCH  20  21
ENDBRANCH   1  20
BRANCH   3  25
ATOM     25  O   UNL     1      -6.408  12.814  20.429  0.00  0.00    +0.000 OA
ATOM     26  H   UNL     1      -6.429  13.723  20.767  0.00  0.00    +0.000 HD
ENDBRANCH   3  25
BRANCH  11  27
ATOM     27  O   UNL     1       1.793   7.966  19.344  0.00  0.00    +0.000 OA
ATOM     28  H   UNL     1       1.533   7.939  18.407  0.00  0.00    +0.000 HD
ENDBRANCH  11  27
TORSDOF 5
ENDMDL
MODEL 6
REMARK VINA RESULT:      -6.6      5.927      9.410
REMARK  Name = 
REMARK  8 active torsions:
REMARK  status: ('A' for Active; 'I' for Inactive)
REMARK    1  A    between atoms: C_2  and  C_3
REMARK    2  A    between atoms: C_2  and  C_23
REMARK    3  A    between atoms: C_5  and  O_6
REMARK    4  A    between atoms: C_7  and  C_8
REMARK    5  A    between atoms: C_14  and  O_15
REMARK    6  A    between atoms: C_17  and  C_18
REMARK    7  A    between atoms: C_23  and  C_24
REMARK    8  A    between atoms: C_23  and  O_25
REMARK                            x       y       z     vdW  Elec       q    Type
REMARK                         _______ _______ _______ _____ _____    ______ ____
ROOT
ATOM      1  C   UNL     1      -4.305  12.125  19.303  0.00  0.00    +0.000 A 
ATOM      2  C   UNL     1      -5.462  12.127  20.102  0.00  0.00    +0.000 A 
ATOM      3  C   UNL     1      -5.389  12.399  21.474  0.00  0.00    +0.000 A 
ATOM      4  C   UNL     1      -4.170  12.670  22.098  0.00  0.00    +0.000 A 
ATOM      5  C   UNL     1      -4.063  12.933  23.572  0.00  0.00    +0.000 C 
ATOM      6  C   UNL     1      -3.024  12.660  21.295  0.00  0.00    +0.000 A 
ATOM      7  C   UNL     1      -3.075  12.395  19.923  0.00  0.00    +0.000 A 
ATOM      8  O   UNL     1      -1.912  12.481  19.198  0.00  0.00    +0.000 OA
ATOM      9  C   UNL     1      -0.905  11.594  19.533  0.00  0.00    +0.000 A 
ATOM     10  C   UNL     1      -0.223  11.117  18.406  0.00  0.00    +0.000 A 
ATOM     11  C   UNL     1       0.682  10.079  18.540  0.00  0.00    +0.000 A 
ATOM     12  C   UNL     1       0.983   9.562  19.790  0.00  0.00    +0.000 A 
ATOM     13  C   UNL     1       0.395  10.097  20.950  0.00  0.00    +0.000 A 
ATOM     14  C   UNL     1       0.824   9.513  22.272  0.00  0.00    +0.000 C 
ATOM     15  C   UNL     1      -0.564  11.137  20.827  0.00  0.00    +0.000 A 
ATOM     16  C   UNL     1      -1.170  11.741  22.064  0.00  0.00    +0.000 C 
ATOM     17  O   UNL     1      -1.026  11.291  23.197  0.00  0.00    +0.000 OA
ATOM     18  O   UNL     1      -1.780  12.950  21.850  0.00  0.00    +0.000 OA
ENDROOT
BRANCH   1  20
ATOM     19  C   UNL     1      -5.463  12.326  17.181  0.00  0.00    +0.000 C 
ATOM     20  C   UNL     1      -4.454  11.768  17.875  0.00  0.00    +0.000 C 
BRANCH  20  21
ATOM     21  C   UNL     1      -3.430  10.876  17.207  0.00  0.00    +0.000 C 
ATOM     22  C   UNL     1      -3.548  10.815  15.689  0.00  0.00    +0.000 C 
BRANCH  21  23
ATOM     23  O   UNL     1      -3.514   9.563  17.754  0.00  0.00    +0.000 OA
ATOM     24  H   UNL     1      -2.748   9.063  17.422  0.00  0.00    +0.000 HD
ENDBRANCH  21  23
ENDBRANCH  20  21
ENDBRANCH   1  20
BRANCH   3  25
ATOM     25  O   UNL     1      -6.528  12.398  22.226  0.00  0.00    +0.000 OA
ATOM     26  H   UNL     1      -6.307  12.197  23.149  0.00  0.00    +0.000 HD
ENDBRANCH   3  25
BRANCH  11  27
ATOM     27  O   UNL     1       1.270   9.508  17.453  0.00  0.00    +0.000 OA
ATOM     28  H   UNL     1       2.153   9.899  17.340  0.00  0.00    +0.000 HD
ENDBRANCH  11  27
TORSDOF 5
ENDMDL
MODEL 7
REMARK VINA RESULT:      -6.6      6.971     10.760
REMARK  Name = 
REMARK  8 active torsions:
REMARK  status: ('A' for Active; 'I' for Inactive)
REMARK    1  A    between atoms: C_2  and  C_3
REMARK    2  A    between atoms: C_2  and  C_23
REMARK    3  A    between atoms: C_5  and  O_6
REMARK    4  A    between atoms: C_7  and  C_8
REMARK    5  A    between atoms: C_14  and  O_15
REMARK    6  A    between atoms: C_17  and  C_18
REMARK    7  A    between atoms: C_23  and  C_24
REMARK    8  A    between atoms: C_23  and  O_25
REMARK                            x       y       z     vdW  Elec       q    Type
REMARK                         _______ _______ _______ _____ _____    ______ ____
ROOT
ATOM      1  C   UNL     1      -5.386  12.737  20.839  0.00  0.00    +0.000 A 
ATOM      2  C   UNL     1      -6.237  12.709  21.958  0.00  0.00    +0.000 A 
ATOM      3  C   UNL     1      -5.729  12.874  23.253  0.00  0.00    +0.000 A 
ATOM      4  C   UNL     1      -4.364  13.064  23.480  0.00  0.00    +0.000 A 
ATOM      5  C   UNL     1      -3.792  13.212  24.860  0.00  0.00    +0.000 C 
ATOM      6  C   UNL     1      -3.526  13.085  22.360  0.00  0.00    +0.000 A 
ATOM      7  C   UNL     1      -4.013  12.926  21.059  0.00  0.00    +0.000 A 
ATOM      8  O   UNL     1      -3.130  13.037  20.013  0.00  0.00    +0.000 OA
ATOM      9  C   UNL     1      -2.113  12.101  19.959  0.00  0.00    +0.000 A 
ATOM     10  C   UNL     1      -1.838  11.693  18.647  0.00  0.00    +0.000 A 
ATOM     11  C   UNL     1      -0.987  10.625  18.425  0.00  0.00    +0.000 A 
ATOM     12  C   UNL     1      -0.339  10.006  19.482  0.00  0.00    +0.000 A 
ATOM     13  C   UNL     1      -0.511  10.467  20.799  0.00  0.00    +0.000 A 
ATOM     14  C   UNL     1       0.278   9.774  21.881  0.00  0.00    +0.000 C 
ATOM     15  C   UNL     1      -1.409  11.538  21.050  0.00  0.00    +0.000 A 
ATOM     16  C   UNL     1      -1.572  12.063  22.449  0.00  0.00    +0.000 C 
ATOM     17  O   UNL     1      -1.105  11.524  23.450  0.00  0.00    +0.000 OA
ATOM     18  O   UNL     1      -2.158  13.300  22.515  0.00  0.00    +0.000 OA
ENDROOT
BRANCH   1  20
ATOM     19  C   UNL     1      -6.550  13.532  18.864  0.00  0.00    +0.000 C 
ATOM     20  C   UNL     1      -5.988  12.493  19.509  0.00  0.00    +0.000 C 
BRANCH  20  21
ATOM     21  C   UNL     1      -5.875  11.127  18.867  0.00  0.00    +0.000 C 
ATOM     22  C   UNL     1      -5.223  11.136  17.490  0.00  0.00    +0.000 C 
BRANCH  21  23
ATOM     23  O   UNL     1      -7.167  10.530  18.790  0.00  0.00    +0.000 OA
ATOM     24  H   UNL     1      -7.408  10.252  19.691  0.00  0.00    +0.000 HD
ENDBRANCH  21  23
ENDBRANCH  20  21
ENDBRANCH   1  20
BRANCH   3  25
ATOM     25  O   UNL     1      -6.577  12.846  24.322  0.00  0.00    +0.000 OA
ATOM     26  H   UNL     1      -6.745  11.925  24.579  0.00  0.00    +0.000 HD
ENDBRANCH   3  25
BRANCH  11  27
ATOM     27  O   UNL     1      -0.794  10.122  17.174  0.00  0.00    +0.000 OA
ATOM     28  H   UNL     1       0.127  10.291  16.915  0.00  0.00    +0.000 HD
ENDBRANCH  11  27
TORSDOF 5
ENDMDL
MODEL 8
REMARK VINA RESULT:      -6.6      7.000     10.938
REMARK  Name = 
REMARK  8 active torsions:
REMARK  status: ('A' for Active; 'I' for Inactive)
REMARK    1  A    between atoms: C_2  and  C_3
REMARK    2  A    between atoms: C_2  and  C_23
REMARK    3  A    between atoms: C_5  and  O_6
REMARK    4  A    between atoms: C_7  and  C_8
REMARK    5  A    between atoms: C_14  and  O_15
REMARK    6  A    between atoms: C_17  and  C_18
REMARK    7  A    between atoms: C_23  and  C_24
REMARK    8  A    between atoms: C_23  and  O_25
REMARK                            x       y       z     vdW  Elec       q    Type
REMARK                         _______ _______ _______ _____ _____    ______ ____
ROOT
ATOM      1  C   UNL     1      -5.218  12.647  21.362  0.00  0.00    +0.000 A 
ATOM      2  C   UNL     1      -5.298  12.750  22.762  0.00  0.00    +0.000 A 
ATOM      3  C   UNL     1      -4.177  13.103  23.523  0.00  0.00    +0.000 A 
ATOM      4  C   UNL     1      -2.941  13.356  22.924  0.00  0.00    +0.000 A 
ATOM      5  C   UNL     1      -1.718  13.704  23.721  0.00  0.00    +0.000 C 
ATOM      6  C   UNL     1      -2.871  13.244  21.531  0.00  0.00    +0.000 A 
ATOM      7  C   UNL     1      -3.979  12.898  20.752  0.00  0.00    +0.000 A 
ATOM      8  O   UNL     1      -3.839  12.886  19.386  0.00  0.00    +0.000 OA
ATOM      9  C   UNL     1      -2.938  11.977  18.863  0.00  0.00    +0.000 A 
ATOM     10  C   UNL     1      -3.399  11.401  17.672  0.00  0.00    +0.000 A 
ATOM     11  C   UNL     1      -2.716  10.333  17.117  0.00  0.00    +0.000 A 
ATOM     12  C   UNL     1      -1.534   9.880  17.682  0.00  0.00    +0.000 A 
ATOM     13  C   UNL     1      -0.991  10.512  18.815  0.00  0.00    +0.000 A 
ATOM     14  C   UNL     1       0.329   9.992  19.328  0.00  0.00    +0.000 C 
ATOM     15  C   UNL     1      -1.698  11.585  19.419  0.00  0.00    +0.000 A 
ATOM     16  C   UNL     1      -1.107  12.291  20.608  0.00  0.00    +0.000 C 
ATOM     17  O   UNL     1      -0.114  11.906  21.220  0.00  0.00    +0.000 OA
ATOM     18  O   UNL     1      -1.675  13.512  20.868  0.00  0.00    +0.000 OA
ENDROOT
BRANCH   1  20
ATOM     19  C   UNL     1      -7.401  13.114  20.412  0.00  0.00    +0.000 C 
ATOM     20  C   UNL     1      -6.429  12.209  20.633  0.00  0.00    +0.000 C 
BRANCH  20  21
ATOM     21  C   UNL     1      -6.509  10.806  20.072  0.00  0.00    +0.000 C 
ATOM     22  C   UNL     1      -6.896  10.741  18.600  0.00  0.00    +0.000 C 
BRANCH  21  23
ATOM     23  O   UNL     1      -7.422  10.035  20.850  0.00  0.00    +0.000 OA
ATOM     24  H   UNL     1      -7.617   9.227  20.345  0.00  0.00    +0.000 HD
ENDBRANCH  21  23
ENDBRANCH  20  21
ENDBRANCH   1  20
BRANCH   3  25
ATOM     25  O   UNL     1      -4.282  13.200  24.881  0.00  0.00    +0.000 OA
ATOM     26  H   UNL     1      -3.403  13.113  25.281  0.00  0.00    +0.000 HD
ENDBRANCH   3  25
BRANCH  11  27
ATOM     27  O   UNL     1      -3.200   9.670  16.031  0.00  0.00    +0.000 OA
ATOM     28  H   UNL     1      -4.055  10.064  15.786  0.00  0.00    +0.000 HD
ENDBRANCH  11  27
TORSDOF 5
ENDMDL
MODEL 9
REMARK VINA RESULT:      -6.5      7.149     11.068
REMARK  Name = 
REMARK  8 active torsions:
REMARK  status: ('A' for Active; 'I' for Inactive)
REMARK    1  A    between atoms: C_2  and  C_3
REMARK    2  A    between atoms: C_2  and  C_23
REMARK    3  A    between atoms: C_5  and  O_6
REMARK    4  A    between atoms: C_7  and  C_8
REMARK    5  A    between atoms: C_14  and  O_15
REMARK    6  A    between atoms: C_17  and  C_18
REMARK    7  A    between atoms: C_23  and  C_24
REMARK    8  A    between atoms: C_23  and  O_25
REMARK                            x       y       z     vdW  Elec       q    Type
REMARK                         _______ _______ _______ _____ _____    ______ ____
ROOT
ATOM      1  C   UNL     1      -5.558  12.710  20.943  0.00  0.00    +0.000 A 
ATOM      2  C   UNL     1      -6.293  12.749  22.141  0.00  0.00    +0.000 A 
ATOM      3  C   UNL     1      -5.675  13.077  23.354  0.00  0.00    +0.000 A 
ATOM      4  C   UNL     1      -4.312  13.370  23.420  0.00  0.00    +0.000 A 
ATOM      5  C   UNL     1      -3.621  13.695  24.713  0.00  0.00    +0.000 C 
ATOM      6  C   UNL     1      -3.589  13.323  22.223  0.00  0.00    +0.000 A 
ATOM      7  C   UNL     1      -4.186  13.001  21.001  0.00  0.00    +0.000 A 
ATOM      8  O   UNL     1      -3.418  13.053  19.864  0.00  0.00    +0.000 OA
ATOM      9  C   UNL     1      -2.349  12.178  19.798  0.00  0.00    +0.000 A 
ATOM     10  C   UNL     1      -2.174  11.652  18.511  0.00  0.00    +0.000 A 
ATOM     11  C   UNL     1      -1.278  10.618  18.308  0.00  0.00    +0.000 A 
ATOM     12  C   UNL     1      -0.489  10.153  19.349  0.00  0.00    +0.000 A 
ATOM     13  C   UNL     1      -0.565  10.738  20.625  0.00  0.00    +0.000 A 
ATOM     14  C   UNL     1       0.370  10.209  21.683  0.00  0.00    +0.000 C 
ATOM     15  C   UNL     1      -1.507  11.775  20.861  0.00  0.00    +0.000 A 
ATOM     16  C   UNL     1      -1.569  12.432  22.211  0.00  0.00    +0.000 C 
ATOM     17  O   UNL     1      -0.972  12.029  23.206  0.00  0.00    +0.000 OA
ATOM     18  O   UNL     1      -2.230  13.633  22.215  0.00  0.00    +0.000 OA
ENDROOT
BRANCH   1  20
ATOM     19  C   UNL     1      -6.556  10.988  19.555  0.00  0.00    +0.000 C 
ATOM     20  C   UNL     1      -6.267  12.293  19.712  0.00  0.00    +0.000 C 
BRANCH  20  21
ATOM     21  C   UNL     1      -6.735  13.334  18.719  0.00  0.00    +0.000 C 
ATOM     22  C   UNL     1      -6.743  12.859  17.272  0.00  0.00    +0.000 C 
BRANCH  21  23
ATOM     23  O   UNL     1      -5.930  14.505  18.842  0.00  0.00    +0.000 OA
ATOM     24  H   UNL     1      -6.278  15.013  19.595  0.00  0.00    +0.000 HD
ENDBRANCH  21  23
ENDBRANCH  20  21
ENDBRANCH   1  20
BRANCH   3  25
ATOM     25  O   UNL     1      -6.413  13.112  24.502  0.00  0.00    +0.000 OA
ATOM     26  H   UNL     1      -5.950  12.621  25.200  0.00  0.00    +0.000 HD
ENDBRANCH   3  25
BRANCH  11  27
ATOM     27  O   UNL     1      -1.171  10.000  17.100  0.00  0.00    +0.000 OA
ATOM     28  H   UNL     1      -2.046   9.652  16.855  0.00  0.00    +0.000 HD
ENDBRANCH  11  27
TORSDOF 5
ENDMDL
