MODEL 1
REMARK VINA RESULT:      -7.9      0.000      0.000
REMARK  Name = 
REMARK  5 active torsions:
REMARK  status: ('A' for Active; 'I' for Inactive)
REMARK    1  A    between atoms: C_1  and  O_2
REMARK    2  A    between atoms: O_2  and  C_3
REMARK    3  A    between atoms: C_6  and  C_7
REMARK    4  A    between atoms: C_19  and  O_20
REMARK    5  A    between atoms: O_20  and  C_21
REMARK                            x       y       z     vdW  Elec       q    Type
REMARK                         _______ _______ _______ _____ _____    ______ ____
ROOT
ATOM      1  C   UNL     1       3.816   3.832  17.515  0.00  0.00    +0.000 C 
ATOM      2  N   UNL     1       3.696   2.530  17.482  0.00  0.00    +0.000 NA
ATOM      3  N   UNL     1       2.710   1.930  18.203  0.00  0.00    +0.000 N 
ATOM      4  C   UNL     1       2.031   2.499  19.254  0.00  0.00    +0.000 C 
ATOM      5  O   UNL     1       1.158   1.893  19.871  0.00  0.00    +0.000 OA
ATOM      6  C   UNL     1       2.527   3.878  19.615  0.00  0.00    +0.000 C 
ATOM      7  C   UNL     1       1.562   4.580  20.590  0.00  0.00    +0.000 C 
ATOM      8  C   UNL     1       1.929   6.048  20.680  0.00  0.00    +0.000 C 
ATOM      9  C   UNL     1       1.946   6.670  19.483  0.00  0.00    +0.000 C 
ATOM     10  C   UNL     1       3.024   6.145  18.553  0.00  0.00    +0.000 C 
ATOM     11  C   UNL     1       2.775   4.655  18.292  0.00  0.00    +0.000 C 
ATOM     12  H   UNL     1       2.512   0.957  17.989  0.00  0.00    +0.000 HD
ENDROOT
BRANCH   1  16
ATOM     13  C   UNL     1       7.011   5.162  14.902  0.00  0.00    +0.000 A 
ATOM     14  C   UNL     1       6.067   4.209  14.517  0.00  0.00    +0.000 A 
ATOM     15  C   UNL     1       5.013   3.869  15.365  0.00  0.00    +0.000 A 
ATOM     16  C   UNL     1       4.904   4.415  16.650  0.00  0.00    +0.000 A 
ATOM     17  C   UNL     1       5.866   5.352  17.040  0.00  0.00    +0.000 A 
ATOM     18  C   UNL     1       6.899   5.756  16.169  0.00  0.00    +0.000 A 
BRANCH  13  20
ATOM     19  C   UNL     1       7.893   5.260  12.706  0.00  0.00    +0.000 C 
ATOM     20  O   UNL     1       8.079   5.466  14.102  0.00  0.00    +0.000 OA
ENDBRANCH  13  20
BRANCH  18  21
ATOM     21  O   UNL     1       7.716   6.716  16.713  0.00  0.00    +0.000 OA
ATOM     22  C   UNL     1       7.732   6.875  18.127  0.00  0.00    +0.000 C 
ENDBRANCH  18  21
ENDBRANCH   1  16
TORSDOF 3
ENDMDL
MODEL 2
REMARK VINA RESULT:      -7.9      0.989      1.168
REMARK  Name = 
REMARK  5 active torsions:
REMARK  status: ('A' for Active; 'I' for Inactive)
REMARK    1  A    between atoms: C_1  and  O_2
REMARK    2  A    between atoms: O_2  and  C_3
REMARK    3  A    between atoms: C_6  and  C_7
REMARK    4  A    between atoms: C_19  and  O_20
REMARK    5  A    between atoms: O_20  and  C_21
REMARK                            x       y       z     vdW  Elec       q    Type
REMARK                         _______ _______ _______ _____ _____    ______ ____
ROOT
ATOM      1  C   UNL     1       3.740   4.691  18.083  0.00  0.00    +0.000 C 
ATOM      2  N   UNL     1       3.644   3.445  18.469  0.00  0.00    +0.000 NA
ATOM      3  N   UNL     1       2.669   3.090  19.350  0.00  0.00    +0.000 N 
ATOM      4  C   UNL     1       1.982   3.953  20.169  0.00  0.00    +0.000 C 
ATOM      5  O   UNL     1       1.120   3.562  20.952  0.00  0.00    +0.000 OA
ATOM      6  C   UNL     1       2.452   5.384  20.067  0.00  0.00    +0.000 C 
ATOM      7  C   UNL     1       1.475   6.344  20.773  0.00  0.00    +0.000 C 
ATOM      8  C   UNL     1       1.816   7.770  20.386  0.00  0.00    +0.000 C 
ATOM      9  C   UNL     1       1.820   7.976  19.054  0.00  0.00    +0.000 C 
ATOM     10  C   UNL     1       2.906   7.201  18.333  0.00  0.00    +0.000 C 
ATOM     11  C   UNL     1       2.685   5.701  18.563  0.00  0.00    +0.000 C 
ATOM     12  H   UNL     1       2.489   2.096  19.459  0.00  0.00    +0.000 HD
ENDROOT
BRANCH   1  16
ATOM     13  C   UNL     1       6.859   5.169  15.108  0.00  0.00    +0.000 A 
ATOM     14  C   UNL     1       5.802   4.270  14.958  0.00  0.00    +0.000 A 
ATOM     15  C   UNL     1       4.782   4.206  15.906  0.00  0.00    +0.000 A 
ATOM     16  C   UNL     1       4.816   4.986  17.069  0.00  0.00    +0.000 A 
ATOM     17  C   UNL     1       5.890   5.867  17.227  0.00  0.00    +0.000 A 
ATOM     18  C   UNL     1       6.894   5.992  16.244  0.00  0.00    +0.000 A 
BRANCH  13  20
ATOM     19  C   UNL     1       7.561   4.898  12.862  0.00  0.00    +0.000 C 
ATOM     20  O   UNL     1       7.893   5.205  14.212  0.00  0.00    +0.000 OA
ENDBRANCH  13  20
BRANCH  18  21
ATOM     21  O   UNL     1       7.836   6.941  16.556  0.00  0.00    +0.000 OA
ATOM     22  C   UNL     1       7.597   7.800  17.665  0.00  0.00    +0.000 C 
ENDBRANCH  18  21
ENDBRANCH   1  16
TORSDOF 3
ENDMDL
MODEL 3
REMARK VINA RESULT:      -7.6      3.515      6.492
REMARK  Name = 
REMARK  5 active torsions:
REMARK  status: ('A' for Active; 'I' for Inactive)
REMARK    1  A    between atoms: C_1  and  O_2
REMARK    2  A    between atoms: O_2  and  C_3
REMARK    3  A    between atoms: C_6  and  C_7
REMARK    4  A    between atoms: C_19  and  O_20
REMARK    5  A    between atoms: O_20  and  C_21
REMARK                            x       y       z     vdW  Elec       q    Type
REMARK                         _______ _______ _______ _____ _____    ______ ____
ROOT
ATOM      1  C   UNL     1       3.148   6.362  17.891  0.00  0.00    +0.000 C 
ATOM      2  N   UNL     1       4.267   6.725  17.319  0.00  0.00    +0.000 NA
ATOM      3  N   UNL     1       5.027   5.793  16.683  0.00  0.00    +0.000 N 
ATOM      4  C   UNL     1       4.943   4.434  16.869  0.00  0.00    +0.000 C 
ATOM      5  O   UNL     1       5.671   3.647  16.269  0.00  0.00    +0.000 OA
ATOM      6  C   UNL     1       3.947   4.031  17.930  0.00  0.00    +0.000 C 
ATOM      7  C   UNL     1       3.681   2.513  17.898  0.00  0.00    +0.000 C 
ATOM      8  C   UNL     1       2.469   2.205  18.754  0.00  0.00    +0.000 C 
ATOM      9  C   UNL     1       1.369   2.898  18.393  0.00  0.00    +0.000 C 
ATOM     10  C   UNL     1       1.511   4.394  18.599  0.00  0.00    +0.000 C 
ATOM     11  C   UNL     1       2.677   4.906  17.745  0.00  0.00    +0.000 C 
ATOM     12  H   UNL     1       5.764   6.138  16.075  0.00  0.00    +0.000 HD
ENDROOT
BRANCH   1  16
ATOM     13  C   UNL     1       1.047   9.784  19.530  0.00  0.00    +0.000 A 
ATOM     14  C   UNL     1       1.399   9.687  18.183  0.00  0.00    +0.000 A 
ATOM     15  C   UNL     1       2.007   8.534  17.688  0.00  0.00    +0.000 A 
ATOM     16  C   UNL     1       2.346   7.467  18.530  0.00  0.00    +0.000 A 
ATOM     17  C   UNL     1       2.013   7.579  19.884  0.00  0.00    +0.000 A 
ATOM     18  C   UNL     1       1.338   8.711  20.387  0.00  0.00    +0.000 A 
BRANCH  13  20
ATOM     19  C   UNL     1      -0.796  11.271  19.555  0.00  0.00    +0.000 C 
ATOM     20  O   UNL     1       0.499  10.929  20.040  0.00  0.00    +0.000 OA
ENDBRANCH  13  20
BRANCH  18  21
ATOM     21  O   UNL     1       1.056   8.616  21.728  0.00  0.00    +0.000 OA
ATOM     22  C   UNL     1      -0.307   8.536  22.133  0.00  0.00    +0.000 C 
ENDBRANCH  18  21
ENDBRANCH   1  16
TORSDOF 3
ENDMDL
MODEL 4
REMARK VINA RESULT:      -7.5      3.522      6.603
REMARK  Name = 
REMARK  5 active torsions:
REMARK  status: ('A' for Active; 'I' for Inactive)
REMARK    1  A    between atoms: C_1  and  O_2
REMARK    2  A    between atoms: O_2  and  C_3
REMARK    3  A    between atoms: C_6  and  C_7
REMARK    4  A    between atoms: C_19  and  O_20
REMARK    5  A    between atoms: O_20  and  C_21
REMARK                            x       y       z     vdW  Elec       q    Type
REMARK                         _______ _______ _______ _____ _____    ______ ____
ROOT
ATOM      1  C   UNL     1       3.102   6.307  18.090  0.00  0.00    +0.000 C 
ATOM      2  N   UNL     1       4.187   6.679  17.460  0.00  0.00    +0.000 NA
ATOM      3  N   UNL     1       4.862   5.775  16.699  0.00  0.00    +0.000 N 
ATOM      4  C   UNL     1       4.743   4.410  16.789  0.00  0.00    +0.000 C 
ATOM      5  O   UNL     1       5.394   3.650  16.076  0.00  0.00    +0.000 OA
ATOM      6  C   UNL     1       3.816   3.956  17.891  0.00  0.00    +0.000 C 
ATOM      7  C   UNL     1       3.493   2.454  17.766  0.00  0.00    +0.000 C 
ATOM      8  C   UNL     1       2.339   2.118  18.689  0.00  0.00    +0.000 C 
ATOM      9  C   UNL     1       1.241   2.869  18.468  0.00  0.00    +0.000 C 
ATOM     10  C   UNL     1       1.452   4.340  18.774  0.00  0.00    +0.000 C 
ATOM     11  C   UNL     1       2.568   4.882  17.872  0.00  0.00    +0.000 C 
ATOM     12  H   UNL     1       5.562   6.145  16.063  0.00  0.00    +0.000 HD
ENDROOT
BRANCH   1  16
ATOM     13  C   UNL     1       0.859   9.129  20.501  0.00  0.00    +0.000 A 
ATOM     14  C   UNL     1       1.338   7.918  21.003  0.00  0.00    +0.000 A 
ATOM     15  C   UNL     1       2.119   7.078  20.211  0.00  0.00    +0.000 A 
ATOM     16  C   UNL     1       2.391   7.383  18.871  0.00  0.00    +0.000 A 
ATOM     17  C   UNL     1       1.888   8.585  18.364  0.00  0.00    +0.000 A 
ATOM     18  C   UNL     1       1.153   9.477  19.174  0.00  0.00    +0.000 A 
BRANCH  13  20
ATOM     19  C   UNL     1      -0.104   9.573  22.618  0.00  0.00    +0.000 C 
ATOM     20  O   UNL     1       0.048   9.937  21.250  0.00  0.00    +0.000 OA
ENDBRANCH  13  20
BRANCH  18  21
ATOM     21  O   UNL     1       0.786  10.624  18.513  0.00  0.00    +0.000 OA
ATOM     22  C   UNL     1       1.581  11.792  18.683  0.00  0.00    +0.000 C 
ENDBRANCH  18  21
ENDBRANCH   1  16
TORSDOF 3
ENDMDL
MODEL 5
REMARK VINA RESULT:      -7.4      3.765      6.397
REMARK  Name = 
REMARK  5 active torsions:
REMARK  status: ('A' for Active; 'I' for Inactive)
REMARK    1  A    between atoms: C_1  and  O_2
REMARK    2  A    between atoms: O_2  and  C_3
REMARK    3  A    between atoms: C_6  and  C_7
REMARK    4  A    between atoms: C_19  and  O_20
REMARK    5  A    between atoms: O_20  and  C_21
REMARK                            x       y       z     vdW  Elec       q    Type
REMARK                         _______ _______ _______ _____ _____    ______ ____
ROOT
ATOM      1  C   UNL     1       2.928   6.228  19.152  0.00  0.00    +0.000 C 
ATOM      2  N   UNL     1       4.124   6.322  18.632  0.00  0.00    +0.000 NA
ATOM      3  N   UNL     1       4.887   5.203  18.499  0.00  0.00    +0.000 N 
ATOM      4  C   UNL     1       4.694   4.022  19.175  0.00  0.00    +0.000 C 
ATOM      5  O   UNL     1       5.431   3.052  19.015  0.00  0.00    +0.000 OA
ATOM      6  C   UNL     1       3.564   4.077  20.174  0.00  0.00    +0.000 C 
ATOM      7  C   UNL     1       3.204   2.669  20.687  0.00  0.00    +0.000 C 
ATOM      8  C   UNL     1       1.887   2.735  21.435  0.00  0.00    +0.000 C 
ATOM      9  C   UNL     1       0.882   3.256  20.703  0.00  0.00    +0.000 C 
ATOM     10  C   UNL     1       1.098   4.713  20.341  0.00  0.00    +0.000 C 
ATOM     11  C   UNL     1       2.381   4.836  19.511  0.00  0.00    +0.000 C 
ATOM     12  H   UNL     1       5.706   5.275  17.904  0.00  0.00    +0.000 HD
ENDROOT
BRANCH   1  16
ATOM     13  C   UNL     1       0.887  10.054  19.091  0.00  0.00    +0.000 A 
ATOM     14  C   UNL     1       1.380   9.441  17.938  0.00  0.00    +0.000 A 
ATOM     15  C   UNL     1       1.962   8.176  17.998  0.00  0.00    +0.000 A 
ATOM     16  C   UNL     1       2.134   7.508  19.217  0.00  0.00    +0.000 A 
ATOM     17  C   UNL     1       1.660   8.137  20.373  0.00  0.00    +0.000 A 
ATOM     18  C   UNL     1       1.009   9.387  20.320  0.00  0.00    +0.000 A 
BRANCH  13  20
ATOM     19  C   UNL     1      -1.031  11.407  18.776  0.00  0.00    +0.000 C 
ATOM     20  O   UNL     1       0.362  11.317  19.054  0.00  0.00    +0.000 OA
ENDBRANCH  13  20
BRANCH  18  21
ATOM     21  O   UNL     1       0.574   9.819  21.548  0.00  0.00    +0.000 OA
ATOM     22  C   UNL     1      -0.411   9.050  22.231  0.00  0.00    +0.000 C 
ENDBRANCH  18  21
ENDBRANCH   1  16
TORSDOF 3
ENDMDL
MODEL 6
REMARK VINA RESULT:      -7.4      3.899      5.637
REMARK  Name = 
REMARK  5 active torsions:
REMARK  status: ('A' for Active; 'I' for Inactive)
REMARK    1  A    between atoms: C_1  and  O_2
REMARK    2  A    between atoms: O_2  and  C_3
REMARK    3  A    between atoms: C_6  and  C_7
REMARK    4  A    between atoms: C_19  and  O_20
REMARK    5  A    between atoms: O_20  and  C_21
REMARK                            x       y       z     vdW  Elec       q    Type
REMARK                         _______ _______ _______ _____ _____    ______ ____
ROOT
ATOM      1  C   UNL     1       2.180   8.343  18.394  0.00  0.00    +0.000 C 
ATOM      2  N   UNL     1       2.159   9.219  17.422  0.00  0.00    +0.000 NA
ATOM      3  N   UNL     1       1.631  10.453  17.644  0.00  0.00    +0.000 N 
ATOM      4  C   UNL     1       0.785  10.784  18.676  0.00  0.00    +0.000 C 
ATOM      5  O   UNL     1       0.334  11.920  18.810  0.00  0.00    +0.000 OA
ATOM      6  C   UNL     1       0.410   9.611  19.548  0.00  0.00    +0.000 C 
ATOM      7  C   UNL     1      -0.292  10.077  20.839  0.00  0.00    +0.000 C 
ATOM      8  C   UNL     1      -0.370   8.914  21.808  0.00  0.00    +0.000 C 
ATOM      9  C   UNL     1       0.831   8.365  22.081  0.00  0.00    +0.000 C 
ATOM     10  C   UNL     1       1.476   7.709  20.875  0.00  0.00    +0.000 C 
ATOM     11  C   UNL     1       1.694   8.768  19.788  0.00  0.00    +0.000 C 
ATOM     12  H   UNL     1       1.824  11.167  16.948  0.00  0.00    +0.000 HD
ENDROOT
BRANCH   1  16
ATOM     13  C   UNL     1       4.175   4.695  17.162  0.00  0.00    +0.000 A 
ATOM     14  C   UNL     1       4.765   5.955  17.048  0.00  0.00    +0.000 A 
ATOM     15  C   UNL     1       4.114   7.091  17.527  0.00  0.00    +0.000 A 
ATOM     16  C   UNL     1       2.826   7.019  18.073  0.00  0.00    +0.000 A 
ATOM     17  C   UNL     1       2.230   5.757  18.163  0.00  0.00    +0.000 A 
ATOM     18  C   UNL     1       2.903   4.591  17.744  0.00  0.00    +0.000 A 
BRANCH  13  20
ATOM     19  C   UNL     1       5.844   3.812  15.732  0.00  0.00    +0.000 C 
ATOM     20  O   UNL     1       4.779   3.579  16.648  0.00  0.00    +0.000 OA
ENDBRANCH  13  20
BRANCH  18  21
ATOM     21  O   UNL     1       2.175   3.445  17.956  0.00  0.00    +0.000 OA
ATOM     22  C   UNL     1       1.239   3.421  19.028  0.00  0.00    +0.000 C 
ENDBRANCH  18  21
ENDBRANCH   1  16
TORSDOF 3
ENDMDL
MODEL 7
REMARK VINA RESULT:      -7.2      3.838      5.612
REMARK  Name = 
REMARK  5 active torsions:
REMARK  status: ('A' for Active; 'I' for Inactive)
REMARK    1  A    between atoms: C_1  and  O_2
REMARK    2  A    between atoms: O_2  and  C_3
REMARK    3  A    between atoms: C_6  and  C_7
REMARK    4  A    between atoms: C_19  and  O_20
REMARK    5  A    between atoms: O_20  and  C_21
REMARK                            x       y       z     vdW  Elec       q    Type
REMARK                         _______ _______ _______ _____ _____    ______ ____
ROOT
ATOM      1  C   UNL     1       2.171   8.196  18.412  0.00  0.00    +0.000 C 
ATOM      2  N   UNL     1       2.227   9.035  17.410  0.00  0.00    +0.000 NA
ATOM      3  N   UNL     1       1.811  10.319  17.587  0.00  0.00    +0.000 N 
ATOM      4  C   UNL     1       0.999  10.760  18.604  0.00  0.00    +0.000 C 
ATOM      5  O   UNL     1       0.651  11.935  18.697  0.00  0.00    +0.000 OA
ATOM      6  C   UNL     1       0.522   9.657  19.517  0.00  0.00    +0.000 C 
ATOM      7  C   UNL     1      -0.135  10.229  20.789  0.00  0.00    +0.000 C 
ATOM      8  C   UNL     1      -0.315   9.113  21.799  0.00  0.00    +0.000 C 
ATOM      9  C   UNL     1       0.832   8.469  22.094  0.00  0.00    +0.000 C 
ATOM     10  C   UNL     1       1.415   7.716  20.913  0.00  0.00    +0.000 C 
ATOM     11  C   UNL     1       1.726   8.712  19.790  0.00  0.00    +0.000 C 
ATOM     12  H   UNL     1       2.066  10.987  16.867  0.00  0.00    +0.000 HD
ENDROOT
BRANCH   1  16
ATOM     13  C   UNL     1       3.406   4.077  17.851  0.00  0.00    +0.000 A 
ATOM     14  C   UNL     1       2.068   4.472  17.852  0.00  0.00    +0.000 A 
ATOM     15  C   UNL     1       1.723   5.818  17.961  0.00  0.00    +0.000 A 
ATOM     16  C   UNL     1       2.696   6.809  18.141  0.00  0.00    +0.000 A 
ATOM     17  C   UNL     1       4.035   6.406  18.164  0.00  0.00    +0.000 A 
ATOM     18  C   UNL     1       4.403   5.056  17.987  0.00  0.00    +0.000 A 
BRANCH  13  20
ATOM     19  C   UNL     1       3.742   2.056  19.039  0.00  0.00    +0.000 C 
ATOM     20  O   UNL     1       3.757   2.755  17.799  0.00  0.00    +0.000 OA
ENDBRANCH  13  20
BRANCH  18  21
ATOM     21  O   UNL     1       5.763   4.864  17.993  0.00  0.00    +0.000 OA
ATOM     22  C   UNL     1       6.512   5.338  19.106  0.00  0.00    +0.000 C 
ENDBRANCH  18  21
ENDBRANCH   1  16
TORSDOF 3
ENDMDL
MODEL 8
REMARK VINA RESULT:      -7.2      4.012      6.282
REMARK  Name = 
REMARK  5 active torsions:
REMARK  status: ('A' for Active; 'I' for Inactive)
REMARK    1  A    between atoms: C_1  and  O_2
REMARK    2  A    between atoms: O_2  and  C_3
REMARK    3  A    between atoms: C_6  and  C_7
REMARK    4  A    between atoms: C_19  and  O_20
REMARK    5  A    between atoms: O_20  and  C_21
REMARK                            x       y       z     vdW  Elec       q    Type
REMARK                         _______ _______ _______ _____ _____    ______ ____
ROOT
ATOM      1  C   UNL     1       1.822   8.256  19.080  0.00  0.00    +0.000 C 
ATOM      2  N   UNL     1       1.726   8.804  17.895  0.00  0.00    +0.000 NA
ATOM      3  N   UNL     1       1.181  10.044  17.773  0.00  0.00    +0.000 N 
ATOM      4  C   UNL     1       0.386  10.661  18.709  0.00  0.00    +0.000 C 
ATOM      5  O   UNL     1      -0.084  11.782  18.527  0.00  0.00    +0.000 OA
ATOM      6  C   UNL     1       0.088   9.798  19.911  0.00  0.00    +0.000 C 
ATOM      7  C   UNL     1      -0.553  10.622  21.044  0.00  0.00    +0.000 C 
ATOM      8  C   UNL     1      -0.548   9.799  22.318  0.00  0.00    +0.000 C 
ATOM      9  C   UNL     1       0.679   9.364  22.669  0.00  0.00    +0.000 C 
ATOM     10  C   UNL     1       1.272   8.384  21.675  0.00  0.00    +0.000 C 
ATOM     11  C   UNL     1       1.404   9.074  20.312  0.00  0.00    +0.000 C 
ATOM     12  H   UNL     1       1.318  10.520  16.886  0.00  0.00    +0.000 HD
ENDROOT
BRANCH   1  16
ATOM     13  C   UNL     1       3.663   4.336  18.848  0.00  0.00    +0.000 A 
ATOM     14  C   UNL     1       3.884   5.333  17.897  0.00  0.00    +0.000 A 
ATOM     15  C   UNL     1       3.329   6.603  18.054  0.00  0.00    +0.000 A 
ATOM     16  C   UNL     1       2.482   6.901  19.128  0.00  0.00    +0.000 A 
ATOM     17  C   UNL     1       2.244   5.892  20.066  0.00  0.00    +0.000 A 
ATOM     18  C   UNL     1       2.851   4.624  19.957  0.00  0.00    +0.000 A 
BRANCH  13  20
ATOM     19  C   UNL     1       3.332   2.172  17.946  0.00  0.00    +0.000 C 
ATOM     20  O   UNL     1       4.157   3.071  18.679  0.00  0.00    +0.000 OA
ENDBRANCH  13  20
BRANCH  18  21
ATOM     21  O   UNL     1       2.534   3.784  20.996  0.00  0.00    +0.000 OA
ATOM     22  C   UNL     1       1.283   3.107  20.967  0.00  0.00    +0.000 C 
ENDBRANCH  18  21
ENDBRANCH   1  16
TORSDOF 3
ENDMDL
MODEL 9
REMARK VINA RESULT:      -7.1      1.697      1.803
REMARK  Name = 
REMARK  5 active torsions:
REMARK  status: ('A' for Active; 'I' for Inactive)
REMARK    1  A    between atoms: C_1  and  O_2
REMARK    2  A    between atoms: O_2  and  C_3
REMARK    3  A    between atoms: C_6  and  C_7
REMARK    4  A    between atoms: C_19  and  O_20
REMARK    5  A    between atoms: O_20  and  C_21
REMARK                            x       y       z     vdW  Elec       q    Type
REMARK                         _______ _______ _______ _____ _____    ______ ____
ROOT
ATOM      1  C   UNL     1       4.719   3.574  18.574  0.00  0.00    +0.000 C 
ATOM      2  N   UNL     1       5.492   3.112  19.523  0.00  0.00    +0.000 NA
ATOM      3  N   UNL     1       4.936   2.475  20.590  0.00  0.00    +0.000 N 
ATOM      4  C   UNL     1       3.620   2.565  20.974  0.00  0.00    +0.000 C 
ATOM      5  O   UNL     1       3.186   1.971  21.959  0.00  0.00    +0.000 OA
ATOM      6  C   UNL     1       2.809   3.520  20.131  0.00  0.00    +0.000 C 
ATOM      7  C   UNL     1       1.301   3.369  20.412  0.00  0.00    +0.000 C 
ATOM      8  C   UNL     1       0.522   4.109  19.342  0.00  0.00    +0.000 C 
ATOM      9  C   UNL     1       0.824   3.713  18.089  0.00  0.00    +0.000 C 
ATOM     10  C   UNL     1       2.254   4.026  17.692  0.00  0.00    +0.000 C 
ATOM     11  C   UNL     1       3.208   3.297  18.646  0.00  0.00    +0.000 C 
ATOM     12  H   UNL     1       5.565   1.948  21.188  0.00  0.00    +0.000 HD
ENDROOT
BRANCH   1  16
ATOM     13  C   UNL     1       6.822   5.092  15.099  0.00  0.00    +0.000 A 
ATOM     14  C   UNL     1       5.967   3.990  15.044  0.00  0.00    +0.000 A 
ATOM     15  C   UNL     1       5.255   3.585  16.172  0.00  0.00    +0.000 A 
ATOM     16  C   UNL     1       5.421   4.222  17.409  0.00  0.00    +0.000 A 
ATOM     17  C   UNL     1       6.298   5.310  17.464  0.00  0.00    +0.000 A 
ATOM     18  C   UNL     1       6.974   5.773  16.316  0.00  0.00    +0.000 A 
BRANCH  13  20
ATOM     19  C   UNL     1       7.385   4.693  12.833  0.00  0.00    +0.000 C 
ATOM     20  O   UNL     1       7.567   5.467  14.014  0.00  0.00    +0.000 OA
ENDBRANCH  13  20
BRANCH  18  21
ATOM     21  O   UNL     1       7.751   6.879  16.560  0.00  0.00    +0.000 OA
ATOM     22  C   UNL     1       7.547   7.602  17.769  0.00  0.00    +0.000 C 
ENDBRANCH  18  21
ENDBRANCH   1  16
TORSDOF 3
ENDMDL
