MODEL 1
REMARK VINA RESULT:      -7.8      0.000      0.000
REMARK  Name = 
REMARK  7 active torsions:
REMARK  status: ('A' for Active; 'I' for Inactive)
REMARK    1  A    between atoms: C_1  and  C_2
REMARK    2  A    between atoms: N_4  and  C_5
REMARK    3  A    between atoms: C_8  and  S_9
REMARK    4  A    between atoms: S_9  and  O_12
REMARK    5  A    between atoms: O_12  and  C_13
REMARK    6  A    between atoms: C_16  and  C_17
REMARK    7  A    between atoms: C_17  and  N_19
REMARK                            x       y       z     vdW  Elec       q    Type
REMARK                         _______ _______ _______ _____ _____    ______ ____
ROOT
ATOM      1  O   UNL     1       0.982   9.568  20.233  0.00  0.00    +0.000 OA
ENDROOT
BRANCH   1   2
ATOM      2  C   UNL     1       1.668   8.544  19.632  0.00  0.00    +0.000 A 
ATOM      3  C   UNL     1       2.057   7.371  20.277  0.00  0.00    +0.000 A 
ATOM      4  C   UNL     1       2.805   6.405  19.594  0.00  0.00    +0.000 A 
ATOM      5  C   UNL     1       3.146   6.584  18.248  0.00  0.00    +0.000 A 
ATOM      6  C   UNL     1       2.712   7.748  17.595  0.00  0.00    +0.000 A 
ATOM      7  C   UNL     1       1.974   8.720  18.282  0.00  0.00    +0.000 A 
BRANCH   5   8
ATOM      8  C   UNL     1       3.873   5.519  17.471  0.00  0.00    +0.000 C 
ATOM      9  S   UNL     1       5.175   5.856  16.453  0.00  0.00    +0.000 S 
BRANCH   8  10
ATOM     10  N   UNL     1       3.447   4.209  17.702  0.00  0.00    +0.000 N 
ATOM     11  C   UNL     1       2.094   3.766  17.365  0.00  0.00    +0.000 C 
ATOM     12  C   UNL     1       1.304   3.335  18.593  0.00  0.00    +0.000 C 
ATOM     13  C   UNL     1       2.093   2.329  19.427  0.00  0.00    +0.000 C 
ATOM     14  C   UNL     1       3.477   2.878  19.776  0.00  0.00    +0.000 C 
ATOM     15  C   UNL     1       4.245   3.292  18.517  0.00  0.00    +0.000 C 
ENDBRANCH   8  10
ENDBRANCH   5   8
ENDBRANCH   1   2
BRANCH   1  16
ATOM     16  S   UNL     1       0.365   9.410  21.740  0.00  0.00    +0.000 S 
ATOM     17  O   UNL     1       1.406   9.699  22.711  0.00  0.00    +0.000 OA
ATOM     18  O   UNL     1      -0.404   8.183  21.810  0.00  0.00    +0.000 OA
BRANCH  16  22
ATOM     19  C   UNL     1      -2.714  12.779  22.042  0.00  0.00    +0.000 A 
ATOM     20  C   UNL     1      -2.325  12.059  23.178  0.00  0.00    +0.000 A 
ATOM     21  C   UNL     1      -1.374  11.041  23.092  0.00  0.00    +0.000 A 
ATOM     22  C   UNL     1      -0.805  10.742  21.856  0.00  0.00    +0.000 A 
ATOM     23  C   UNL     1      -1.183  11.443  20.707  0.00  0.00    +0.000 A 
ATOM     24  C   UNL     1      -2.144  12.455  20.803  0.00  0.00    +0.000 A 
BRANCH  19  28
ATOM     25  C   UNL     1      -5.798  14.946  22.040  0.00  0.00    +0.000 C 
ATOM     26  C   UNL     1      -5.047  13.646  22.143  0.00  0.00    +0.000 C 
ATOM     27  O   UNL     1      -5.654  12.588  22.268  0.00  0.00    +0.000 OA
ATOM     28  N   UNL     1      -3.675  13.810  22.076  0.00  0.00    +0.000 N 
ATOM     29  H   UNL     1      -3.323  14.758  22.128  0.00  0.00    +0.000 HD
ENDBRANCH  19  28
ENDBRANCH  16  22
ENDBRANCH   1  16
TORSDOF 6
ENDMDL
MODEL 2
REMARK VINA RESULT:      -7.8      1.213      1.638
REMARK  Name = 
REMARK  7 active torsions:
REMARK  status: ('A' for Active; 'I' for Inactive)
REMARK    1  A    between atoms: C_1  and  C_2
REMARK    2  A    between atoms: N_4  and  C_5
REMARK    3  A    between atoms: C_8  and  S_9
REMARK    4  A    between atoms: S_9  and  O_12
REMARK    5  A    between atoms: O_12  and  C_13
REMARK    6  A    between atoms: C_16  and  C_17
REMARK    7  A    between atoms: C_17  and  N_19
REMARK                            x       y       z     vdW  Elec       q    Type
REMARK                         _______ _______ _______ _____ _____    ______ ____
ROOT
ATOM      1  O   UNL     1       0.325  10.136  19.980  0.00  0.00    +0.000 OA
ENDROOT
BRANCH   1   2
ATOM      2  C   UNL     1       1.119   9.079  19.615  0.00  0.00    +0.000 A 
ATOM      3  C   UNL     1       1.709   8.933  18.360  0.00  0.00    +0.000 A 
ATOM      4  C   UNL     1       2.459   7.790  18.061  0.00  0.00    +0.000 A 
ATOM      5  C   UNL     1       2.653   6.790  19.023  0.00  0.00    +0.000 A 
ATOM      6  C   UNL     1       2.092   6.966  20.297  0.00  0.00    +0.000 A 
ATOM      7  C   UNL     1       1.333   8.106  20.592  0.00  0.00    +0.000 A 
BRANCH   5   8
ATOM      8  C   UNL     1       3.528   5.595  18.751  0.00  0.00    +0.000 C 
ATOM      9  S   UNL     1       5.108   5.729  18.176  0.00  0.00    +0.000 S 
BRANCH   8  10
ATOM     10  N   UNL     1       2.970   4.356  19.075  0.00  0.00    +0.000 N 
ATOM     11  C   UNL     1       1.636   3.966  18.618  0.00  0.00    +0.000 C 
ATOM     12  C   UNL     1       0.672   3.746  19.776  0.00  0.00    +0.000 C 
ATOM     13  C   UNL     1       1.269   2.801  20.816  0.00  0.00    +0.000 C 
ATOM     14  C   UNL     1       2.642   3.296  21.275  0.00  0.00    +0.000 C 
ATOM     15  C   UNL     1       3.587   3.497  20.086  0.00  0.00    +0.000 C 
ENDBRANCH   8  10
ENDBRANCH   5   8
ENDBRANCH   1   2
BRANCH   1  16
ATOM     16  S   UNL     1       0.567  10.936  21.386  0.00  0.00    +0.000 S 
ATOM     17  O   UNL     1       1.487  12.035  21.153  0.00  0.00    +0.000 OA
ATOM     18  O   UNL     1       0.803   9.972  22.443  0.00  0.00    +0.000 OA
BRANCH  16  22
ATOM     19  C   UNL     1      -3.538  12.756  22.254  0.00  0.00    +0.000 A 
ATOM     20  C   UNL     1      -2.827  12.083  23.254  0.00  0.00    +0.000 A 
ATOM     21  C   UNL     1      -1.567  11.540  22.997  0.00  0.00    +0.000 A 
ATOM     22  C   UNL     1      -1.013  11.674  21.725  0.00  0.00    +0.000 A 
ATOM     23  C   UNL     1      -1.709  12.337  20.710  0.00  0.00    +0.000 A 
ATOM     24  C   UNL     1      -2.974  12.868  20.976  0.00  0.00    +0.000 A 
BRANCH  19  28
ATOM     25  C   UNL     1      -7.186  13.707  22.287  0.00  0.00    +0.000 C 
ATOM     26  C   UNL     1      -6.016  12.807  21.995  0.00  0.00    +0.000 C 
ATOM     27  O   UNL     1      -6.182  11.749  21.399  0.00  0.00    +0.000 OA
ATOM     28  N   UNL     1      -4.816  13.315  22.462  0.00  0.00    +0.000 N 
ATOM     29  H   UNL     1      -4.865  14.123  23.069  0.00  0.00    +0.000 HD
ENDBRANCH  19  28
ENDBRANCH  16  22
ENDBRANCH   1  16
TORSDOF 6
ENDMDL
MODEL 3
REMARK VINA RESULT:      -7.8      2.414      3.022
REMARK  Name = 
REMARK  7 active torsions:
REMARK  status: ('A' for Active; 'I' for Inactive)
REMARK    1  A    between atoms: C_1  and  C_2
REMARK    2  A    between atoms: N_4  and  C_5
REMARK    3  A    between atoms: C_8  and  S_9
REMARK    4  A    between atoms: S_9  and  O_12
REMARK    5  A    between atoms: O_12  and  C_13
REMARK    6  A    between atoms: C_16  and  C_17
REMARK    7  A    between atoms: C_17  and  N_19
REMARK                            x       y       z     vdW  Elec       q    Type
REMARK                         _______ _______ _______ _____ _____    ______ ____
ROOT
ATOM      1  O   UNL     1       1.180   9.238  18.183  0.00  0.00    +0.000 OA
ENDROOT
BRANCH   1   2
ATOM      2  C   UNL     1       2.137   8.258  18.260  0.00  0.00    +0.000 A 
ATOM      3  C   UNL     1       3.169   8.092  17.338  0.00  0.00    +0.000 A 
ATOM      4  C   UNL     1       4.067   7.026  17.469  0.00  0.00    +0.000 A 
ATOM      5  C   UNL     1       3.964   6.131  18.541  0.00  0.00    +0.000 A 
ATOM      6  C   UNL     1       2.948   6.333  19.488  0.00  0.00    +0.000 A 
ATOM      7  C   UNL     1       2.043   7.393  19.351  0.00  0.00    +0.000 A 
BRANCH   5   8
ATOM      8  C   UNL     1       4.971   5.032  18.749  0.00  0.00    +0.000 C 
ATOM      9  S   UNL     1       6.572   5.328  19.191  0.00  0.00    +0.000 S 
BRANCH   8  10
ATOM     10  N   UNL     1       4.477   3.731  18.623  0.00  0.00    +0.000 N 
ATOM     11  C   UNL     1       3.909   3.239  17.367  0.00  0.00    +0.000 C 
ATOM     12  C   UNL     1       2.438   2.874  17.503  0.00  0.00    +0.000 C 
ATOM     13  C   UNL     1       2.211   1.941  18.691  0.00  0.00    +0.000 C 
ATOM     14  C   UNL     1       2.793   2.542  19.972  0.00  0.00    +0.000 C 
ATOM     15  C   UNL     1       4.275   2.887  19.801  0.00  0.00    +0.000 C 
ENDBRANCH   8  10
ENDBRANCH   5   8
ENDBRANCH   1   2
BRANCH   1  16
ATOM     16  S   UNL     1       0.673  10.038  19.516  0.00  0.00    +0.000 S 
ATOM     17  O   UNL     1       1.508  11.209  19.712  0.00  0.00    +0.000 OA
ATOM     18  O   UNL     1       0.458   9.084  20.587  0.00  0.00    +0.000 OA
BRANCH  16  22
ATOM     19  C   UNL     1      -3.421  11.652  18.269  0.00  0.00    +0.000 A 
ATOM     20  C   UNL     1      -2.768  10.681  17.500  0.00  0.00    +0.000 A 
ATOM     21  C   UNL     1      -1.526  10.175  17.886  0.00  0.00    +0.000 A 
ATOM     22  C   UNL     1      -0.932  10.645  19.056  0.00  0.00    +0.000 A 
ATOM     23  C   UNL     1      -1.563  11.619  19.835  0.00  0.00    +0.000 A 
ATOM     24  C   UNL     1      -2.802  12.126  19.434  0.00  0.00    +0.000 A 
BRANCH  19  28
ATOM     25  C   UNL     1      -7.033  12.390  17.483  0.00  0.00    +0.000 C 
ATOM     26  C   UNL     1      -5.903  11.588  18.071  0.00  0.00    +0.000 C 
ATOM     27  O   UNL     1      -6.124  10.511  18.612  0.00  0.00    +0.000 OA
ATOM     28  N   UNL     1      -4.671  12.200  17.917  0.00  0.00    +0.000 N 
ATOM     29  H   UNL     1      -4.673  13.157  17.587  0.00  0.00    +0.000 HD
ENDBRANCH  19  28
ENDBRANCH  16  22
ENDBRANCH   1  16
TORSDOF 6
ENDMDL
MODEL 4
REMARK VINA RESULT:      -7.7      0.917      1.690
REMARK  Name = 
REMARK  7 active torsions:
REMARK  status: ('A' for Active; 'I' for Inactive)
REMARK    1  A    between atoms: C_1  and  C_2
REMARK    2  A    between atoms: N_4  and  C_5
REMARK    3  A    between atoms: C_8  and  S_9
REMARK    4  A    between atoms: S_9  and  O_12
REMARK    5  A    between atoms: O_12  and  C_13
REMARK    6  A    between atoms: C_16  and  C_17
REMARK    7  A    between atoms: C_17  and  N_19
REMARK                            x       y       z     vdW  Elec       q    Type
REMARK                         _______ _______ _______ _____ _____    ______ ____
ROOT
ATOM      1  O   UNL     1       0.166   9.656  20.199  0.00  0.00    +0.000 OA
ENDROOT
BRANCH   1   2
ATOM      2  C   UNL     1       1.077   8.833  19.588  0.00  0.00    +0.000 A 
ATOM      3  C   UNL     1       1.563   9.019  18.294  0.00  0.00    +0.000 A 
ATOM      4  C   UNL     1       2.450   8.093  17.734  0.00  0.00    +0.000 A 
ATOM      5  C   UNL     1       2.887   6.985  18.471  0.00  0.00    +0.000 A 
ATOM      6  C   UNL     1       2.426   6.830  19.787  0.00  0.00    +0.000 A 
ATOM      7  C   UNL     1       1.530   7.751  20.343  0.00  0.00    +0.000 A 
BRANCH   5   8
ATOM      8  C   UNL     1       3.907   6.025  17.919  0.00  0.00    +0.000 C 
ATOM      9  S   UNL     1       5.389   6.527  17.288  0.00  0.00    +0.000 S 
BRANCH   8  10
ATOM     10  N   UNL     1       3.581   4.671  18.027  0.00  0.00    +0.000 N 
ATOM     11  C   UNL     1       2.369   4.118  17.421  0.00  0.00    +0.000 C 
ATOM     12  C   UNL     1       1.408   3.558  18.460  0.00  0.00    +0.000 C 
ATOM     13  C   UNL     1       2.121   2.594  19.405  0.00  0.00    +0.000 C 
ATOM     14  C   UNL     1       3.350   3.256  20.031  0.00  0.00    +0.000 C 
ATOM     15  C   UNL     1       4.298   3.798  18.957  0.00  0.00    +0.000 C 
ENDBRANCH   8  10
ENDBRANCH   5   8
ENDBRANCH   1   2
BRANCH   1  16
ATOM     16  S   UNL     1       0.640  10.834  21.230  0.00  0.00    +0.000 S 
ATOM     17  O   UNL     1       1.476  11.782  20.514  0.00  0.00    +0.000 OA
ATOM     18  O   UNL     1       1.089  10.226  22.468  0.00  0.00    +0.000 OA
BRANCH  16  22
ATOM     19  C   UNL     1      -3.204  13.119  22.187  0.00  0.00    +0.000 A 
ATOM     20  C   UNL     1      -2.842  12.848  20.862  0.00  0.00    +0.000 A 
ATOM     21  C   UNL     1      -1.677  12.137  20.567  0.00  0.00    +0.000 A 
ATOM     22  C   UNL     1      -0.868  11.691  21.610  0.00  0.00    +0.000 A 
ATOM     23  C   UNL     1      -1.207  11.956  22.940  0.00  0.00    +0.000 A 
ATOM     24  C   UNL     1      -2.371  12.677  23.224  0.00  0.00    +0.000 A 
BRANCH  19  28
ATOM     25  C   UNL     1      -6.612  14.327  23.256  0.00  0.00    +0.000 C 
ATOM     26  C   UNL     1      -5.504  13.317  23.126  0.00  0.00    +0.000 C 
ATOM     27  O   UNL     1      -5.664  12.167  23.521  0.00  0.00    +0.000 OA
ATOM     28  N   UNL     1      -4.365  13.838  22.536  0.00  0.00    +0.000 N 
ATOM     29  H   UNL     1      -4.335  14.842  22.407  0.00  0.00    +0.000 HD
ENDBRANCH  19  28
ENDBRANCH  16  22
ENDBRANCH   1  16
TORSDOF 6
ENDMDL
MODEL 5
REMARK VINA RESULT:      -7.7      1.180      1.284
REMARK  Name = 
REMARK  7 active torsions:
REMARK  status: ('A' for Active; 'I' for Inactive)
REMARK    1  A    between atoms: C_1  and  C_2
REMARK    2  A    between atoms: N_4  and  C_5
REMARK    3  A    between atoms: C_8  and  S_9
REMARK    4  A    between atoms: S_9  and  O_12
REMARK    5  A    between atoms: O_12  and  C_13
REMARK    6  A    between atoms: C_16  and  C_17
REMARK    7  A    between atoms: C_17  and  N_19
REMARK                            x       y       z     vdW  Elec       q    Type
REMARK                         _______ _______ _______ _____ _____    ______ ____
ROOT
ATOM      1  O   UNL     1       0.328  10.069  19.973  0.00  0.00    +0.000 OA
ENDROOT
BRANCH   1   2
ATOM      2  C   UNL     1       1.157   9.063  19.544  0.00  0.00    +0.000 A 
ATOM      3  C   UNL     1       1.557   7.983  20.329  0.00  0.00    +0.000 A 
ATOM      4  C   UNL     1       2.451   7.034  19.821  0.00  0.00    +0.000 A 
ATOM      5  C   UNL     1       2.933   7.135  18.510  0.00  0.00    +0.000 A 
ATOM      6  C   UNL     1       2.490   8.201  17.712  0.00  0.00    +0.000 A 
ATOM      7  C   UNL     1       1.604   9.157  18.225  0.00  0.00    +0.000 A 
BRANCH   5   8
ATOM      8  C   UNL     1       3.825   6.078  17.916  0.00  0.00    +0.000 C 
ATOM      9  S   UNL     1       5.273   6.440  17.129  0.00  0.00    +0.000 S 
BRANCH   8  10
ATOM     10  N   UNL     1       3.415   4.759  18.120  0.00  0.00    +0.000 N 
ATOM     11  C   UNL     1       2.155   4.249  17.578  0.00  0.00    +0.000 C 
ATOM     12  C   UNL     1       1.186   3.822  18.672  0.00  0.00    +0.000 C 
ATOM     13  C   UNL     1       1.859   2.876  19.663  0.00  0.00    +0.000 C 
ATOM     14  C   UNL     1       3.144   3.494  20.218  0.00  0.00    +0.000 C 
ATOM     15  C   UNL     1       4.097   3.901  19.090  0.00  0.00    +0.000 C 
ENDBRANCH   8  10
ENDBRANCH   5   8
ENDBRANCH   1   2
BRANCH   1  16
ATOM     16  S   UNL     1       0.641  10.903  21.344  0.00  0.00    +0.000 S 
ATOM     17  O   UNL     1       1.520  12.016  21.031  0.00  0.00    +0.000 OA
ATOM     18  O   UNL     1       0.967   9.966  22.403  0.00  0.00    +0.000 OA
BRANCH  16  22
ATOM     19  C   UNL     1      -3.441  12.654  22.433  0.00  0.00    +0.000 A 
ATOM     20  C   UNL     1      -2.688  11.948  23.379  0.00  0.00    +0.000 A 
ATOM     21  C   UNL     1      -1.435  11.425  23.054  0.00  0.00    +0.000 A 
ATOM     22  C   UNL     1      -0.930  11.615  21.770  0.00  0.00    +0.000 A 
ATOM     23  C   UNL     1      -1.666  12.312  20.808  0.00  0.00    +0.000 A 
ATOM     24  C   UNL     1      -2.924  12.822  21.141  0.00  0.00    +0.000 A 
BRANCH  19  28
ATOM     25  C   UNL     1      -6.449  14.551  23.685  0.00  0.00    +0.000 C 
ATOM     26  C   UNL     1      -4.976  14.309  23.487  0.00  0.00    +0.000 C 
ATOM     27  O   UNL     1      -4.152  15.061  23.993  0.00  0.00    +0.000 OA
ATOM     28  N   UNL     1      -4.713  13.194  22.710  0.00  0.00    +0.000 N 
ATOM     29  H   UNL     1      -5.501  12.768  22.238  0.00  0.00    +0.000 HD
ENDBRANCH  19  28
ENDBRANCH  16  22
ENDBRANCH   1  16
TORSDOF 6
ENDMDL
MODEL 6
REMARK VINA RESULT:      -7.7      0.296      1.322
REMARK  Name = 
REMARK  7 active torsions:
REMARK  status: ('A' for Active; 'I' for Inactive)
REMARK    1  A    between atoms: C_1  and  C_2
REMARK    2  A    between atoms: N_4  and  C_5
REMARK    3  A    between atoms: C_8  and  S_9
REMARK    4  A    between atoms: S_9  and  O_12
REMARK    5  A    between atoms: O_12  and  C_13
REMARK    6  A    between atoms: C_16  and  C_17
REMARK    7  A    between atoms: C_17  and  N_19
REMARK                            x       y       z     vdW  Elec       q    Type
REMARK                         _______ _______ _______ _____ _____    ______ ____
ROOT
ATOM      1  O   UNL     1       0.919   9.509  19.994  0.00  0.00    +0.000 OA
ENDROOT
BRANCH   1   2
ATOM      2  C   UNL     1       1.701   8.561  19.384  0.00  0.00    +0.000 A 
ATOM      3  C   UNL     1       2.188   8.661  18.082  0.00  0.00    +0.000 A 
ATOM      4  C   UNL     1       2.932   7.615  17.524  0.00  0.00    +0.000 A 
ATOM      5  C   UNL     1       3.226   6.468  18.272  0.00  0.00    +0.000 A 
ATOM      6  C   UNL     1       2.768   6.395  19.597  0.00  0.00    +0.000 A 
ATOM      7  C   UNL     1       2.014   7.438  20.150  0.00  0.00    +0.000 A 
BRANCH   5   8
ATOM      8  C   UNL     1       4.098   5.371  17.722  0.00  0.00    +0.000 C 
ATOM      9  S   UNL     1       5.582   5.668  16.978  0.00  0.00    +0.000 S 
BRANCH   8  10
ATOM     10  N   UNL     1       3.632   4.070  17.931  0.00  0.00    +0.000 N 
ATOM     11  C   UNL     1       2.379   3.595  17.345  0.00  0.00    +0.000 C 
ATOM     12  C   UNL     1       1.351   3.222  18.404  0.00  0.00    +0.000 C 
ATOM     13  C   UNL     1       1.950   2.271  19.438  0.00  0.00    +0.000 C 
ATOM     14  C   UNL     1       3.231   2.854  20.035  0.00  0.00    +0.000 C 
ATOM     15  C   UNL     1       4.244   3.208  18.942  0.00  0.00    +0.000 C 
ENDBRANCH   8  10
ENDBRANCH   5   8
ENDBRANCH   1   2
BRANCH   1  16
ATOM     16  S   UNL     1       0.450   9.350  21.553  0.00  0.00    +0.000 S 
ATOM     17  O   UNL     1       1.565   9.687  22.420  0.00  0.00    +0.000 OA
ATOM     18  O   UNL     1      -0.266   8.098  21.706  0.00  0.00    +0.000 OA
BRANCH  16  22
ATOM     19  C   UNL     1      -2.574  12.739  22.090  0.00  0.00    +0.000 A 
ATOM     20  C   UNL     1      -2.049  12.440  20.827  0.00  0.00    +0.000 A 
ATOM     21  C   UNL     1      -1.138  11.396  20.657  0.00  0.00    +0.000 A 
ATOM     22  C   UNL     1      -0.750  10.643  21.763  0.00  0.00    +0.000 A 
ATOM     23  C   UNL     1      -1.257  10.927  23.035  0.00  0.00    +0.000 A 
ATOM     24  C   UNL     1      -2.161  11.981  23.195  0.00  0.00    +0.000 A 
BRANCH  19  28
ATOM     25  C   UNL     1      -5.567  14.984  22.551  0.00  0.00    +0.000 C 
ATOM     26  C   UNL     1      -4.863  13.658  22.441  0.00  0.00    +0.000 C 
ATOM     27  O   UNL     1      -5.503  12.614  22.465  0.00  0.00    +0.000 OA
ATOM     28  N   UNL     1      -3.490  13.786  22.314  0.00  0.00    +0.000 N 
ATOM     29  H   UNL     1      -3.100  14.707  22.467  0.00  0.00    +0.000 HD
ENDBRANCH  19  28
ENDBRANCH  16  22
ENDBRANCH   1  16
TORSDOF 6
ENDMDL
MODEL 7
REMARK VINA RESULT:      -7.7      1.777      2.194
REMARK  Name = 
REMARK  7 active torsions:
REMARK  status: ('A' for Active; 'I' for Inactive)
REMARK    1  A    between atoms: C_1  and  C_2
REMARK    2  A    between atoms: N_4  and  C_5
REMARK    3  A    between atoms: C_8  and  S_9
REMARK    4  A    between atoms: S_9  and  O_12
REMARK    5  A    between atoms: O_12  and  C_13
REMARK    6  A    between atoms: C_16  and  C_17
REMARK    7  A    between atoms: C_17  and  N_19
REMARK                            x       y       z     vdW  Elec       q    Type
REMARK                         _______ _______ _______ _____ _____    ______ ____
ROOT
ATOM      1  O   UNL     1       0.737   9.513  20.189  0.00  0.00    +0.000 OA
ENDROOT
BRANCH   1   2
ATOM      2  C   UNL     1       1.538   8.598  19.556  0.00  0.00    +0.000 A 
ATOM      3  C   UNL     1       2.024   8.740  18.257  0.00  0.00    +0.000 A 
ATOM      4  C   UNL     1       2.790   7.724  17.675  0.00  0.00    +0.000 A 
ATOM      5  C   UNL     1       3.107   6.565  18.394  0.00  0.00    +0.000 A 
ATOM      6  C   UNL     1       2.650   6.450  19.716  0.00  0.00    +0.000 A 
ATOM      7  C   UNL     1       1.874   7.462  20.294  0.00  0.00    +0.000 A 
BRANCH   5   8
ATOM      8  C   UNL     1       4.001   5.500  17.818  0.00  0.00    +0.000 C 
ATOM      9  S   UNL     1       5.495   5.843  17.113  0.00  0.00    +0.000 S 
BRANCH   8  10
ATOM     10  N   UNL     1       3.548   4.187  17.968  0.00  0.00    +0.000 N 
ATOM     11  C   UNL     1       2.285   3.735  17.385  0.00  0.00    +0.000 C 
ATOM     12  C   UNL     1       1.283   3.299  18.445  0.00  0.00    +0.000 C 
ATOM     13  C   UNL     1       1.910   2.299  19.414  0.00  0.00    +0.000 C 
ATOM     14  C   UNL     1       3.200   2.859  20.014  0.00  0.00    +0.000 C 
ATOM     15  C   UNL     1       4.187   3.277  18.920  0.00  0.00    +0.000 C 
ENDBRANCH   8  10
ENDBRANCH   5   8
ENDBRANCH   1   2
BRANCH   1  16
ATOM     16  S   UNL     1       0.362   9.365  21.774  0.00  0.00    +0.000 S 
ATOM     17  O   UNL     1       1.589   9.295  22.546  0.00  0.00    +0.000 OA
ATOM     18  O   UNL     1      -0.675   8.361  21.922  0.00  0.00    +0.000 OA
BRANCH  16  22
ATOM     19  C   UNL     1      -1.502  13.398  22.860  0.00  0.00    +0.000 A 
ATOM     20  C   UNL     1      -0.453  13.318  21.936  0.00  0.00    +0.000 A 
ATOM     21  C   UNL     1       0.108  12.087  21.591  0.00  0.00    +0.000 A 
ATOM     22  C   UNL     1      -0.389  10.924  22.175  0.00  0.00    +0.000 A 
ATOM     23  C   UNL     1      -1.432  10.981  23.104  0.00  0.00    +0.000 A 
ATOM     24  C   UNL     1      -1.979  12.220  23.451  0.00  0.00    +0.000 A 
BRANCH  19  28
ATOM     25  C   UNL     1      -2.609  16.597  24.518  0.00  0.00    +0.000 C 
ATOM     26  C   UNL     1      -1.688  15.429  24.291  0.00  0.00    +0.000 C 
ATOM     27  O   UNL     1      -0.700  15.273  24.999  0.00  0.00    +0.000 OA
ATOM     28  N   UNL     1      -2.096  14.617  23.247  0.00  0.00    +0.000 N 
ATOM     29  H   UNL     1      -2.845  14.963  22.662  0.00  0.00    +0.000 HD
ENDBRANCH  19  28
ENDBRANCH  16  22
ENDBRANCH   1  16
TORSDOF 6
ENDMDL
MODEL 8
REMARK VINA RESULT:      -7.7      2.309      2.786
REMARK  Name = 
REMARK  7 active torsions:
REMARK  status: ('A' for Active; 'I' for Inactive)
REMARK    1  A    between atoms: C_1  and  C_2
REMARK    2  A    between atoms: N_4  and  C_5
REMARK    3  A    between atoms: C_8  and  S_9
REMARK    4  A    between atoms: S_9  and  O_12
REMARK    5  A    between atoms: O_12  and  C_13
REMARK    6  A    between atoms: C_16  and  C_17
REMARK    7  A    between atoms: C_17  and  N_19
REMARK                            x       y       z     vdW  Elec       q    Type
REMARK                         _______ _______ _______ _____ _____    ______ ____
ROOT
ATOM      1  O   UNL     1       1.263   9.700  18.446  0.00  0.00    +0.000 OA
ENDROOT
BRANCH   1   2
ATOM      2  C   UNL     1       1.946   8.526  18.634  0.00  0.00    +0.000 A 
ATOM      3  C   UNL     1       1.804   7.702  19.749  0.00  0.00    +0.000 A 
ATOM      4  C   UNL     1       2.587   6.549  19.880  0.00  0.00    +0.000 A 
ATOM      5  C   UNL     1       3.501   6.188  18.881  0.00  0.00    +0.000 A 
ATOM      6  C   UNL     1       3.605   7.000  17.741  0.00  0.00    +0.000 A 
ATOM      7  C   UNL     1       2.829   8.160  17.617  0.00  0.00    +0.000 A 
BRANCH   5   8
ATOM      8  C   UNL     1       4.288   4.908  18.960  0.00  0.00    +0.000 C 
ATOM      9  S   UNL     1       5.975   4.869  18.957  0.00  0.00    +0.000 S 
BRANCH   8  10
ATOM     10  N   UNL     1       3.531   3.743  19.112  0.00  0.00    +0.000 N 
ATOM     11  C   UNL     1       2.444   3.405  18.193  0.00  0.00    +0.000 C 
ATOM     12  C   UNL     1       1.092   3.357  18.891  0.00  0.00    +0.000 C 
ATOM     13  C   UNL     1       1.147   2.473  20.135  0.00  0.00    +0.000 C 
ATOM     14  C   UNL     1       2.278   2.915  21.065  0.00  0.00    +0.000 C 
ATOM     15  C   UNL     1       3.623   2.941  20.332  0.00  0.00    +0.000 C 
ENDBRANCH   8  10
ENDBRANCH   5   8
ENDBRANCH   1   2
BRANCH   1  16
ATOM     16  S   UNL     1       0.782  10.617  19.712  0.00  0.00    +0.000 S 
ATOM     17  O   UNL     1       1.553  11.848  19.725  0.00  0.00    +0.000 OA
ATOM     18  O   UNL     1       0.686   9.781  20.892  0.00  0.00    +0.000 OA
BRANCH  16  22
ATOM     19  C   UNL     1      -3.466  11.864  18.562  0.00  0.00    +0.000 A 
ATOM     20  C   UNL     1      -2.717  11.020  17.733  0.00  0.00    +0.000 A 
ATOM     21  C   UNL     1      -1.426  10.625  18.088  0.00  0.00    +0.000 A 
ATOM     22  C   UNL     1      -0.881  11.078  19.288  0.00  0.00    +0.000 A 
ATOM     23  C   UNL     1      -1.608  11.926  20.128  0.00  0.00    +0.000 A 
ATOM     24  C   UNL     1      -2.896  12.323  19.758  0.00  0.00    +0.000 A 
BRANCH  19  28
ATOM     25  C   UNL     1      -7.128  12.253  17.758  0.00  0.00    +0.000 C 
ATOM     26  C   UNL     1      -5.916  11.522  18.271  0.00  0.00    +0.000 C 
ATOM     27  O   UNL     1      -6.009  10.362  18.654  0.00  0.00    +0.000 OA
ATOM     28  N   UNL     1      -4.769  12.296  18.244  0.00  0.00    +0.000 N 
ATOM     29  H   UNL     1      -4.886  13.282  18.046  0.00  0.00    +0.000 HD
ENDBRANCH  19  28
ENDBRANCH  16  22
ENDBRANCH   1  16
TORSDOF 6
ENDMDL
MODEL 9
REMARK VINA RESULT:      -7.6      1.761      2.974
REMARK  Name = 
REMARK  7 active torsions:
REMARK  status: ('A' for Active; 'I' for Inactive)
REMARK    1  A    between atoms: C_1  and  C_2
REMARK    2  A    between atoms: N_4  and  C_5
REMARK    3  A    between atoms: C_8  and  S_9
REMARK    4  A    between atoms: S_9  and  O_12
REMARK    5  A    between atoms: O_12  and  C_13
REMARK    6  A    between atoms: C_16  and  C_17
REMARK    7  A    between atoms: C_17  and  N_19
REMARK                            x       y       z     vdW  Elec       q    Type
REMARK                         _______ _______ _______ _____ _____    ______ ____
ROOT
ATOM      1  O   UNL     1       1.323   9.218  20.097  0.00  0.00    +0.000 OA
ENDROOT
BRANCH   1   2
ATOM      2  C   UNL     1       1.841   8.068  19.558  0.00  0.00    +0.000 A 
ATOM      3  C   UNL     1       2.403   7.979  18.286  0.00  0.00    +0.000 A 
ATOM      4  C   UNL     1       2.856   6.747  17.799  0.00  0.00    +0.000 A 
ATOM      5  C   UNL     1       2.780   5.593  18.590  0.00  0.00    +0.000 A 
ATOM      6  C   UNL     1       2.252   5.702  19.886  0.00  0.00    +0.000 A 
ATOM      7  C   UNL     1       1.790   6.933  20.368  0.00  0.00    +0.000 A 
BRANCH   5   8
ATOM      8  C   UNL     1       3.340   4.278  18.119  0.00  0.00    +0.000 C 
ATOM      9  S   UNL     1       2.415   2.870  18.026  0.00  0.00    +0.000 S 
BRANCH   8  10
ATOM     10  N   UNL     1       4.669   4.309  17.690  0.00  0.00    +0.000 N 
ATOM     11  C   UNL     1       5.762   4.681  18.589  0.00  0.00    +0.000 C 
ATOM     12  C   UNL     1       6.478   5.946  18.134  0.00  0.00    +0.000 C 
ATOM     13  C   UNL     1       6.891   5.846  16.668  0.00  0.00    +0.000 C 
ATOM     14  C   UNL     1       5.690   5.496  15.788  0.00  0.00    +0.000 C 
ATOM     15  C   UNL     1       5.002   4.215  16.268  0.00  0.00    +0.000 C 
ENDBRANCH   8  10
ENDBRANCH   5   8
ENDBRANCH   1   2
BRANCH   1  16
ATOM     16  S   UNL     1       0.667  10.381  19.153  0.00  0.00    +0.000 S 
ATOM     17  O   UNL     1      -0.180   9.756  18.152  0.00  0.00    +0.000 OA
ATOM     18  O   UNL     1       1.703  11.323  18.776  0.00  0.00    +0.000 OA
BRANCH  16  22
ATOM     19  C   UNL     1      -2.195  12.546  21.988  0.00  0.00    +0.000 A 
ATOM     20  C   UNL     1      -1.324  11.559  22.465  0.00  0.00    +0.000 A 
ATOM     21  C   UNL     1      -0.438  10.908  21.605  0.00  0.00    +0.000 A 
ATOM     22  C   UNL     1      -0.423  11.250  20.254  0.00  0.00    +0.000 A 
ATOM     23  C   UNL     1      -1.289  12.227  19.756  0.00  0.00    +0.000 A 
ATOM     24  C   UNL     1      -2.179  12.867  20.624  0.00  0.00    +0.000 A 
BRANCH  19  28
ATOM     25  C   UNL     1      -5.190  14.016  23.743  0.00  0.00    +0.000 C 
ATOM     26  C   UNL     1      -4.485  13.047  22.833  0.00  0.00    +0.000 C 
ATOM     27  O   UNL     1      -5.124  12.213  22.202  0.00  0.00    +0.000 OA
ATOM     28  N   UNL     1      -3.113  13.227  22.814  0.00  0.00    +0.000 N 
ATOM     29  H   UNL     1      -2.723  13.854  23.507  0.00  0.00    +0.000 HD
ENDBRANCH  19  28
ENDBRANCH  16  22
ENDBRANCH   1  16
TORSDOF 6
ENDMDL
