MODEL 1
REMARK VINA RESULT:      -8.8      0.000      0.000
REMARK  Name = 
REMARK  5 active torsions:
REMARK  status: ('A' for Active; 'I' for Inactive)
REMARK    1  A    between atoms: C_2  and  C_13
REMARK    2  A    between atoms: N_3  and  C_4
REMARK    3  A    between atoms: C_18  and  S_19
REMARK    4  A    between atoms: S_19  and  N_22
REMARK    5  A    between atoms: C_25  and  O_26
REMARK                            x       y       z     vdW  Elec       q    Type
REMARK                         _______ _______ _______ _____ _____    ______ ____
ROOT
ATOM      1  C   UNL     1       7.887   7.961  18.190  0.00  0.00    +0.000 A 
ATOM      2  C   UNL     1       8.398   7.021  19.099  0.00  0.00    +0.000 A 
ATOM      3  C   UNL     1       8.021   5.681  19.014  0.00  0.00    +0.000 A 
ATOM      4  C   UNL     1       7.139   5.279  18.020  0.00  0.00    +0.000 A 
ATOM      5  F   UNL     1       6.798   3.986  17.955  0.00  0.00    +0.000 F 
ATOM      6  C   UNL     1       6.633   6.208  17.115  0.00  0.00    +0.000 A 
ATOM      7  C   UNL     1       7.000   7.559  17.189  0.00  0.00    +0.000 A 
ENDROOT
BRANCH   1   9
ATOM      8  O   UNL     1       7.985  10.142  17.448  0.00  0.00    +0.000 OA
ATOM      9  C   UNL     1       8.403   9.345  18.283  0.00  0.00    +0.000 C 
ATOM     10  N   UNL     1       9.348   9.608  19.261  0.00  0.00    +0.000 N 
ATOM     11  H   UNL     1       9.777   8.819  19.736  0.00  0.00    +0.000 HD
BRANCH  10  12
ATOM     12  C   UNL     1       9.922  10.883  19.482  0.00  0.00    +0.000 A 
ATOM     13  C   UNL     1      10.837  11.459  18.589  0.00  0.00    +0.000 A 
ATOM     14  C   UNL     1      11.431  12.684  18.876  0.00  0.00    +0.000 A 
ATOM     15  F   UNL     1      12.315  13.197  18.007  0.00  0.00    +0.000 F 
ATOM     16  C   UNL     1      11.118  13.361  20.040  0.00  0.00    +0.000 A 
ATOM     17  F   UNL     1      11.709  14.531  20.320  0.00  0.00    +0.000 F 
ATOM     18  C   UNL     1      10.189  12.815  20.911  0.00  0.00    +0.000 A 
ATOM     19  F   UNL     1       9.877  13.459  22.046  0.00  0.00    +0.000 F 
ATOM     20  C   UNL     1       9.576  11.587  20.638  0.00  0.00    +0.000 A 
ENDBRANCH  10  12
ENDBRANCH   1   9
BRANCH   6  21
ATOM     21  S   UNL     1       5.448   5.680  15.928  0.00  0.00    +0.000 S 
ATOM     22  O   UNL     1       5.180   6.814  15.069  0.00  0.00    +0.000 OA
ATOM     23  O   UNL     1       5.919   4.431  15.365  0.00  0.00    +0.000 OA
BRANCH  21  24
ATOM     24  N   UNL     1       4.036   5.313  16.847  0.00  0.00    +0.000 NA
ATOM     25  C   UNL     1       3.927   6.083  18.120  0.00  0.00    +0.000 C 
ATOM     26  C   UNL     1       2.636   5.755  18.857  0.00  0.00    +0.000 C 
ATOM     27  C   UNL     1       2.478   4.259  19.088  0.00  0.00    +0.000 C 
ATOM     28  C   UNL     1       2.581   3.505  17.771  0.00  0.00    +0.000 C 
ATOM     29  C   UNL     1       3.856   3.841  17.009  0.00  0.00    +0.000 C 
BRANCH  27  30
ATOM     30  O   UNL     1       3.430   3.783  20.035  0.00  0.00    +0.000 OA
ATOM     31  H   UNL     1       3.014   3.693  20.908  0.00  0.00    +0.000 HD
ENDBRANCH  27  30
ENDBRANCH  21  24
ENDBRANCH   6  21
TORSDOF 5
ENDMDL
MODEL 2
REMARK VINA RESULT:      -8.8      0.106      1.529
REMARK  Name = 
REMARK  5 active torsions:
REMARK  status: ('A' for Active; 'I' for Inactive)
REMARK    1  A    between atoms: C_2  and  C_13
REMARK    2  A    between atoms: N_3  and  C_4
REMARK    3  A    between atoms: C_18  and  S_19
REMARK    4  A    between atoms: S_19  and  N_22
REMARK    5  A    between atoms: C_25  and  O_26
REMARK                            x       y       z     vdW  Elec       q    Type
REMARK                         _______ _______ _______ _____ _____    ______ ____
ROOT
ATOM      1  C   UNL     1       7.912   7.960  18.211  0.00  0.00    +0.000 A 
ATOM      2  C   UNL     1       8.415   7.006  19.111  0.00  0.00    +0.000 A 
ATOM      3  C   UNL     1       8.029   5.670  19.013  0.00  0.00    +0.000 A 
ATOM      4  C   UNL     1       7.145   5.285  18.013  0.00  0.00    +0.000 A 
ATOM      5  F   UNL     1       6.796   3.995  17.934  0.00  0.00    +0.000 F 
ATOM      6  C   UNL     1       6.648   6.227  17.117  0.00  0.00    +0.000 A 
ATOM      7  C   UNL     1       7.023   7.574  17.205  0.00  0.00    +0.000 A 
ENDROOT
BRANCH   1   9
ATOM      8  O   UNL     1       8.042  10.143  17.480  0.00  0.00    +0.000 OA
ATOM      9  C   UNL     1       8.437   9.339  18.320  0.00  0.00    +0.000 C 
ATOM     10  N   UNL     1       9.366   9.590  19.316  0.00  0.00    +0.000 N 
ATOM     11  H   UNL     1       9.780   8.796  19.795  0.00  0.00    +0.000 HD
BRANCH  10  12
ATOM     12  C   UNL     1       9.947  10.860  19.552  0.00  0.00    +0.000 A 
ATOM     13  C   UNL     1       9.682  11.602  20.713  0.00  0.00    +0.000 A 
ATOM     14  C   UNL     1      10.219  12.875  20.877  0.00  0.00    +0.000 A 
ATOM     15  F   UNL     1       9.930  13.563  21.991  0.00  0.00    +0.000 F 
ATOM     16  C   UNL     1      11.033  13.425  19.904  0.00  0.00    +0.000 A 
ATOM     17  F   UNL     1      11.530  14.660  20.060  0.00  0.00    +0.000 F 
ATOM     18  C   UNL     1      11.327  12.684  18.770  0.00  0.00    +0.000 A 
ATOM     19  F   UNL     1      12.114  13.205  17.817  0.00  0.00    +0.000 F 
ATOM     20  C   UNL     1      10.803  11.399  18.590  0.00  0.00    +0.000 A 
ENDBRANCH  10  12
ENDBRANCH   1   9
BRANCH   6  21
ATOM     21  S   UNL     1       5.460   5.719  15.923  0.00  0.00    +0.000 S 
ATOM     22  O   UNL     1       5.199   6.865  15.077  0.00  0.00    +0.000 OA
ATOM     23  O   UNL     1       5.924   4.473  15.347  0.00  0.00    +0.000 OA
BRANCH  21  24
ATOM     24  N   UNL     1       4.045   5.351  16.836  0.00  0.00    +0.000 NA
ATOM     25  C   UNL     1       3.942   6.104  18.120  0.00  0.00    +0.000 C 
ATOM     26  C   UNL     1       2.647   5.776  18.852  0.00  0.00    +0.000 C 
ATOM     27  C   UNL     1       2.478   4.278  19.062  0.00  0.00    +0.000 C 
ATOM     28  C   UNL     1       2.576   3.540  17.735  0.00  0.00    +0.000 C 
ATOM     29  C   UNL     1       3.854   3.877  16.979  0.00  0.00    +0.000 C 
BRANCH  27  30
ATOM     30  O   UNL     1       3.426   3.782  20.004  0.00  0.00    +0.000 OA
ATOM     31  H   UNL     1       3.291   2.831  20.144  0.00  0.00    +0.000 HD
ENDBRANCH  27  30
ENDBRANCH  21  24
ENDBRANCH   6  21
TORSDOF 5
ENDMDL
MODEL 3
REMARK VINA RESULT:      -8.4      7.113     10.282
REMARK  Name = 
REMARK  5 active torsions:
REMARK  status: ('A' for Active; 'I' for Inactive)
REMARK    1  A    between atoms: C_2  and  C_13
REMARK    2  A    between atoms: N_3  and  C_4
REMARK    3  A    between atoms: C_18  and  S_19
REMARK    4  A    between atoms: S_19  and  N_22
REMARK    5  A    between atoms: C_25  and  O_26
REMARK                            x       y       z     vdW  Elec       q    Type
REMARK                         _______ _______ _______ _____ _____    ______ ____
ROOT
ATOM      1  C   UNL     1       1.099   8.676  20.731  0.00  0.00    +0.000 A 
ATOM      2  C   UNL     1       1.150   8.721  22.134  0.00  0.00    +0.000 A 
ATOM      3  C   UNL     1       0.475   9.720  22.833  0.00  0.00    +0.000 A 
ATOM      4  C   UNL     1      -0.255  10.672  22.133  0.00  0.00    +0.000 A 
ATOM      5  F   UNL     1      -0.900  11.617  22.827  0.00  0.00    +0.000 F 
ATOM      6  C   UNL     1      -0.310  10.629  20.743  0.00  0.00    +0.000 A 
ATOM      7  C   UNL     1       0.366   9.633  20.025  0.00  0.00    +0.000 A 
ENDROOT
BRANCH   1   9
ATOM      8  O   UNL     1       2.243   7.753  18.954  0.00  0.00    +0.000 OA
ATOM      9  C   UNL     1       1.763   7.534  20.063  0.00  0.00    +0.000 C 
ATOM     10  N   UNL     1       1.737   6.313  20.715  0.00  0.00    +0.000 N 
ATOM     11  H   UNL     1       1.116   6.209  21.512  0.00  0.00    +0.000 HD
BRANCH  10  12
ATOM     12  C   UNL     1       2.339   5.135  20.210  0.00  0.00    +0.000 A 
ATOM     13  C   UNL     1       1.643   3.923  20.103  0.00  0.00    +0.000 A 
ATOM     14  C   UNL     1       2.290   2.771  19.665  0.00  0.00    +0.000 A 
ATOM     15  F   UNL     1       1.597   1.625  19.593  0.00  0.00    +0.000 F 
ATOM     16  C   UNL     1       3.627   2.806  19.316  0.00  0.00    +0.000 A 
ATOM     17  F   UNL     1       4.249   1.689  18.914  0.00  0.00    +0.000 F 
ATOM     18  C   UNL     1       4.313   4.009  19.386  0.00  0.00    +0.000 A 
ATOM     19  F   UNL     1       5.611   4.058  19.052  0.00  0.00    +0.000 F 
ATOM     20  C   UNL     1       3.679   5.179  19.817  0.00  0.00    +0.000 A 
ENDBRANCH  10  12
ENDBRANCH   1   9
BRANCH   6  21
ATOM     21  S   UNL     1      -1.167  11.905  19.887  0.00  0.00    +0.000 S 
ATOM     22  O   UNL     1      -1.969  12.604  20.870  0.00  0.00    +0.000 OA
ATOM     23  O   UNL     1      -0.196  12.624  19.088  0.00  0.00    +0.000 OA
BRANCH  21  24
ATOM     24  N   UNL     1      -2.206  11.078  18.788  0.00  0.00    +0.000 NA
ATOM     25  C   UNL     1      -1.520  10.599  17.552  0.00  0.00    +0.000 C 
ATOM     26  C   UNL     1      -2.477   9.832  16.650  0.00  0.00    +0.000 C 
ATOM     27  C   UNL     1      -3.723  10.643  16.324  0.00  0.00    +0.000 C 
ATOM     28  C   UNL     1      -4.405  11.105  17.602  0.00  0.00    +0.000 C 
ATOM     29  C   UNL     1      -3.455  11.853  18.528  0.00  0.00    +0.000 C 
BRANCH  27  30
ATOM     30  O   UNL     1      -3.411  11.743  15.474  0.00  0.00    +0.000 OA
ATOM     31  H   UNL     1      -2.858  12.385  15.949  0.00  0.00    +0.000 HD
ENDBRANCH  27  30
ENDBRANCH  21  24
ENDBRANCH   6  21
TORSDOF 5
ENDMDL
MODEL 4
REMARK VINA RESULT:      -8.3      6.575      9.879
REMARK  Name = 
REMARK  5 active torsions:
REMARK  status: ('A' for Active; 'I' for Inactive)
REMARK    1  A    between atoms: C_2  and  C_13
REMARK    2  A    between atoms: N_3  and  C_4
REMARK    3  A    between atoms: C_18  and  S_19
REMARK    4  A    between atoms: S_19  and  N_22
REMARK    5  A    between atoms: C_25  and  O_26
REMARK                            x       y       z     vdW  Elec       q    Type
REMARK                         _______ _______ _______ _____ _____    ______ ____
ROOT
ATOM      1  C   UNL     1       1.214   8.851  20.293  0.00  0.00    +0.000 A 
ATOM      2  C   UNL     1       1.301   8.672  21.683  0.00  0.00    +0.000 A 
ATOM      3  C   UNL     1       0.515   9.436  22.544  0.00  0.00    +0.000 A 
ATOM      4  C   UNL     1      -0.361  10.377  22.017  0.00  0.00    +0.000 A 
ATOM      5  F   UNL     1      -1.111  11.093  22.864  0.00  0.00    +0.000 F 
ATOM      6  C   UNL     1      -0.452  10.555  20.640  0.00  0.00    +0.000 A 
ATOM      7  C   UNL     1       0.334   9.797  19.762  0.00  0.00    +0.000 A 
ENDROOT
BRANCH   1   9
ATOM      8  O   UNL     1       2.386   8.392  18.361  0.00  0.00    +0.000 OA
ATOM      9  C   UNL     1       2.011   7.941  19.440  0.00  0.00    +0.000 C 
ATOM     10  N   UNL     1       2.214   6.651  19.901  0.00  0.00    +0.000 N 
ATOM     11  H   UNL     1       1.663   6.334  20.694  0.00  0.00    +0.000 HD
BRANCH  10  12
ATOM     12  C   UNL     1       2.964   5.673  19.205  0.00  0.00    +0.000 A 
ATOM     13  C   UNL     1       4.350   5.535  19.367  0.00  0.00    +0.000 A 
ATOM     14  C   UNL     1       5.062   4.606  18.615  0.00  0.00    +0.000 A 
ATOM     15  F   UNL     1       6.389   4.513  18.783  0.00  0.00    +0.000 F 
ATOM     16  C   UNL     1       4.412   3.794  17.703  0.00  0.00    +0.000 A 
ATOM     17  F   UNL     1       5.107   2.915  16.967  0.00  0.00    +0.000 F 
ATOM     18  C   UNL     1       3.037   3.901  17.562  0.00  0.00    +0.000 A 
ATOM     19  F   UNL     1       2.394   3.121  16.681  0.00  0.00    +0.000 F 
ATOM     20  C   UNL     1       2.303   4.824  18.315  0.00  0.00    +0.000 A 
ENDBRANCH  10  12
ENDBRANCH   1   9
BRANCH   6  21
ATOM     21  S   UNL     1      -1.504  11.818  20.015  0.00  0.00    +0.000 S 
ATOM     22  O   UNL     1      -2.342  12.248  21.115  0.00  0.00    +0.000 OA
ATOM     23  O   UNL     1      -0.671  12.773  19.312  0.00  0.00    +0.000 OA
BRANCH  21  24
ATOM     24  N   UNL     1      -2.478  11.035  18.828  0.00  0.00    +0.000 NA
ATOM     25  C   UNL     1      -1.709  10.528  17.654  0.00  0.00    +0.000 C 
ATOM     26  C   UNL     1      -2.615   9.801  16.670  0.00  0.00    +0.000 C 
ATOM     27  C   UNL     1      -3.795  10.662  16.242  0.00  0.00    +0.000 C 
ATOM     28  C   UNL     1      -4.565  11.152  17.459  0.00  0.00    +0.000 C 
ATOM     29  C   UNL     1      -3.667  11.861  18.465  0.00  0.00    +0.000 C 
BRANCH  27  30
ATOM     30  O   UNL     1      -3.367  11.749  15.425  0.00  0.00    +0.000 OA
ATOM     31  H   UNL     1      -2.927  12.422  15.970  0.00  0.00    +0.000 HD
ENDBRANCH  27  30
ENDBRANCH  21  24
ENDBRANCH   6  21
TORSDOF 5
ENDMDL
MODEL 5
REMARK VINA RESULT:      -8.2      5.645      7.435
REMARK  Name = 
REMARK  5 active torsions:
REMARK  status: ('A' for Active; 'I' for Inactive)
REMARK    1  A    between atoms: C_2  and  C_13
REMARK    2  A    between atoms: N_3  and  C_4
REMARK    3  A    between atoms: C_18  and  S_19
REMARK    4  A    between atoms: S_19  and  N_22
REMARK    5  A    between atoms: C_25  and  O_26
REMARK                            x       y       z     vdW  Elec       q    Type
REMARK                         _______ _______ _______ _____ _____    ______ ____
ROOT
ATOM      1  C   UNL     1       2.390   7.163  19.048  0.00  0.00    +0.000 A 
ATOM      2  C   UNL     1       1.505   6.533  19.938  0.00  0.00    +0.000 A 
ATOM      3  C   UNL     1       1.850   5.322  20.538  0.00  0.00    +0.000 A 
ATOM      4  C   UNL     1       3.080   4.743  20.253  0.00  0.00    +0.000 A 
ATOM      5  F   UNL     1       3.391   3.585  20.848  0.00  0.00    +0.000 F 
ATOM      6  C   UNL     1       3.961   5.366  19.374  0.00  0.00    +0.000 A 
ATOM      7  C   UNL     1       3.627   6.581  18.760  0.00  0.00    +0.000 A 
ENDROOT
BRANCH   1   9
ATOM      8  O   UNL     1       2.362   8.756  17.381  0.00  0.00    +0.000 OA
ATOM      9  C   UNL     1       1.995   8.488  18.522  0.00  0.00    +0.000 C 
ATOM     10  N   UNL     1       1.300   9.330  19.374  0.00  0.00    +0.000 N 
ATOM     11  H   UNL     1       1.258   9.085  20.360  0.00  0.00    +0.000 HD
BRANCH  10  12
ATOM     12  C   UNL     1       0.844  10.620  19.011  0.00  0.00    +0.000 A 
ATOM     13  C   UNL     1       1.697  11.732  18.966  0.00  0.00    +0.000 A 
ATOM     14  C   UNL     1       1.196  12.997  18.670  0.00  0.00    +0.000 A 
ATOM     15  F   UNL     1       2.037  14.041  18.653  0.00  0.00    +0.000 F 
ATOM     16  C   UNL     1      -0.149  13.175  18.403  0.00  0.00    +0.000 A 
ATOM     17  F   UNL     1      -0.628  14.399  18.139  0.00  0.00    +0.000 F 
ATOM     18  C   UNL     1      -0.992  12.075  18.412  0.00  0.00    +0.000 A 
ATOM     19  F   UNL     1      -2.299  12.233  18.157  0.00  0.00    +0.000 F 
ATOM     20  C   UNL     1      -0.507  10.794  18.701  0.00  0.00    +0.000 A 
ENDBRANCH  10  12
ENDBRANCH   1   9
BRANCH   6  21
ATOM     21  S   UNL     1       5.468   4.557  18.967  0.00  0.00    +0.000 S 
ATOM     22  O   UNL     1       6.488   5.109  19.833  0.00  0.00    +0.000 OA
ATOM     23  O   UNL     1       5.210   3.132  18.955  0.00  0.00    +0.000 OA
BRANCH  21  24
ATOM     24  N   UNL     1       5.792   5.020  17.338  0.00  0.00    +0.000 NA
ATOM     25  C   UNL     1       4.711   4.649  16.379  0.00  0.00    +0.000 C 
ATOM     26  C   UNL     1       5.031   5.132  14.970  0.00  0.00    +0.000 C 
ATOM     27  C   UNL     1       6.395   4.646  14.499  0.00  0.00    +0.000 C 
ATOM     28  C   UNL     1       7.475   5.050  15.492  0.00  0.00    +0.000 C 
ATOM     29  C   UNL     1       7.157   4.596  16.910  0.00  0.00    +0.000 C 
BRANCH  27  30
ATOM     30  O   UNL     1       6.390   3.237  14.282  0.00  0.00    +0.000 OA
ATOM     31  H   UNL     1       5.581   2.846  14.650  0.00  0.00    +0.000 HD
ENDBRANCH  27  30
ENDBRANCH  21  24
ENDBRANCH   6  21
TORSDOF 5
ENDMDL
MODEL 6
REMARK VINA RESULT:      -8.2      6.860     10.037
REMARK  Name = 
REMARK  5 active torsions:
REMARK  status: ('A' for Active; 'I' for Inactive)
REMARK    1  A    between atoms: C_2  and  C_13
REMARK    2  A    between atoms: N_3  and  C_4
REMARK    3  A    between atoms: C_18  and  S_19
REMARK    4  A    between atoms: S_19  and  N_22
REMARK    5  A    between atoms: C_25  and  O_26
REMARK                            x       y       z     vdW  Elec       q    Type
REMARK                         _______ _______ _______ _____ _____    ______ ____
ROOT
ATOM      1  C   UNL     1       1.255   9.095  19.425  0.00  0.00    +0.000 A 
ATOM      2  C   UNL     1       1.146   8.626  20.744  0.00  0.00    +0.000 A 
ATOM      3  C   UNL     1       0.333   9.289  21.663  0.00  0.00    +0.000 A 
ATOM      4  C   UNL     1      -0.375  10.415  21.264  0.00  0.00    +0.000 A 
ATOM      5  F   UNL     1      -1.155  11.029  22.162  0.00  0.00    +0.000 F 
ATOM      6  C   UNL     1      -0.272  10.880  19.956  0.00  0.00    +0.000 A 
ATOM      7  C   UNL     1       0.544  10.228  19.022  0.00  0.00    +0.000 A 
ENDROOT
BRANCH   1   9
ATOM      8  O   UNL     1       2.255   8.775  17.372  0.00  0.00    +0.000 OA
ATOM      9  C   UNL     1       2.063   8.289  18.483  0.00  0.00    +0.000 C 
ATOM     10  N   UNL     1       2.482   7.040  18.911  0.00  0.00    +0.000 N 
ATOM     11  H   UNL     1       2.068   6.660  19.758  0.00  0.00    +0.000 HD
BRANCH  10  12
ATOM     12  C   UNL     1       3.271   6.161  18.130  0.00  0.00    +0.000 A 
ATOM     13  C   UNL     1       4.383   6.602  17.397  0.00  0.00    +0.000 A 
ATOM     14  C   UNL     1       5.093   5.720  16.588  0.00  0.00    +0.000 A 
ATOM     15  F   UNL     1       6.140   6.180  15.888  0.00  0.00    +0.000 F 
ATOM     16  C   UNL     1       4.721   4.391  16.503  0.00  0.00    +0.000 A 
ATOM     17  F   UNL     1       5.396   3.551  15.706  0.00  0.00    +0.000 F 
ATOM     18  C   UNL     1       3.644   3.940  17.251  0.00  0.00    +0.000 A 
ATOM     19  F   UNL     1       3.271   2.654  17.177  0.00  0.00    +0.000 F 
ATOM     20  C   UNL     1       2.922   4.810  18.075  0.00  0.00    +0.000 A 
ENDBRANCH  10  12
ENDBRANCH   1   9
BRANCH   6  21
ATOM     21  S   UNL     1      -1.109  12.362  19.513  0.00  0.00    +0.000 S 
ATOM     22  O   UNL     1      -0.852  13.320  20.567  0.00  0.00    +0.000 OA
ATOM     23  O   UNL     1      -0.758  12.669  18.142  0.00  0.00    +0.000 OA
BRANCH  21  24
ATOM     24  N   UNL     1      -2.781  11.943  19.519  0.00  0.00    +0.000 NA
ATOM     25  C   UNL     1      -3.327  11.613  18.170  0.00  0.00    +0.000 C 
ATOM     26  C   UNL     1      -4.790  11.200  18.251  0.00  0.00    +0.000 C 
ATOM     27  C   UNL     1      -5.638  12.246  18.961  0.00  0.00    +0.000 C 
ATOM     28  C   UNL     1      -5.063  12.550  20.336  0.00  0.00    +0.000 C 
ATOM     29  C   UNL     1      -3.592  12.941  20.277  0.00  0.00    +0.000 C 
BRANCH  27  30
ATOM     30  O   UNL     1      -5.758  13.429  18.175  0.00  0.00    +0.000 OA
ATOM     31  H   UNL     1      -6.447  13.311  17.501  0.00  0.00    +0.000 HD
ENDBRANCH  27  30
ENDBRANCH  21  24
ENDBRANCH   6  21
TORSDOF 5
ENDMDL
MODEL 7
REMARK VINA RESULT:      -8.2      5.436      7.400
REMARK  Name = 
REMARK  5 active torsions:
REMARK  status: ('A' for Active; 'I' for Inactive)
REMARK    1  A    between atoms: C_2  and  C_13
REMARK    2  A    between atoms: N_3  and  C_4
REMARK    3  A    between atoms: C_18  and  S_19
REMARK    4  A    between atoms: S_19  and  N_22
REMARK    5  A    between atoms: C_25  and  O_26
REMARK                            x       y       z     vdW  Elec       q    Type
REMARK                         _______ _______ _______ _____ _____    ______ ____
ROOT
ATOM      1  C   UNL     1       2.131   6.962  18.978  0.00  0.00    +0.000 A 
ATOM      2  C   UNL     1       2.022   6.750  20.362  0.00  0.00    +0.000 A 
ATOM      3  C   UNL     1       2.356   5.514  20.915  0.00  0.00    +0.000 A 
ATOM      4  C   UNL     1       2.804   4.492  20.087  0.00  0.00    +0.000 A 
ATOM      5  F   UNL     1       3.126   3.318  20.643  0.00  0.00    +0.000 F 
ATOM      6  C   UNL     1       2.916   4.700  18.716  0.00  0.00    +0.000 A 
ATOM      7  C   UNL     1       2.580   5.935  18.144  0.00  0.00    +0.000 A 
ENDROOT
BRANCH   1   9
ATOM      8  O   UNL     1       2.332   8.618  17.386  0.00  0.00    +0.000 OA
ATOM      9  C   UNL     1       1.847   8.325  18.475  0.00  0.00    +0.000 C 
ATOM     10  N   UNL     1       1.113   9.165  19.295  0.00  0.00    +0.000 N 
ATOM     11  H   UNL     1       0.967   8.885  20.260  0.00  0.00    +0.000 HD
BRANCH  10  12
ATOM     12  C   UNL     1       0.751  10.489  18.947  0.00  0.00    +0.000 A 
ATOM     13  C   UNL     1       1.688  11.530  18.880  0.00  0.00    +0.000 A 
ATOM     14  C   UNL     1       1.282  12.831  18.601  0.00  0.00    +0.000 A 
ATOM     15  F   UNL     1       2.203  13.806  18.562  0.00  0.00    +0.000 F 
ATOM     16  C   UNL     1      -0.051  13.118  18.372  0.00  0.00    +0.000 A 
ATOM     17  F   UNL     1      -0.438  14.377  18.123  0.00  0.00    +0.000 F 
ATOM     18  C   UNL     1      -0.979  12.088  18.402  0.00  0.00    +0.000 A 
ATOM     19  F   UNL     1      -2.276  12.350  18.184  0.00  0.00    +0.000 F 
ATOM     20  C   UNL     1      -0.590  10.772  18.675  0.00  0.00    +0.000 A 
ENDBRANCH  10  12
ENDBRANCH   1   9
BRANCH   6  21
ATOM     21  S   UNL     1       3.398   3.355  17.690  0.00  0.00    +0.000 S 
ATOM     22  O   UNL     1       3.481   2.187  18.541  0.00  0.00    +0.000 OA
ATOM     23  O   UNL     1       2.528   3.356  16.531  0.00  0.00    +0.000 OA
BRANCH  21  24
ATOM     24  N   UNL     1       4.975   3.768  17.131  0.00  0.00    +0.000 NA
ATOM     25  C   UNL     1       5.824   4.438  18.159  0.00  0.00    +0.000 C 
ATOM     26  C   UNL     1       7.219   4.728  17.622  0.00  0.00    +0.000 C 
ATOM     27  C   UNL     1       7.175   5.521  16.324  0.00  0.00    +0.000 C 
ATOM     28  C   UNL     1       6.313   4.806  15.294  0.00  0.00    +0.000 C 
ATOM     29  C   UNL     1       4.922   4.486  15.824  0.00  0.00    +0.000 C 
BRANCH  27  30
ATOM     30  O   UNL     1       6.717   6.851  16.551  0.00  0.00    +0.000 OA
ATOM     31  H   UNL     1       5.747   6.878  16.525  0.00  0.00    +0.000 HD
ENDBRANCH  27  30
ENDBRANCH  21  24
ENDBRANCH   6  21
TORSDOF 5
ENDMDL
MODEL 8
REMARK VINA RESULT:      -8.2      7.094     10.411
REMARK  Name = 
REMARK  5 active torsions:
REMARK  status: ('A' for Active; 'I' for Inactive)
REMARK    1  A    between atoms: C_2  and  C_13
REMARK    2  A    between atoms: N_3  and  C_4
REMARK    3  A    between atoms: C_18  and  S_19
REMARK    4  A    between atoms: S_19  and  N_22
REMARK    5  A    between atoms: C_25  and  O_26
REMARK                            x       y       z     vdW  Elec       q    Type
REMARK                         _______ _______ _______ _____ _____    ______ ____
ROOT
ATOM      1  C   UNL     1       1.080   8.839  20.615  0.00  0.00    +0.000 A 
ATOM      2  C   UNL     1       1.049   8.881  22.018  0.00  0.00    +0.000 A 
ATOM      3  C   UNL     1       0.378   9.910  22.679  0.00  0.00    +0.000 A 
ATOM      4  C   UNL     1      -0.266  10.893  21.938  0.00  0.00    +0.000 A 
ATOM      5  F   UNL     1      -0.910  11.865  22.595  0.00  0.00    +0.000 F 
ATOM      6  C   UNL     1      -0.240  10.852  20.547  0.00  0.00    +0.000 A 
ATOM      7  C   UNL     1       0.433   9.826  19.869  0.00  0.00    +0.000 A 
ENDROOT
BRANCH   1   9
ATOM      8  O   UNL     1       2.133   7.819  18.834  0.00  0.00    +0.000 OA
ATOM      9  C   UNL     1       1.732   7.669  19.985  0.00  0.00    +0.000 C 
ATOM     10  N   UNL     1       1.784   6.496  20.721  0.00  0.00    +0.000 N 
ATOM     11  H   UNL     1       1.219   6.434  21.563  0.00  0.00    +0.000 HD
BRANCH  10  12
ATOM     12  C   UNL     1       2.386   5.301  20.260  0.00  0.00    +0.000 A 
ATOM     13  C   UNL     1       3.710   5.257  19.799  0.00  0.00    +0.000 A 
ATOM     14  C   UNL     1       4.244   4.076  19.291  0.00  0.00    +0.000 A 
ATOM     15  F   UNL     1       5.508   4.075  18.843  0.00  0.00    +0.000 F 
ATOM     16  C   UNL     1       3.482   2.924  19.243  0.00  0.00    +0.000 A 
ATOM     17  F   UNL     1       3.996   1.795  18.734  0.00  0.00    +0.000 F 
ATOM     18  C   UNL     1       2.183   2.951  19.729  0.00  0.00    +0.000 A 
ATOM     19  F   UNL     1       1.431   1.841  19.687  0.00  0.00    +0.000 F 
ATOM     20  C   UNL     1       1.630   4.126  20.249  0.00  0.00    +0.000 A 
ENDBRANCH  10  12
ENDBRANCH   1   9
BRANCH   6  21
ATOM     21  S   UNL     1      -0.988  12.163  19.645  0.00  0.00    +0.000 S 
ATOM     22  O   UNL     1      -1.250  13.227  20.591  0.00  0.00    +0.000 OA
ATOM     23  O   UNL     1      -0.172  12.409  18.473  0.00  0.00    +0.000 OA
BRANCH  21  24
ATOM     24  N   UNL     1      -2.484  11.517  19.085  0.00  0.00    +0.000 NA
ATOM     25  C   UNL     1      -2.478  11.143  17.640  0.00  0.00    +0.000 C 
ATOM     26  C   UNL     1      -3.808  10.530  17.221  0.00  0.00    +0.000 C 
ATOM     27  C   UNL     1      -4.984  11.434  17.564  0.00  0.00    +0.000 C 
ATOM     28  C   UNL     1      -4.968  11.786  19.044  0.00  0.00    +0.000 C 
ATOM     29  C   UNL     1      -3.636  12.378  19.485  0.00  0.00    +0.000 C 
BRANCH  27  30
ATOM     30  O   UNL     1      -4.984  12.604  16.751  0.00  0.00    +0.000 OA
ATOM     31  H   UNL     1      -4.183  13.127  16.919  0.00  0.00    +0.000 HD
ENDBRANCH  27  30
ENDBRANCH  21  24
ENDBRANCH   6  21
TORSDOF 5
ENDMDL
MODEL 9
REMARK VINA RESULT:      -8.2      6.411      9.764
REMARK  Name = 
REMARK  5 active torsions:
REMARK  status: ('A' for Active; 'I' for Inactive)
REMARK    1  A    between atoms: C_2  and  C_13
REMARK    2  A    between atoms: N_3  and  C_4
REMARK    3  A    between atoms: C_18  and  S_19
REMARK    4  A    between atoms: S_19  and  N_22
REMARK    5  A    between atoms: C_25  and  O_26
REMARK                            x       y       z     vdW  Elec       q    Type
REMARK                         _______ _______ _______ _____ _____    ______ ____
ROOT
ATOM      1  C   UNL     1       0.974   8.737  20.840  0.00  0.00    +0.000 A 
ATOM      2  C   UNL     1       0.904   8.796  22.242  0.00  0.00    +0.000 A 
ATOM      3  C   UNL     1       0.148   9.784  22.870  0.00  0.00    +0.000 A 
ATOM      4  C   UNL     1      -0.543  10.711  22.099  0.00  0.00    +0.000 A 
ATOM      5  F   UNL     1      -1.269  11.645  22.725  0.00  0.00    +0.000 F 
ATOM      6  C   UNL     1      -0.479  10.653  20.710  0.00  0.00    +0.000 A 
ATOM      7  C   UNL     1       0.280   9.668  20.064  0.00  0.00    +0.000 A 
ENDROOT
BRANCH   1   9
ATOM      8  O   UNL     1       1.886   6.622  20.960  0.00  0.00    +0.000 OA
ATOM      9  C   UNL     1       1.721   7.606  20.245  0.00  0.00    +0.000 C 
ATOM     10  N   UNL     1       2.215   7.775  18.962  0.00  0.00    +0.000 N 
ATOM     11  H   UNL     1       2.210   8.711  18.567  0.00  0.00    +0.000 HD
BRANCH  10  12
ATOM     12  C   UNL     1       2.935   6.781  18.256  0.00  0.00    +0.000 A 
ATOM     13  C   UNL     1       4.128   7.062  17.575  0.00  0.00    +0.000 A 
ATOM     14  C   UNL     1       4.771   6.072  16.836  0.00  0.00    +0.000 A 
ATOM     15  F   UNL     1       5.900   6.380  16.182  0.00  0.00    +0.000 F 
ATOM     16  C   UNL     1       4.250   4.793  16.773  0.00  0.00    +0.000 A 
ATOM     17  F   UNL     1       4.863   3.850  16.043  0.00  0.00    +0.000 F 
ATOM     18  C   UNL     1       3.089   4.500  17.472  0.00  0.00    +0.000 A 
ATOM     19  F   UNL     1       2.571   3.264  17.418  0.00  0.00    +0.000 F 
ATOM     20  C   UNL     1       2.432   5.479  18.225  0.00  0.00    +0.000 A 
ENDBRANCH  10  12
ENDBRANCH   1   9
BRANCH   6  21
ATOM     21  S   UNL     1      -1.291  11.898  19.770  0.00  0.00    +0.000 S 
ATOM     22  O   UNL     1      -2.150  12.621  20.685  0.00  0.00    +0.000 OA
ATOM     23  O   UNL     1      -0.279  12.600  19.007  0.00  0.00    +0.000 OA
BRANCH  21  24
ATOM     24  N   UNL     1      -2.262  11.034  18.638  0.00  0.00    +0.000 NA
ATOM     25  C   UNL     1      -1.539  10.650  17.391  0.00  0.00    +0.000 C 
ATOM     26  C   UNL     1      -2.433   9.845  16.458  0.00  0.00    +0.000 C 
ATOM     27  C   UNL     1      -3.736  10.570  16.153  0.00  0.00    +0.000 C 
ATOM     28  C   UNL     1      -4.454  10.936  17.443  0.00  0.00    +0.000 C 
ATOM     29  C   UNL     1      -3.566  11.721  18.399  0.00  0.00    +0.000 C 
BRANCH  27  30
ATOM     30  O   UNL     1      -3.506  11.720  15.343  0.00  0.00    +0.000 OA
ATOM     31  H   UNL     1      -4.343  12.182  15.174  0.00  0.00    +0.000 HD
ENDBRANCH  27  30
ENDBRANCH  21  24
ENDBRANCH   6  21
TORSDOF 5
ENDMDL
