MODEL 1
REMARK VINA RESULT:      -8.7      0.000      0.000
REMARK  Name = 
REMARK  7 active torsions:
REMARK  status: ('A' for Active; 'I' for Inactive)
REMARK    1  A    between atoms: O_1  and  C_2
REMARK    2  A    between atoms: C_4  and  C_5
REMARK    3  A    between atoms: C_5  and  S_6
REMARK    4  A    between atoms: S_6  and  C_7
REMARK    5  A    between atoms: C_10  and  C_11
REMARK    6  A    between atoms: N_17  and  C_18
REMARK    7  A    between atoms: C_18  and  C_19
REMARK                            x       y       z     vdW  Elec       q    Type
REMARK                         _______ _______ _______ _____ _____    ______ ____
ROOT
ATOM      1  C   UNL     1       6.799   6.463  18.077  0.00  0.00    +0.000 A 
ATOM      2  N   UNL     1       7.012   5.880  19.230  0.00  0.00    +0.000 NA
ATOM      3  N   UNL     1       6.028   4.931  19.405  0.00  0.00    +0.000 NA
ATOM      4  C   UNL     1       5.227   4.929  18.348  0.00  0.00    +0.000 A 
ATOM      5  N   UNL     1       5.716   5.882  17.460  0.00  0.00    +0.000 N 
ENDROOT
BRANCH   4   6
ATOM      6  C   UNL     1       3.977   4.147  18.242  0.00  0.00    +0.000 A 
ATOM      7  C   UNL     1       2.757   4.772  18.527  0.00  0.00    +0.000 A 
ATOM      8  C   UNL     1       1.576   4.061  18.365  0.00  0.00    +0.000 A 
ATOM      9  N   UNL     1       1.521   2.784  17.938  0.00  0.00    +0.000 NA
ATOM     10  C   UNL     1       2.701   2.186  17.688  0.00  0.00    +0.000 A 
ATOM     11  C   UNL     1       3.933   2.807  17.846  0.00  0.00    +0.000 A 
ENDBRANCH   4   6
BRANCH   1  12
ATOM     12  S   UNL     1       7.688   7.790  17.400  0.00  0.00    +0.000 S 
BRANCH  12  13
ATOM     13  C   UNL     1       8.629   8.443  18.821  0.00  0.00    +0.000 C 
BRANCH  13  16
ATOM     14  C   UNL     1       8.434  11.928  17.691  0.00  0.00    +0.000 A 
ATOM     15  N   UNL     1       8.144  10.623  17.790  0.00  0.00    +0.000 NA
ATOM     16  C   UNL     1       8.886   9.935  18.679  0.00  0.00    +0.000 A 
ATOM     17  N   UNL     1       9.859  10.488  19.441  0.00  0.00    +0.000 NA
ATOM     18  C   UNL     1      10.111  11.804  19.304  0.00  0.00    +0.000 A 
ATOM     19  C   UNL     1      11.107  12.414  20.062  0.00  0.00    +0.000 A 
ATOM     20  C   UNL     1      11.409  13.780  19.946  0.00  0.00    +0.000 A 
ATOM     21  C   UNL     1      10.698  14.571  19.054  0.00  0.00    +0.000 A 
ATOM     22  C   UNL     1       9.693  13.992  18.284  0.00  0.00    +0.000 A 
ATOM     23  C   UNL     1       9.406  12.609  18.411  0.00  0.00    +0.000 A 
BRANCH  14  24
ATOM     24  O   UNL     1       7.660  12.581  16.783  0.00  0.00    +0.000 OA
ATOM     25  H   UNL     1       8.239  13.328  16.557  0.00  0.00    +0.000 HD
ENDBRANCH  14  24
ENDBRANCH  13  16
ENDBRANCH  12  13
ENDBRANCH   1  12
BRANCH   5  26
ATOM     26  C   UNL     1       5.150   6.258  16.177  0.00  0.00    +0.000 C 
BRANCH  26  27
ATOM     27  C   UNL     1       5.647   5.386  15.085  0.00  0.00    +0.000 A 
ATOM     28  C   UNL     1       5.151   4.263  14.454  0.00  0.00    +0.000 A 
ATOM     29  C   UNL     1       6.160   3.831  13.562  0.00  0.00    +0.000 A 
ATOM     30  C   UNL     1       7.192   4.732  13.682  0.00  0.00    +0.000 A 
ATOM     31  O   UNL     1       6.886   5.686  14.598  0.00  0.00    +0.000 OA
ENDBRANCH  26  27
ENDBRANCH   5  26
TORSDOF 7
ENDMDL
MODEL 2
REMARK VINA RESULT:      -8.1      5.848      8.766
REMARK  Name = 
REMARK  7 active torsions:
REMARK  status: ('A' for Active; 'I' for Inactive)
REMARK    1  A    between atoms: O_1  and  C_2
REMARK    2  A    between atoms: C_4  and  C_5
REMARK    3  A    between atoms: C_5  and  S_6
REMARK    4  A    between atoms: S_6  and  C_7
REMARK    5  A    between atoms: C_10  and  C_11
REMARK    6  A    between atoms: N_17  and  C_18
REMARK    7  A    between atoms: C_18  and  C_19
REMARK                            x       y       z     vdW  Elec       q    Type
REMARK                         _______ _______ _______ _____ _____    ______ ____
ROOT
ATOM      1  C   UNL     1       2.331   7.919  18.628  0.00  0.00    +0.000 A 
ATOM      2  N   UNL     1       2.532   8.591  17.522  0.00  0.00    +0.000 NA
ATOM      3  N   UNL     1       3.558   7.974  16.840  0.00  0.00    +0.000 NA
ATOM      4  C   UNL     1       3.968   6.916  17.527  0.00  0.00    +0.000 A 
ATOM      5  N   UNL     1       3.176   6.835  18.668  0.00  0.00    +0.000 N 
ENDROOT
BRANCH   4   6
ATOM      6  C   UNL     1       5.146   6.094  17.180  0.00  0.00    +0.000 A 
ATOM      7  C   UNL     1       6.319   6.232  17.932  0.00  0.00    +0.000 A 
ATOM      8  C   UNL     1       7.406   5.416  17.653  0.00  0.00    +0.000 A 
ATOM      9  N   UNL     1       7.409   4.474  16.689  0.00  0.00    +0.000 NA
ATOM     10  C   UNL     1       6.284   4.364  15.957  0.00  0.00    +0.000 A 
ATOM     11  C   UNL     1       5.157   5.154  16.146  0.00  0.00    +0.000 A 
ENDBRANCH   4   6
BRANCH   1  12
ATOM     12  S   UNL     1       1.216   8.311  19.897  0.00  0.00    +0.000 S 
BRANCH  12  13
ATOM     13  C   UNL     1       1.101  10.130  19.819  0.00  0.00    +0.000 C 
BRANCH  13  16
ATOM     14  C   UNL     1      -2.159  11.780  19.485  0.00  0.00    +0.000 A 
ATOM     15  N   UNL     1      -0.972  11.441  20.007  0.00  0.00    +0.000 NA
ATOM     16  C   UNL     1      -0.245  10.579  19.270  0.00  0.00    +0.000 A 
ATOM     17  N   UNL     1      -0.647  10.075  18.081  0.00  0.00    +0.000 NA
ATOM     18  C   UNL     1      -1.849  10.448  17.599  0.00  0.00    +0.000 A 
ATOM     19  C   UNL     1      -2.307   9.950  16.383  0.00  0.00    +0.000 A 
ATOM     20  C   UNL     1      -3.556  10.304  15.848  0.00  0.00    +0.000 A 
ATOM     21  C   UNL     1      -4.377  11.186  16.536  0.00  0.00    +0.000 A 
ATOM     22  C   UNL     1      -3.946  11.705  17.754  0.00  0.00    +0.000 A 
ATOM     23  C   UNL     1      -2.684  11.331  18.281  0.00  0.00    +0.000 A 
BRANCH  14  24
ATOM     24  O   UNL     1      -2.856  12.652  20.263  0.00  0.00    +0.000 OA
ATOM     25  H   UNL     1      -2.219  12.800  20.982  0.00  0.00    +0.000 HD
ENDBRANCH  14  24
ENDBRANCH  13  16
ENDBRANCH  12  13
ENDBRANCH   1  12
BRANCH   5  26
ATOM     26  C   UNL     1       3.275   5.858  19.738  0.00  0.00    +0.000 C 
BRANCH  26  27
ATOM     27  C   UNL     1       2.412   4.679  19.480  0.00  0.00    +0.000 A 
ATOM     28  C   UNL     1       2.237   3.838  18.399  0.00  0.00    +0.000 A 
ATOM     29  C   UNL     1       1.177   2.966  18.744  0.00  0.00    +0.000 A 
ATOM     30  C   UNL     1       0.795   3.310  20.019  0.00  0.00    +0.000 A 
ATOM     31  O   UNL     1       1.547   4.343  20.479  0.00  0.00    +0.000 OA
ENDBRANCH  26  27
ENDBRANCH   5  26
TORSDOF 7
ENDMDL
MODEL 3
REMARK VINA RESULT:      -7.9      4.231      7.144
REMARK  Name = 
REMARK  7 active torsions:
REMARK  status: ('A' for Active; 'I' for Inactive)
REMARK    1  A    between atoms: O_1  and  C_2
REMARK    2  A    between atoms: C_4  and  C_5
REMARK    3  A    between atoms: C_5  and  S_6
REMARK    4  A    between atoms: S_6  and  C_7
REMARK    5  A    between atoms: C_10  and  C_11
REMARK    6  A    between atoms: N_17  and  C_18
REMARK    7  A    between atoms: C_18  and  C_19
REMARK                            x       y       z     vdW  Elec       q    Type
REMARK                         _______ _______ _______ _____ _____    ______ ____
ROOT
ATOM      1  C   UNL     1       3.929   4.830  17.623  0.00  0.00    +0.000 A 
ATOM      2  N   UNL     1       3.753   3.542  17.469  0.00  0.00    +0.000 NA
ATOM      3  N   UNL     1       4.476   3.152  16.362  0.00  0.00    +0.000 NA
ATOM      4  C   UNL     1       5.104   4.204  15.855  0.00  0.00    +0.000 A 
ATOM      5  N   UNL     1       4.799   5.294  16.663  0.00  0.00    +0.000 N 
ENDROOT
BRANCH   4   6
ATOM      6  C   UNL     1       5.858   4.200  14.584  0.00  0.00    +0.000 A 
ATOM      7  C   UNL     1       5.342   3.495  13.489  0.00  0.00    +0.000 A 
ATOM      8  C   UNL     1       6.012   3.542  12.274  0.00  0.00    +0.000 A 
ATOM      9  N   UNL     1       7.147   4.240  12.069  0.00  0.00    +0.000 NA
ATOM     10  C   UNL     1       7.645   4.896  13.134  0.00  0.00    +0.000 A 
ATOM     11  C   UNL     1       7.061   4.886  14.394  0.00  0.00    +0.000 A 
ENDBRANCH   4   6
BRANCH   1  12
ATOM     12  S   UNL     1       3.180   5.850  18.809  0.00  0.00    +0.000 S 
BRANCH  12  13
ATOM     13  C   UNL     1       2.811   7.379  17.886  0.00  0.00    +0.000 C 
BRANCH  13  16
ATOM     14  C   UNL     1       0.414  10.023  18.739  0.00  0.00    +0.000 A 
ATOM     15  N   UNL     1       1.196   9.232  17.991  0.00  0.00    +0.000 NA
ATOM     16  C   UNL     1       1.882   8.293  18.671  0.00  0.00    +0.000 A 
ATOM     17  N   UNL     1       1.808   8.124  20.012  0.00  0.00    +0.000 NA
ATOM     18  C   UNL     1       1.007   8.944  20.718  0.00  0.00    +0.000 A 
ATOM     19  C   UNL     1       0.904   8.813  22.100  0.00  0.00    +0.000 A 
ATOM     20  C   UNL     1       0.089   9.651  22.877  0.00  0.00    +0.000 A 
ATOM     21  C   UNL     1      -0.655  10.651  22.265  0.00  0.00    +0.000 A 
ATOM     22  C   UNL     1      -0.578  10.805  20.884  0.00  0.00    +0.000 A 
ATOM     23  C   UNL     1       0.256   9.953  20.117  0.00  0.00    +0.000 A 
BRANCH  14  24
ATOM     24  O   UNL     1      -0.259  10.954  18.011  0.00  0.00    +0.000 OA
ATOM     25  H   UNL     1      -1.160  10.833  18.353  0.00  0.00    +0.000 HD
ENDBRANCH  14  24
ENDBRANCH  13  16
ENDBRANCH  12  13
ENDBRANCH   1  12
BRANCH   5  26
ATOM     26  C   UNL     1       5.232   6.668  16.484  0.00  0.00    +0.000 C 
BRANCH  26  27
ATOM     27  C   UNL     1       6.476   6.950  17.243  0.00  0.00    +0.000 A 
ATOM     28  C   UNL     1       7.202   6.251  18.187  0.00  0.00    +0.000 A 
ATOM     29  C   UNL     1       8.238   7.116  18.609  0.00  0.00    +0.000 A 
ATOM     30  C   UNL     1       8.098   8.271  17.878  0.00  0.00    +0.000 A 
ATOM     31  O   UNL     1       7.036   8.177  17.038  0.00  0.00    +0.000 OA
ENDBRANCH  26  27
ENDBRANCH   5  26
TORSDOF 7
ENDMDL
MODEL 4
REMARK VINA RESULT:      -7.8      5.706      8.127
REMARK  Name = 
REMARK  7 active torsions:
REMARK  status: ('A' for Active; 'I' for Inactive)
REMARK    1  A    between atoms: O_1  and  C_2
REMARK    2  A    between atoms: C_4  and  C_5
REMARK    3  A    between atoms: C_5  and  S_6
REMARK    4  A    between atoms: S_6  and  C_7
REMARK    5  A    between atoms: C_10  and  C_11
REMARK    6  A    between atoms: N_17  and  C_18
REMARK    7  A    between atoms: C_18  and  C_19
REMARK                            x       y       z     vdW  Elec       q    Type
REMARK                         _______ _______ _______ _____ _____    ______ ____
ROOT
ATOM      1  C   UNL     1       2.375   7.202  19.322  0.00  0.00    +0.000 A 
ATOM      2  N   UNL     1       2.513   8.142  18.421  0.00  0.00    +0.000 NA
ATOM      3  N   UNL     1       3.530   7.759  17.573  0.00  0.00    +0.000 NA
ATOM      4  C   UNL     1       3.996   6.578  17.952  0.00  0.00    +0.000 A 
ATOM      5  N   UNL     1       3.252   6.176  19.056  0.00  0.00    +0.000 N 
ENDROOT
BRANCH   4   6
ATOM      6  C   UNL     1       5.184   5.917  17.369  0.00  0.00    +0.000 A 
ATOM      7  C   UNL     1       6.320   5.731  18.167  0.00  0.00    +0.000 A 
ATOM      8  C   UNL     1       7.413   5.053  17.646  0.00  0.00    +0.000 A 
ATOM      9  N   UNL     1       7.455   4.545  16.398  0.00  0.00    +0.000 NA
ATOM     10  C   UNL     1       6.366   4.748  15.632  0.00  0.00    +0.000 A 
ATOM     11  C   UNL     1       5.238   5.437  16.057  0.00  0.00    +0.000 A 
ENDBRANCH   4   6
BRANCH   1  12
ATOM     12  S   UNL     1       1.298   7.212  20.682  0.00  0.00    +0.000 S 
BRANCH  12  13
ATOM     13  C   UNL     1       1.724   8.757  21.552  0.00  0.00    +0.000 C 
BRANCH  13  16
ATOM     14  C   UNL     1      -0.574  11.551  22.169  0.00  0.00    +0.000 A 
ATOM     15  N   UNL     1       0.401  10.657  22.385  0.00  0.00    +0.000 NA
ATOM     16  C   UNL     1       0.648   9.817  21.362  0.00  0.00    +0.000 A 
ATOM     17  N   UNL     1      -0.013   9.846  20.182  0.00  0.00    +0.000 NA
ATOM     18  C   UNL     1      -0.984  10.765  20.014  0.00  0.00    +0.000 A 
ATOM     19  C   UNL     1      -1.697  10.828  18.820  0.00  0.00    +0.000 A 
ATOM     20  C   UNL     1      -2.722  11.762  18.605  0.00  0.00    +0.000 A 
ATOM     21  C   UNL     1      -3.051  12.669  19.603  0.00  0.00    +0.000 A 
ATOM     22  C   UNL     1      -2.354  12.635  20.807  0.00  0.00    +0.000 A 
ATOM     23  C   UNL     1      -1.325  11.679  21.009  0.00  0.00    +0.000 A 
BRANCH  14  24
ATOM     24  O   UNL     1      -0.787  12.377  23.228  0.00  0.00    +0.000 OA
ATOM     25  H   UNL     1      -0.561  11.785  23.966  0.00  0.00    +0.000 HD
ENDBRANCH  14  24
ENDBRANCH  13  16
ENDBRANCH  12  13
ENDBRANCH   1  12
BRANCH   5  26
ATOM     26  C   UNL     1       3.421   4.962  19.834  0.00  0.00    +0.000 C 
BRANCH  26  27
ATOM     27  C   UNL     1       2.593   3.853  19.300  0.00  0.00    +0.000 A 
ATOM     28  C   UNL     1       1.357   3.334  19.632  0.00  0.00    +0.000 A 
ATOM     29  C   UNL     1       1.170   2.199  18.809  0.00  0.00    +0.000 A 
ATOM     30  C   UNL     1       2.286   2.115  18.010  0.00  0.00    +0.000 A 
ATOM     31  O   UNL     1       3.151   3.122  18.293  0.00  0.00    +0.000 OA
ENDBRANCH  26  27
ENDBRANCH   5  26
TORSDOF 7
ENDMDL
MODEL 5
REMARK VINA RESULT:      -7.8      6.011      8.066
REMARK  Name = 
REMARK  7 active torsions:
REMARK  status: ('A' for Active; 'I' for Inactive)
REMARK    1  A    between atoms: O_1  and  C_2
REMARK    2  A    between atoms: C_4  and  C_5
REMARK    3  A    between atoms: C_5  and  S_6
REMARK    4  A    between atoms: S_6  and  C_7
REMARK    5  A    between atoms: C_10  and  C_11
REMARK    6  A    between atoms: N_17  and  C_18
REMARK    7  A    between atoms: C_18  and  C_19
REMARK                            x       y       z     vdW  Elec       q    Type
REMARK                         _______ _______ _______ _____ _____    ______ ____
ROOT
ATOM      1  C   UNL     1       2.300   7.294  19.363  0.00  0.00    +0.000 A 
ATOM      2  N   UNL     1       2.471   8.215  18.447  0.00  0.00    +0.000 NA
ATOM      3  N   UNL     1       3.478   7.787  17.609  0.00  0.00    +0.000 NA
ATOM      4  C   UNL     1       3.905   6.598  18.008  0.00  0.00    +0.000 A 
ATOM      5  N   UNL     1       3.146   6.237  19.116  0.00  0.00    +0.000 N 
ENDROOT
BRANCH   4   6
ATOM      6  C   UNL     1       5.073   5.891  17.440  0.00  0.00    +0.000 A 
ATOM      7  C   UNL     1       6.310   5.990  18.089  0.00  0.00    +0.000 A 
ATOM      8  C   UNL     1       7.395   5.276  17.598  0.00  0.00    +0.000 A 
ATOM      9  N   UNL     1       7.335   4.471  16.518  0.00  0.00    +0.000 NA
ATOM     10  C   UNL     1       6.147   4.400  15.890  0.00  0.00    +0.000 A 
ATOM     11  C   UNL     1       5.015   5.097  16.291  0.00  0.00    +0.000 A 
ENDBRANCH   4   6
BRANCH   1  12
ATOM     12  S   UNL     1       1.220   7.360  20.718  0.00  0.00    +0.000 S 
BRANCH  12  13
ATOM     13  C   UNL     1       1.593   8.973  21.484  0.00  0.00    +0.000 C 
BRANCH  13  16
ATOM     14  C   UNL     1      -0.978  10.980  19.803  0.00  0.00    +0.000 A 
ATOM     15  N   UNL     1      -0.024  10.055  19.978  0.00  0.00    +0.000 NA
ATOM     16  C   UNL     1       0.484   9.982  21.223  0.00  0.00    +0.000 A 
ATOM     17  N   UNL     1       0.081  10.763  22.252  0.00  0.00    +0.000 NA
ATOM     18  C   UNL     1      -0.883  11.676  22.025  0.00  0.00    +0.000 A 
ATOM     19  C   UNL     1      -1.324  12.506  23.051  0.00  0.00    +0.000 A 
ATOM     20  C   UNL     1      -2.319  13.477  22.857  0.00  0.00    +0.000 A 
ATOM     21  C   UNL     1      -2.902  13.629  21.607  0.00  0.00    +0.000 A 
ATOM     22  C   UNL     1      -2.485  12.811  20.560  0.00  0.00    +0.000 A 
ATOM     23  C   UNL     1      -1.474  11.840  20.774  0.00  0.00    +0.000 A 
BRANCH  14  24
ATOM     24  O   UNL     1      -1.461  11.017  18.532  0.00  0.00    +0.000 OA
ATOM     25  H   UNL     1      -0.708  10.644  18.043  0.00  0.00    +0.000 HD
ENDBRANCH  14  24
ENDBRANCH  13  16
ENDBRANCH  12  13
ENDBRANCH   1  12
BRANCH   5  26
ATOM     26  C   UNL     1       3.273   5.031  19.914  0.00  0.00    +0.000 C 
BRANCH  26  27
ATOM     27  C   UNL     1       2.414   3.940  19.393  0.00  0.00    +0.000 A 
ATOM     28  C   UNL     1       1.132   3.511  19.675  0.00  0.00    +0.000 A 
ATOM     29  C   UNL     1       0.928   2.340  18.909  0.00  0.00    +0.000 A 
ATOM     30  C   UNL     1       2.083   2.146  18.188  0.00  0.00    +0.000 A 
ATOM     31  O   UNL     1       2.988   3.118  18.468  0.00  0.00    +0.000 OA
ENDBRANCH  26  27
ENDBRANCH   5  26
TORSDOF 7
ENDMDL
MODEL 6
REMARK VINA RESULT:      -7.8      6.173      8.457
REMARK  Name = 
REMARK  7 active torsions:
REMARK  status: ('A' for Active; 'I' for Inactive)
REMARK    1  A    between atoms: O_1  and  C_2
REMARK    2  A    between atoms: C_4  and  C_5
REMARK    3  A    between atoms: C_5  and  S_6
REMARK    4  A    between atoms: S_6  and  C_7
REMARK    5  A    between atoms: C_10  and  C_11
REMARK    6  A    between atoms: N_17  and  C_18
REMARK    7  A    between atoms: C_18  and  C_19
REMARK                            x       y       z     vdW  Elec       q    Type
REMARK                         _______ _______ _______ _____ _____    ______ ____
ROOT
ATOM      1  C   UNL     1       2.605   7.661  18.496  0.00  0.00    +0.000 A 
ATOM      2  N   UNL     1       2.798   8.325  17.385  0.00  0.00    +0.000 NA
ATOM      3  N   UNL     1       3.825   7.709  16.703  0.00  0.00    +0.000 NA
ATOM      4  C   UNL     1       4.243   6.659  17.397  0.00  0.00    +0.000 A 
ATOM      5  N   UNL     1       3.456   6.581  18.541  0.00  0.00    +0.000 N 
ENDROOT
BRANCH   4   6
ATOM      6  C   UNL     1       5.424   5.840  17.051  0.00  0.00    +0.000 A 
ATOM      7  C   UNL     1       6.486   5.759  17.960  0.00  0.00    +0.000 A 
ATOM      8  C   UNL     1       7.568   4.939  17.670  0.00  0.00    +0.000 A 
ATOM      9  N   UNL     1       7.667   4.195  16.550  0.00  0.00    +0.000 NA
ATOM     10  C   UNL     1       6.650   4.298  15.673  0.00  0.00    +0.000 A 
ATOM     11  C   UNL     1       5.541   5.111  15.864  0.00  0.00    +0.000 A 
ENDBRANCH   4   6
BRANCH   1  12
ATOM     12  S   UNL     1       1.492   8.055  19.767  0.00  0.00    +0.000 S 
BRANCH  12  13
ATOM     13  C   UNL     1       0.949   9.746  19.350  0.00  0.00    +0.000 C 
BRANCH  13  16
ATOM     14  C   UNL     1      -0.570  10.387  22.628  0.00  0.00    +0.000 A 
ATOM     15  N   UNL     1       0.224   9.836  21.699  0.00  0.00    +0.000 NA
ATOM     16  C   UNL     1       0.099  10.347  20.459  0.00  0.00    +0.000 A 
ATOM     17  N   UNL     1      -0.750  11.350  20.136  0.00  0.00    +0.000 NA
ATOM     18  C   UNL     1      -1.525  11.871  21.107  0.00  0.00    +0.000 A 
ATOM     19  C   UNL     1      -2.419  12.900  20.820  0.00  0.00    +0.000 A 
ATOM     20  C   UNL     1      -3.252  13.466  21.798  0.00  0.00    +0.000 A 
ATOM     21  C   UNL     1      -3.196  13.004  23.106  0.00  0.00    +0.000 A 
ATOM     22  C   UNL     1      -2.309  11.979  23.425  0.00  0.00    +0.000 A 
ATOM     23  C   UNL     1      -1.480  11.415  22.423  0.00  0.00    +0.000 A 
BRANCH  14  24
ATOM     24  O   UNL     1      -0.408   9.841  23.862  0.00  0.00    +0.000 OA
ATOM     25  H   UNL     1       0.479  10.169  24.089  0.00  0.00    +0.000 HD
ENDBRANCH  14  24
ENDBRANCH  13  16
ENDBRANCH  12  13
ENDBRANCH   1  12
BRANCH   5  26
ATOM     26  C   UNL     1       3.564   5.612  19.617  0.00  0.00    +0.000 C 
BRANCH  26  27
ATOM     27  C   UNL     1       2.486   4.596  19.546  0.00  0.00    +0.000 A 
ATOM     28  C   UNL     1       1.504   4.177  20.423  0.00  0.00    +0.000 A 
ATOM     29  C   UNL     1       0.854   3.088  19.798  0.00  0.00    +0.000 A 
ATOM     30  C   UNL     1       1.458   2.930  18.572  0.00  0.00    +0.000 A 
ATOM     31  O   UNL     1       2.443   3.849  18.406  0.00  0.00    +0.000 OA
ENDBRANCH  26  27
ENDBRANCH   5  26
TORSDOF 7
ENDMDL
MODEL 7
REMARK VINA RESULT:      -7.8      7.316     10.270
REMARK  Name = 
REMARK  7 active torsions:
REMARK  status: ('A' for Active; 'I' for Inactive)
REMARK    1  A    between atoms: O_1  and  C_2
REMARK    2  A    between atoms: C_4  and  C_5
REMARK    3  A    between atoms: C_5  and  S_6
REMARK    4  A    between atoms: S_6  and  C_7
REMARK    5  A    between atoms: C_10  and  C_11
REMARK    6  A    between atoms: N_17  and  C_18
REMARK    7  A    between atoms: C_18  and  C_19
REMARK                            x       y       z     vdW  Elec       q    Type
REMARK                         _______ _______ _______ _____ _____    ______ ____
ROOT
ATOM      1  C   UNL     1       0.560   9.623  21.180  0.00  0.00    +0.000 A 
ATOM      2  N   UNL     1       0.508   9.238  22.430  0.00  0.00    +0.000 NA
ATOM      3  N   UNL     1      -0.207  10.186  23.130  0.00  0.00    +0.000 NA
ATOM      4  C   UNL     1      -0.603  11.139  22.297  0.00  0.00    +0.000 A 
ATOM      5  N   UNL     1      -0.153  10.790  21.028  0.00  0.00    +0.000 N 
ENDROOT
BRANCH   4   6
ATOM      6  C   UNL     1      -1.269  12.392  22.711  0.00  0.00    +0.000 A 
ATOM      7  C   UNL     1      -2.626  12.360  23.055  0.00  0.00    +0.000 A 
ATOM      8  C   UNL     1      -3.241  13.519  23.507  0.00  0.00    +0.000 A 
ATOM      9  N   UNL     1      -2.605  14.700  23.647  0.00  0.00    +0.000 NA
ATOM     10  C   UNL     1      -1.306  14.724  23.293  0.00  0.00    +0.000 A 
ATOM     11  C   UNL     1      -0.614  13.623  22.806  0.00  0.00    +0.000 A 
ENDBRANCH   4   6
BRANCH   1  12
ATOM     12  S   UNL     1       1.411   8.846  19.884  0.00  0.00    +0.000 S 
BRANCH  12  13
ATOM     13  C   UNL     1       1.795   7.194  20.554  0.00  0.00    +0.000 C 
BRANCH  13  16
ATOM     14  C   UNL     1       2.890   4.258  18.646  0.00  0.00    +0.000 A 
ATOM     15  N   UNL     1       2.251   4.984  19.574  0.00  0.00    +0.000 NA
ATOM     16  C   UNL     1       2.466   6.313  19.512  0.00  0.00    +0.000 A 
ATOM     17  N   UNL     1       3.257   6.909  18.590  0.00  0.00    +0.000 NA
ATOM     18  C   UNL     1       3.876   6.134  17.679  0.00  0.00    +0.000 A 
ATOM     19  C   UNL     1       4.706   6.702  16.716  0.00  0.00    +0.000 A 
ATOM     20  C   UNL     1       5.377   5.933  15.753  0.00  0.00    +0.000 A 
ATOM     21  C   UNL     1       5.219   4.554  15.738  0.00  0.00    +0.000 A 
ATOM     22  C   UNL     1       4.393   3.955  16.685  0.00  0.00    +0.000 A 
ATOM     23  C   UNL     1       3.728   4.749  17.654  0.00  0.00    +0.000 A 
BRANCH  14  24
ATOM     24  O   UNL     1       2.643   2.924  18.748  0.00  0.00    +0.000 OA
ATOM     25  H   UNL     1       3.249   2.577  18.072  0.00  0.00    +0.000 HD
ENDBRANCH  14  24
ENDBRANCH  13  16
ENDBRANCH  12  13
ENDBRANCH   1  12
BRANCH   5  26
ATOM     26  C   UNL     1      -0.319  11.546  19.799  0.00  0.00    +0.000 C 
BRANCH  26  27
ATOM     27  C   UNL     1      -1.534  11.123  19.060  0.00  0.00    +0.000 A 
ATOM     28  C   UNL     1      -1.796  10.135  18.132  0.00  0.00    +0.000 A 
ATOM     29  C   UNL     1      -3.136  10.322  17.722  0.00  0.00    +0.000 A 
ATOM     30  C   UNL     1      -3.615  11.390  18.444  0.00  0.00    +0.000 A 
ATOM     31  O   UNL     1      -2.651  11.877  19.267  0.00  0.00    +0.000 OA
ENDBRANCH  26  27
ENDBRANCH   5  26
TORSDOF 7
ENDMDL
MODEL 8
REMARK VINA RESULT:      -7.8      6.130      8.351
REMARK  Name = 
REMARK  7 active torsions:
REMARK  status: ('A' for Active; 'I' for Inactive)
REMARK    1  A    between atoms: O_1  and  C_2
REMARK    2  A    between atoms: C_4  and  C_5
REMARK    3  A    between atoms: C_5  and  S_6
REMARK    4  A    between atoms: S_6  and  C_7
REMARK    5  A    between atoms: C_10  and  C_11
REMARK    6  A    between atoms: N_17  and  C_18
REMARK    7  A    between atoms: C_18  and  C_19
REMARK                            x       y       z     vdW  Elec       q    Type
REMARK                         _______ _______ _______ _____ _____    ______ ____
ROOT
ATOM      1  C   UNL     1       2.599   7.658  18.450  0.00  0.00    +0.000 A 
ATOM      2  N   UNL     1       2.855   8.362  17.376  0.00  0.00    +0.000 NA
ATOM      3  N   UNL     1       3.886   7.740  16.706  0.00  0.00    +0.000 NA
ATOM      4  C   UNL     1       4.243   6.648  17.368  0.00  0.00    +0.000 A 
ATOM      5  N   UNL     1       3.412   6.549  18.478  0.00  0.00    +0.000 N 
ENDROOT
BRANCH   4   6
ATOM      6  C   UNL     1       5.409   5.804  17.029  0.00  0.00    +0.000 A 
ATOM      7  C   UNL     1       5.563   5.352  15.712  0.00  0.00    +0.000 A 
ATOM      8  C   UNL     1       6.689   4.616  15.373  0.00  0.00    +0.000 A 
ATOM      9  N   UNL     1       7.670   4.303  16.243  0.00  0.00    +0.000 NA
ATOM     10  C   UNL     1       7.502   4.723  17.511  0.00  0.00    +0.000 A 
ATOM     11  C   UNL     1       6.397   5.442  17.949  0.00  0.00    +0.000 A 
ENDBRANCH   4   6
BRANCH   1  12
ATOM     12  S   UNL     1       1.453   8.037  19.696  0.00  0.00    +0.000 S 
BRANCH  12  13
ATOM     13  C   UNL     1       1.020   9.777  19.364  0.00  0.00    +0.000 C 
BRANCH  13  16
ATOM     14  C   UNL     1      -0.536  10.375  22.633  0.00  0.00    +0.000 A 
ATOM     15  N   UNL     1       0.279   9.847  21.709  0.00  0.00    +0.000 NA
ATOM     16  C   UNL     1       0.146  10.353  20.468  0.00  0.00    +0.000 A 
ATOM     17  N   UNL     1      -0.730  11.331  20.139  0.00  0.00    +0.000 NA
ATOM     18  C   UNL     1      -1.526  11.829  21.105  0.00  0.00    +0.000 A 
ATOM     19  C   UNL     1      -2.448  12.831  20.812  0.00  0.00    +0.000 A 
ATOM     20  C   UNL     1      -3.303  13.373  21.785  0.00  0.00    +0.000 A 
ATOM     21  C   UNL     1      -3.241  12.913  23.093  0.00  0.00    +0.000 A 
ATOM     22  C   UNL     1      -2.327  11.915  23.419  0.00  0.00    +0.000 A 
ATOM     23  C   UNL     1      -1.475  11.375  22.421  0.00  0.00    +0.000 A 
BRANCH  14  24
ATOM     24  O   UNL     1      -0.365   9.835  23.869  0.00  0.00    +0.000 OA
ATOM     25  H   UNL     1       0.537   9.482  23.787  0.00  0.00    +0.000 HD
ENDBRANCH  14  24
ENDBRANCH  13  16
ENDBRANCH  12  13
ENDBRANCH   1  12
BRANCH   5  26
ATOM     26  C   UNL     1       3.448   5.532  19.514  0.00  0.00    +0.000 C 
BRANCH  26  27
ATOM     27  C   UNL     1       2.879   4.248  19.038  0.00  0.00    +0.000 A 
ATOM     28  C   UNL     1       1.620   3.848  18.636  0.00  0.00    +0.000 A 
ATOM     29  C   UNL     1       1.701   2.455  18.404  0.00  0.00    +0.000 A 
ATOM     30  C   UNL     1       3.007   2.100  18.648  0.00  0.00    +0.000 A 
ATOM     31  O   UNL     1       3.733   3.184  19.024  0.00  0.00    +0.000 OA
ENDBRANCH  26  27
ENDBRANCH   5  26
TORSDOF 7
ENDMDL
MODEL 9
REMARK VINA RESULT:      -7.7      5.752      8.204
REMARK  Name = 
REMARK  7 active torsions:
REMARK  status: ('A' for Active; 'I' for Inactive)
REMARK    1  A    between atoms: O_1  and  C_2
REMARK    2  A    between atoms: C_4  and  C_5
REMARK    3  A    between atoms: C_5  and  S_6
REMARK    4  A    between atoms: S_6  and  C_7
REMARK    5  A    between atoms: C_10  and  C_11
REMARK    6  A    between atoms: N_17  and  C_18
REMARK    7  A    between atoms: C_18  and  C_19
REMARK                            x       y       z     vdW  Elec       q    Type
REMARK                         _______ _______ _______ _____ _____    ______ ____
ROOT
ATOM      1  C   UNL     1       2.101   7.673  19.306  0.00  0.00    +0.000 A 
ATOM      2  N   UNL     1       1.619   7.270  20.455  0.00  0.00    +0.000 NA
ATOM      3  N   UNL     1       1.876   5.921  20.565  0.00  0.00    +0.000 NA
ATOM      4  C   UNL     1       2.529   5.509  19.487  0.00  0.00    +0.000 A 
ATOM      5  N   UNL     1       2.718   6.620  18.671  0.00  0.00    +0.000 N 
ENDROOT
BRANCH   4   6
ATOM      6  C   UNL     1       2.846   4.097  19.185  0.00  0.00    +0.000 A 
ATOM      7  C   UNL     1       2.130   3.439  18.178  0.00  0.00    +0.000 A 
ATOM      8  C   UNL     1       2.468   2.135  17.844  0.00  0.00    +0.000 A 
ATOM      9  N   UNL     1       3.465   1.444  18.434  0.00  0.00    +0.000 NA
ATOM     10  C   UNL     1       4.132   2.079  19.415  0.00  0.00    +0.000 A 
ATOM     11  C   UNL     1       3.849   3.372  19.835  0.00  0.00    +0.000 A 
ENDBRANCH   4   6
BRANCH   1  12
ATOM     12  S   UNL     1       1.975   9.262  18.623  0.00  0.00    +0.000 S 
BRANCH  12  13
ATOM     13  C   UNL     1       0.903  10.151  19.801  0.00  0.00    +0.000 C 
BRANCH  13  16
ATOM     14  C   UNL     1      -2.296  11.835  19.177  0.00  0.00    +0.000 A 
ATOM     15  N   UNL     1      -1.149  11.506  19.788  0.00  0.00    +0.000 NA
ATOM     16  C   UNL     1      -0.397  10.591  19.147  0.00  0.00    +0.000 A 
ATOM     17  N   UNL     1      -0.737  10.027  17.965  0.00  0.00    +0.000 NA
ATOM     18  C   UNL     1      -1.899  10.393  17.390  0.00  0.00    +0.000 A 
ATOM     19  C   UNL     1      -2.294   9.834  16.178  0.00  0.00    +0.000 A 
ATOM     20  C   UNL     1      -3.500  10.178  15.548  0.00  0.00    +0.000 A 
ATOM     21  C   UNL     1      -4.343  11.112  16.134  0.00  0.00    +0.000 A 
ATOM     22  C   UNL     1      -3.975  11.693  17.345  0.00  0.00    +0.000 A 
ATOM     23  C   UNL     1      -2.755  11.327  17.969  0.00  0.00    +0.000 A 
BRANCH  14  24
ATOM     24  O   UNL     1      -3.020  12.762  19.860  0.00  0.00    +0.000 OA
ATOM     25  H   UNL     1      -3.857  12.282  19.981  0.00  0.00    +0.000 HD
ENDBRANCH  14  24
ENDBRANCH  13  16
ENDBRANCH  12  13
ENDBRANCH   1  12
BRANCH   5  26
ATOM     26  C   UNL     1       3.357   6.654  17.368  0.00  0.00    +0.000 C 
BRANCH  26  27
ATOM     27  C   UNL     1       4.656   5.939  17.379  0.00  0.00    +0.000 A 
ATOM     28  C   UNL     1       5.223   4.968  16.577  0.00  0.00    +0.000 A 
ATOM     29  C   UNL     1       6.452   4.620  17.185  0.00  0.00    +0.000 A 
ATOM     30  C   UNL     1       6.570   5.417  18.298  0.00  0.00    +0.000 A 
ATOM     31  O   UNL     1       5.489   6.230  18.419  0.00  0.00    +0.000 OA
ENDBRANCH  26  27
ENDBRANCH   5  26
TORSDOF 7
ENDMDL
