MODEL 1
REMARK VINA RESULT:      -7.4      0.000      0.000
REMARK  Name = 
REMARK  3 active torsions:
REMARK  status: ('A' for Active; 'I' for Inactive)
REMARK    1  A    between atoms: C_2  and  C_3
REMARK    2  A    between atoms: C_2  and  C_8
REMARK    3  A    between atoms: N_12  and  C_13
REMARK                            x       y       z     vdW  Elec       q    Type
REMARK                         _______ _______ _______ _____ _____    ______ ____
ROOT
ATOM      1  C   UNL     1       1.082  12.355  20.454  0.00  0.00    +0.000 C 
ATOM      2  C   UNL     1       0.338  12.607  19.138  0.00  0.00    +0.000 C 
ATOM      3  C   UNL     1      -1.105  13.019  19.328  0.00  0.00    +0.000 C 
ATOM      4  O   UNL     1      -1.404  14.098  19.808  0.00  0.00    +0.000 OA
ATOM      5  N   UNL     1      -1.926  12.039  18.800  0.00  0.00    +0.000 N 
ATOM      6  C   UNL     1      -1.190  11.186  18.011  0.00  0.00    +0.000 C 
ATOM      7  O   UNL     1      -1.559  10.427  17.128  0.00  0.00    +0.000 OA
ATOM      8  C   UNL     1       0.238  11.243  18.470  0.00  0.00    +0.000 C 
ATOM      9  C   UNL     1       0.309  10.232  19.600  0.00  0.00    +0.000 C 
ATOM     10  C   UNL     1       1.218   9.031  19.549  0.00  0.00    +0.000 A 
ATOM     11  C   UNL     1       2.006   8.619  18.482  0.00  0.00    +0.000 A 
ATOM     12  C   UNL     1       2.557   7.337  18.505  0.00  0.00    +0.000 A 
ATOM     13  C   UNL     1       2.274   6.463  19.561  0.00  0.00    +0.000 A 
ATOM     14  C   UNL     1       1.589   6.919  20.687  0.00  0.00    +0.000 A 
ATOM     15  C   UNL     1       1.154   8.239  20.717  0.00  0.00    +0.000 A 
ATOM     16  C   UNL     1       0.736   8.908  21.988  0.00  0.00    +0.000 C 
ATOM     17  C   UNL     1       0.828  10.261  21.985  0.00  0.00    +0.000 C 
ATOM     18  N   UNL     1       0.644  10.988  20.808  0.00  0.00    +0.000 N 
ENDROOT
BRANCH   5  19
ATOM     19  C   UNL     1      -3.329  11.905  19.037  0.00  0.00    +0.000 A 
ATOM     20  C   UNL     1      -4.206  11.417  18.053  0.00  0.00    +0.000 A 
ATOM     21  C   UNL     1      -5.593  11.382  18.263  0.00  0.00    +0.000 A 
ATOM     22  C   UNL     1      -6.136  11.843  19.455  0.00  0.00    +0.000 A 
ATOM     23  C   UNL     1      -5.294  12.343  20.441  0.00  0.00    +0.000 A 
ATOM     24  C   UNL     1      -3.908  12.366  20.232  0.00  0.00    +0.000 A 
ENDBRANCH   5  19
BRANCH   1  26
ATOM     25  O   UNL     1      -0.010  13.319  22.422  0.00  0.00    +0.000 OA
ATOM     26  C   UNL     1       0.839  13.435  21.534  0.00  0.00    +0.000 C 
BRANCH  26  27
ATOM     27  C   UNL     1       1.730  14.596  21.463  0.00  0.00    +0.000 A 
ATOM     28  C   UNL     1       1.736  15.669  20.605  0.00  0.00    +0.000 A 
ATOM     29  C   UNL     1       2.806  16.504  20.989  0.00  0.00    +0.000 A 
ATOM     30  C   UNL     1       3.406  15.882  22.065  0.00  0.00    +0.000 A 
ATOM     31  O   UNL     1       2.753  14.730  22.367  0.00  0.00    +0.000 OA
ENDBRANCH  26  27
ENDBRANCH   1  26
TORSDOF 3
ENDMDL
MODEL 2
REMARK VINA RESULT:      -7.2      1.004      1.057
REMARK  Name = 
REMARK  3 active torsions:
REMARK  status: ('A' for Active; 'I' for Inactive)
REMARK    1  A    between atoms: C_2  and  C_3
REMARK    2  A    between atoms: C_2  and  C_8
REMARK    3  A    between atoms: N_12  and  C_13
REMARK                            x       y       z     vdW  Elec       q    Type
REMARK                         _______ _______ _______ _____ _____    ______ ____
ROOT
ATOM      1  C   UNL     1       0.330  12.721  20.804  0.00  0.00    +0.000 C 
ATOM      2  C   UNL     1      -0.450  13.120  19.546  0.00  0.00    +0.000 C 
ATOM      3  C   UNL     1      -1.939  13.264  19.779  0.00  0.00    +0.000 C 
ATOM      4  O   UNL     1      -2.395  14.167  20.458  0.00  0.00    +0.000 OA
ATOM      5  N   UNL     1      -2.604  12.300  19.044  0.00  0.00    +0.000 N 
ATOM      6  C   UNL     1      -1.751  11.744  18.119  0.00  0.00    +0.000 C 
ATOM      7  O   UNL     1      -2.006  11.132  17.092  0.00  0.00    +0.000 OA
ATOM      8  C   UNL     1      -0.346  11.920  18.616  0.00  0.00    +0.000 C 
ATOM      9  C   UNL     1      -0.117  10.723  19.521  0.00  0.00    +0.000 C 
ATOM     10  C   UNL     1       0.964   9.708  19.253  0.00  0.00    +0.000 A 
ATOM     11  C   UNL     1       1.798   9.642  18.146  0.00  0.00    +0.000 A 
ATOM     12  C   UNL     1       2.538   8.478  17.926  0.00  0.00    +0.000 A 
ATOM     13  C   UNL     1       2.397   7.377  18.777  0.00  0.00    +0.000 A 
ATOM     14  C   UNL     1       1.656   7.488  19.954  0.00  0.00    +0.000 A 
ATOM     15  C   UNL     1       1.026   8.694  20.237  0.00  0.00    +0.000 A 
ATOM     16  C   UNL     1       0.519   9.022  21.606  0.00  0.00    +0.000 C 
ATOM     17  C   UNL     1       0.405  10.347  21.876  0.00  0.00    +0.000 C 
ATOM     18  N   UNL     1       0.106  11.261  20.864  0.00  0.00    +0.000 N 
ENDROOT
BRANCH   5  19
ATOM     19  C   UNL     1      -3.969  11.913  19.213  0.00  0.00    +0.000 A 
ATOM     20  C   UNL     1      -4.662  11.180  18.234  0.00  0.00    +0.000 A 
ATOM     21  C   UNL     1      -6.028  10.891  18.368  0.00  0.00    +0.000 A 
ATOM     22  C   UNL     1      -6.736  11.334  19.476  0.00  0.00    +0.000 A 
ATOM     23  C   UNL     1      -6.081  12.072  20.455  0.00  0.00    +0.000 A 
ATOM     24  C   UNL     1      -4.713  12.350  20.323  0.00  0.00    +0.000 A 
ENDBRANCH   5  19
BRANCH   1  26
ATOM     25  O   UNL     1      -0.848  13.072  22.921  0.00  0.00    +0.000 OA
ATOM     26  C   UNL     1      -0.068  13.512  22.071  0.00  0.00    +0.000 C 
BRANCH  26  27
ATOM     27  C   UNL     1       0.591  14.811  22.226  0.00  0.00    +0.000 A 
ATOM     28  C   UNL     1       0.070  16.081  22.268  0.00  0.00    +0.000 A 
ATOM     29  C   UNL     1       1.150  16.970  22.444  0.00  0.00    +0.000 A 
ATOM     30  C   UNL     1       2.284  16.186  22.490  0.00  0.00    +0.000 A 
ATOM     31  O   UNL     1       1.955  14.874  22.369  0.00  0.00    +0.000 OA
ENDBRANCH  26  27
ENDBRANCH   1  26
TORSDOF 3
ENDMDL
MODEL 3
REMARK VINA RESULT:      -7.2      1.630      1.836
REMARK  Name = 
REMARK  3 active torsions:
REMARK  status: ('A' for Active; 'I' for Inactive)
REMARK    1  A    between atoms: C_2  and  C_3
REMARK    2  A    between atoms: C_2  and  C_8
REMARK    3  A    between atoms: N_12  and  C_13
REMARK                            x       y       z     vdW  Elec       q    Type
REMARK                         _______ _______ _______ _____ _____    ______ ____
ROOT
ATOM      1  C   UNL     1      -0.404  12.969  21.587  0.00  0.00    +0.000 C 
ATOM      2  C   UNL     1      -1.068  13.289  20.242  0.00  0.00    +0.000 C 
ATOM      3  C   UNL     1      -2.567  13.476  20.337  0.00  0.00    +0.000 C 
ATOM      4  O   UNL     1      -3.057  14.433  20.910  0.00  0.00    +0.000 OA
ATOM      5  N   UNL     1      -3.191  12.472  19.619  0.00  0.00    +0.000 N 
ATOM      6  C   UNL     1      -2.278  11.836  18.811  0.00  0.00    +0.000 C 
ATOM      7  O   UNL     1      -2.460  11.157  17.812  0.00  0.00    +0.000 OA
ATOM      8  C   UNL     1      -0.915  12.023  19.412  0.00  0.00    +0.000 C 
ATOM      9  C   UNL     1      -0.790  10.891  20.416  0.00  0.00    +0.000 C 
ATOM     10  C   UNL     1       0.285   9.840  20.313  0.00  0.00    +0.000 A 
ATOM     11  C   UNL     1       1.207   9.680  19.287  0.00  0.00    +0.000 A 
ATOM     12  C   UNL     1       1.935   8.491  19.213  0.00  0.00    +0.000 A 
ATOM     13  C   UNL     1       1.697   7.457  20.125  0.00  0.00    +0.000 A 
ATOM     14  C   UNL     1       0.865   7.666  21.224  0.00  0.00    +0.000 A 
ATOM     15  C   UNL     1       0.241   8.900  21.367  0.00  0.00    +0.000 A 
ATOM     16  C   UNL     1      -0.370   9.335  22.661  0.00  0.00    +0.000 C 
ATOM     17  C   UNL     1      -0.476  10.677  22.827  0.00  0.00    +0.000 C 
ATOM     18  N   UNL     1      -0.667  11.521  21.731  0.00  0.00    +0.000 N 
ENDROOT
BRANCH   5  19
ATOM     19  C   UNL     1      -4.575  12.122  19.698  0.00  0.00    +0.000 A 
ATOM     20  C   UNL     1      -5.295  11.676  18.578  0.00  0.00    +0.000 A 
ATOM     21  C   UNL     1      -6.674  11.429  18.647  0.00  0.00    +0.000 A 
ATOM     22  C   UNL     1      -7.367  11.632  19.832  0.00  0.00    +0.000 A 
ATOM     23  C   UNL     1      -6.684  12.086  20.953  0.00  0.00    +0.000 A 
ATOM     24  C   UNL     1      -5.304  12.321  20.884  0.00  0.00    +0.000 A 
ENDBRANCH   5  19
BRANCH   1  26
ATOM     25  O   UNL     1      -1.691  13.466  23.610  0.00  0.00    +0.000 OA
ATOM     26  C   UNL     1      -0.888  13.856  22.757  0.00  0.00    +0.000 C 
BRANCH  26  27
ATOM     27  C   UNL     1      -0.284  15.189  22.818  0.00  0.00    +0.000 A 
ATOM     28  C   UNL     1      -0.862  16.433  22.879  0.00  0.00    +0.000 A 
ATOM     29  C   UNL     1       0.184  17.378  22.931  0.00  0.00    +0.000 A 
ATOM     30  C   UNL     1       1.355  16.650  22.886  0.00  0.00    +0.000 A 
ATOM     31  O   UNL     1       1.082  15.321  22.829  0.00  0.00    +0.000 OA
ENDBRANCH  26  27
ENDBRANCH   1  26
TORSDOF 3
ENDMDL
MODEL 4
REMARK VINA RESULT:      -7.0      2.801      6.251
REMARK  Name = 
REMARK  3 active torsions:
REMARK  status: ('A' for Active; 'I' for Inactive)
REMARK    1  A    between atoms: C_2  and  C_3
REMARK    2  A    between atoms: C_2  and  C_8
REMARK    3  A    between atoms: N_12  and  C_13
REMARK                            x       y       z     vdW  Elec       q    Type
REMARK                         _______ _______ _______ _____ _____    ______ ____
ROOT
ATOM      1  C   UNL     1      -3.378  12.714  21.823  0.00  0.00    +0.000 C 
ATOM      2  C   UNL     1      -2.527  13.633  22.707  0.00  0.00    +0.000 C 
ATOM      3  C   UNL     1      -2.467  15.062  22.212  0.00  0.00    +0.000 C 
ATOM      4  O   UNL     1      -3.443  15.789  22.238  0.00  0.00    +0.000 OA
ATOM      5  N   UNL     1      -1.165  15.357  21.850  0.00  0.00    +0.000 N 
ATOM      6  C   UNL     1      -0.312  14.396  22.341  0.00  0.00    +0.000 C 
ATOM      7  O   UNL     1       0.893  14.449  22.536  0.00  0.00    +0.000 OA
ATOM      8  C   UNL     1      -1.099  13.134  22.542  0.00  0.00    +0.000 C 
ATOM      9  C   UNL     1      -1.062  12.450  21.187  0.00  0.00    +0.000 C 
ATOM     10  C   UNL     1      -0.455  11.085  20.992  0.00  0.00    +0.000 A 
ATOM     11  C   UNL     1       0.226  10.326  21.935  0.00  0.00    +0.000 A 
ATOM     12  C   UNL     1       0.965   9.222  21.506  0.00  0.00    +0.000 A 
ATOM     13  C   UNL     1       1.063   8.920  20.144  0.00  0.00    +0.000 A 
ATOM     14  C   UNL     1       0.281   9.605  19.214  0.00  0.00    +0.000 A 
ATOM     15  C   UNL     1      -0.557  10.620  19.661  0.00  0.00    +0.000 A 
ATOM     16  C   UNL     1      -1.669  11.159  18.819  0.00  0.00    +0.000 C 
ATOM     17  C   UNL     1      -2.685  11.739  19.508  0.00  0.00    +0.000 C 
ATOM     18  N   UNL     1      -2.448  12.388  20.721  0.00  0.00    +0.000 N 
ENDROOT
BRANCH   5  19
ATOM     19  C   UNL     1      -0.747  16.480  21.071  0.00  0.00    +0.000 A 
ATOM     20  C   UNL     1      -0.870  16.502  19.671  0.00  0.00    +0.000 A 
ATOM     21  C   UNL     1      -0.367  17.567  18.910  0.00  0.00    +0.000 A 
ATOM     22  C   UNL     1       0.278  18.630  19.527  0.00  0.00    +0.000 A 
ATOM     23  C   UNL     1       0.426  18.630  20.909  0.00  0.00    +0.000 A 
ATOM     24  C   UNL     1      -0.088  17.569  21.667  0.00  0.00    +0.000 A 
ENDBRANCH   5  19
BRANCH   1  26
ATOM     25  O   UNL     1      -4.922  13.835  20.289  0.00  0.00    +0.000 OA
ATOM     26  C   UNL     1      -4.733  13.325  21.396  0.00  0.00    +0.000 C 
BRANCH  26  27
ATOM     27  C   UNL     1      -5.806  13.209  22.387  0.00  0.00    +0.000 A 
ATOM     28  C   UNL     1      -6.195  14.062  23.391  0.00  0.00    +0.000 A 
ATOM     29  C   UNL     1      -7.294  13.466  24.043  0.00  0.00    +0.000 A 
ATOM     30  C   UNL     1      -7.510  12.264  23.401  0.00  0.00    +0.000 A 
ATOM     31  O   UNL     1      -6.620  12.104  22.388  0.00  0.00    +0.000 OA
ENDBRANCH  26  27
ENDBRANCH   1  26
TORSDOF 3
ENDMDL
MODEL 5
REMARK VINA RESULT:      -6.9      2.015      6.622
REMARK  Name = 
REMARK  3 active torsions:
REMARK  status: ('A' for Active; 'I' for Inactive)
REMARK    1  A    between atoms: C_2  and  C_3
REMARK    2  A    between atoms: C_2  and  C_8
REMARK    3  A    between atoms: N_12  and  C_13
REMARK                            x       y       z     vdW  Elec       q    Type
REMARK                         _______ _______ _______ _____ _____    ______ ____
ROOT
ATOM      1  C   UNL     1      -0.376  11.113  20.318  0.00  0.00    +0.000 C 
ATOM      2  C   UNL     1      -0.082  12.245  19.328  0.00  0.00    +0.000 C 
ATOM      3  C   UNL     1       1.141  13.061  19.688  0.00  0.00    +0.000 C 
ATOM      4  O   UNL     1       2.263  12.591  19.625  0.00  0.00    +0.000 OA
ATOM      5  N   UNL     1       0.749  14.354  19.981  0.00  0.00    +0.000 N 
ATOM      6  C   UNL     1      -0.542  14.560  19.554  0.00  0.00    +0.000 C 
ATOM      7  O   UNL     1      -1.128  15.607  19.317  0.00  0.00    +0.000 OA
ATOM      8  C   UNL     1      -1.231  13.228  19.494  0.00  0.00    +0.000 C 
ATOM      9  C   UNL     1      -1.750  13.012  20.904  0.00  0.00    +0.000 C 
ATOM     10  C   UNL     1      -3.218  12.852  21.205  0.00  0.00    +0.000 A 
ATOM     11  C   UNL     1      -4.277  12.981  20.315  0.00  0.00    +0.000 A 
ATOM     12  C   UNL     1      -5.574  13.085  20.820  0.00  0.00    +0.000 A 
ATOM     13  C   UNL     1      -5.797  13.115  22.201  0.00  0.00    +0.000 A 
ATOM     14  C   UNL     1      -4.751  12.861  23.088  0.00  0.00    +0.000 A 
ATOM     15  C   UNL     1      -3.480  12.627  22.575  0.00  0.00    +0.000 A 
ATOM     16  C   UNL     1      -2.394  12.009  23.398  0.00  0.00    +0.000 C 
ATOM     17  C   UNL     1      -1.421  11.382  22.691  0.00  0.00    +0.000 C 
ATOM     18  N   UNL     1      -1.063  11.825  21.417  0.00  0.00    +0.000 N 
ENDROOT
BRANCH   5  19
ATOM     19  C   UNL     1       1.544  15.341  20.640  0.00  0.00    +0.000 A 
ATOM     20  C   UNL     1       2.401  16.202  19.932  0.00  0.00    +0.000 A 
ATOM     21  C   UNL     1       3.248  17.099  20.598  0.00  0.00    +0.000 A 
ATOM     22  C   UNL     1       3.268  17.151  21.985  0.00  0.00    +0.000 A 
ATOM     23  C   UNL     1       2.442  16.304  22.712  0.00  0.00    +0.000 A 
ATOM     24  C   UNL     1       1.588  15.416  22.043  0.00  0.00    +0.000 A 
ENDBRANCH   5  19
BRANCH   1  26
ATOM     25  O   UNL     1       1.396  10.381  21.841  0.00  0.00    +0.000 OA
ATOM     26  C   UNL     1       0.868  10.293  20.729  0.00  0.00    +0.000 C 
BRANCH  26  27
ATOM     27  C   UNL     1       1.356   9.354  19.715  0.00  0.00    +0.000 A 
ATOM     28  C   UNL     1       1.428   9.468  18.348  0.00  0.00    +0.000 A 
ATOM     29  C   UNL     1       1.990   8.272  17.858  0.00  0.00    +0.000 A 
ATOM     30  C   UNL     1       2.223   7.480  18.965  0.00  0.00    +0.000 A 
ATOM     31  O   UNL     1       1.851   8.132  20.097  0.00  0.00    +0.000 OA
ENDBRANCH  26  27
ENDBRANCH   1  26
TORSDOF 3
ENDMDL
MODEL 6
REMARK VINA RESULT:      -6.9      1.603      2.084
REMARK  Name = 
REMARK  3 active torsions:
REMARK  status: ('A' for Active; 'I' for Inactive)
REMARK    1  A    between atoms: C_2  and  C_3
REMARK    2  A    between atoms: C_2  and  C_8
REMARK    3  A    between atoms: N_12  and  C_13
REMARK                            x       y       z     vdW  Elec       q    Type
REMARK                         _______ _______ _______ _____ _____    ______ ____
ROOT
ATOM      1  C   UNL     1      -0.417  12.947  21.425  0.00  0.00    +0.000 C 
ATOM      2  C   UNL     1      -1.084  13.248  20.078  0.00  0.00    +0.000 C 
ATOM      3  C   UNL     1      -2.586  13.412  20.171  0.00  0.00    +0.000 C 
ATOM      4  O   UNL     1      -3.091  14.366  20.737  0.00  0.00    +0.000 OA
ATOM      5  N   UNL     1      -3.194  12.395  19.459  0.00  0.00    +0.000 N 
ATOM      6  C   UNL     1      -2.271  11.768  18.656  0.00  0.00    +0.000 C 
ATOM      7  O   UNL     1      -2.442  11.079  17.661  0.00  0.00    +0.000 OA
ATOM      8  C   UNL     1      -0.911  11.980  19.256  0.00  0.00    +0.000 C 
ATOM      9  C   UNL     1      -0.770  10.856  20.268  0.00  0.00    +0.000 C 
ATOM     10  C   UNL     1       0.321   9.821  20.172  0.00  0.00    +0.000 A 
ATOM     11  C   UNL     1       1.247   9.668  19.149  0.00  0.00    +0.000 A 
ATOM     12  C   UNL     1       1.993   8.490  19.083  0.00  0.00    +0.000 A 
ATOM     13  C   UNL     1       1.770   7.459  20.002  0.00  0.00    +0.000 A 
ATOM     14  C   UNL     1       0.933   7.662  21.099  0.00  0.00    +0.000 A 
ATOM     15  C   UNL     1       0.291   8.888  21.233  0.00  0.00    +0.000 A 
ATOM     16  C   UNL     1      -0.328   9.322  22.524  0.00  0.00    +0.000 C 
ATOM     17  C   UNL     1      -0.454  10.663  22.681  0.00  0.00    +0.000 C 
ATOM     18  N   UNL     1      -0.658  11.496  21.579  0.00  0.00    +0.000 N 
ENDROOT
BRANCH   5  19
ATOM     19  C   UNL     1      -4.572  12.024  19.540  0.00  0.00    +0.000 A 
ATOM     20  C   UNL     1      -5.344  12.273  20.688  0.00  0.00    +0.000 A 
ATOM     21  C   UNL     1      -6.666  11.818  20.791  0.00  0.00    +0.000 A 
ATOM     22  C   UNL     1      -7.245  11.096  19.757  0.00  0.00    +0.000 A 
ATOM     23  C   UNL     1      -6.503  10.824  18.615  0.00  0.00    +0.000 A 
ATOM     24  C   UNL     1      -5.185  11.290  18.510  0.00  0.00    +0.000 A 
ENDBRANCH   5  19
BRANCH   1  26
ATOM     25  O   UNL     1      -1.666  13.420  23.477  0.00  0.00    +0.000 OA
ATOM     26  C   UNL     1      -0.916  13.834  22.589  0.00  0.00    +0.000 C 
BRANCH  26  27
ATOM     27  C   UNL     1      -0.389  15.202  22.598  0.00  0.00    +0.000 A 
ATOM     28  C   UNL     1       0.889  15.671  22.413  0.00  0.00    +0.000 A 
ATOM     29  C   UNL     1       0.836  17.076  22.513  0.00  0.00    +0.000 A 
ATOM     30  C   UNL     1      -0.484  17.390  22.766  0.00  0.00    +0.000 A 
ATOM     31  O   UNL     1      -1.237  16.260  22.809  0.00  0.00    +0.000 OA
ENDBRANCH  26  27
ENDBRANCH   1  26
TORSDOF 3
ENDMDL
MODEL 7
REMARK VINA RESULT:      -6.9      2.804      6.222
REMARK  Name = 
REMARK  3 active torsions:
REMARK  status: ('A' for Active; 'I' for Inactive)
REMARK    1  A    between atoms: C_2  and  C_3
REMARK    2  A    between atoms: C_2  and  C_8
REMARK    3  A    between atoms: N_12  and  C_13
REMARK                            x       y       z     vdW  Elec       q    Type
REMARK                         _______ _______ _______ _____ _____    ______ ____
ROOT
ATOM      1  C   UNL     1      -3.758  12.216  20.524  0.00  0.00    +0.000 C 
ATOM      2  C   UNL     1      -3.087  13.246  21.441  0.00  0.00    +0.000 C 
ATOM      3  C   UNL     1      -3.197  14.668  20.934  0.00  0.00    +0.000 C 
ATOM      4  O   UNL     1      -4.264  15.255  20.903  0.00  0.00    +0.000 OA
ATOM      5  N   UNL     1      -1.931  15.138  20.635  0.00  0.00    +0.000 N 
ATOM      6  C   UNL     1      -0.982  14.305  21.179  0.00  0.00    +0.000 C 
ATOM      7  O   UNL     1       0.193  14.523  21.435  0.00  0.00    +0.000 OA
ATOM      8  C   UNL     1      -1.598  12.948  21.354  0.00  0.00    +0.000 C 
ATOM      9  C   UNL     1      -1.398  12.270  20.009  0.00  0.00    +0.000 C 
ATOM     10  C   UNL     1      -0.601  11.001  19.860  0.00  0.00    +0.000 A 
ATOM     11  C   UNL     1       0.128  10.346  20.844  0.00  0.00    +0.000 A 
ATOM     12  C   UNL     1       1.033   9.352  20.465  0.00  0.00    +0.000 A 
ATOM     13  C   UNL     1       1.241   9.062  19.112  0.00  0.00    +0.000 A 
ATOM     14  C   UNL     1       0.422   9.629  18.137  0.00  0.00    +0.000 A 
ATOM     15  C   UNL     1      -0.568  10.522  18.530  0.00  0.00    +0.000 A 
ATOM     16  C   UNL     1      -1.699  10.900  17.628  0.00  0.00    +0.000 C 
ATOM     17  C   UNL     1      -2.819  11.337  18.257  0.00  0.00    +0.000 C 
ATOM     18  N   UNL     1      -2.736  12.017  19.474  0.00  0.00    +0.000 N 
ENDROOT
BRANCH   5  19
ATOM     19  C   UNL     1      -1.631  16.305  19.866  0.00  0.00    +0.000 A 
ATOM     20  C   UNL     1      -2.307  17.521  20.065  0.00  0.00    +0.000 A 
ATOM     21  C   UNL     1      -2.072  18.630  19.240  0.00  0.00    +0.000 A 
ATOM     22  C   UNL     1      -1.165  18.548  18.192  0.00  0.00    +0.000 A 
ATOM     23  C   UNL     1      -0.492  17.355  17.963  0.00  0.00    +0.000 A 
ATOM     24  C   UNL     1      -0.721  16.252  18.797  0.00  0.00    +0.000 A 
ENDBRANCH   5  19
BRANCH   1  26
ATOM     25  O   UNL     1      -5.356  13.127  18.909  0.00  0.00    +0.000 OA
ATOM     26  C   UNL     1      -5.159  12.634  20.023  0.00  0.00    +0.000 C 
BRANCH  26  27
ATOM     27  C   UNL     1      -6.259  12.353  20.949  0.00  0.00    +0.000 A 
ATOM     28  C   UNL     1      -6.799  13.115  21.957  0.00  0.00    +0.000 A 
ATOM     29  C   UNL     1      -7.849  12.368  22.528  0.00  0.00    +0.000 A 
ATOM     30  C   UNL     1      -7.886  11.174  21.837  0.00  0.00    +0.000 A 
ATOM     31  O   UNL     1      -6.933  11.160  20.870  0.00  0.00    +0.000 OA
ENDBRANCH  26  27
ENDBRANCH   1  26
TORSDOF 3
ENDMDL
MODEL 8
REMARK VINA RESULT:      -6.9      2.996      5.752
REMARK  Name = 
REMARK  3 active torsions:
REMARK  status: ('A' for Active; 'I' for Inactive)
REMARK    1  A    between atoms: C_2  and  C_3
REMARK    2  A    between atoms: C_2  and  C_8
REMARK    3  A    between atoms: N_12  and  C_13
REMARK                            x       y       z     vdW  Elec       q    Type
REMARK                         _______ _______ _______ _____ _____    ______ ____
ROOT
ATOM      1  C   UNL     1       0.437  15.386  20.525  0.00  0.00    +0.000 C 
ATOM      2  C   UNL     1       0.736  13.890  20.676  0.00  0.00    +0.000 C 
ATOM      3  C   UNL     1       0.321  13.066  19.476  0.00  0.00    +0.000 C 
ATOM      4  O   UNL     1       0.891  13.165  18.404  0.00  0.00    +0.000 OA
ATOM      5  N   UNL     1      -0.684  12.195  19.855  0.00  0.00    +0.000 N 
ATOM      6  C   UNL     1      -0.759  12.134  21.227  0.00  0.00    +0.000 C 
ATOM      7  O   UNL     1      -1.249  11.274  21.944  0.00  0.00    +0.000 OA
ATOM      8  C   UNL     1      -0.191  13.408  21.781  0.00  0.00    +0.000 C 
ATOM      9  C   UNL     1      -1.363  14.372  21.778  0.00  0.00    +0.000 C 
ATOM     10  C   UNL     1      -1.888  15.004  23.041  0.00  0.00    +0.000 A 
ATOM     11  C   UNL     1      -1.486  14.738  24.344  0.00  0.00    +0.000 A 
ATOM     12  C   UNL     1      -2.273  15.198  25.401  0.00  0.00    +0.000 A 
ATOM     13  C   UNL     1      -3.476  15.867  25.150  0.00  0.00    +0.000 A 
ATOM     14  C   UNL     1      -3.815  16.241  23.850  0.00  0.00    +0.000 A 
ATOM     15  C   UNL     1      -2.960  15.895  22.809  0.00  0.00    +0.000 A 
ATOM     16  C   UNL     1      -3.048  16.541  21.463  0.00  0.00    +0.000 C 
ATOM     17  C   UNL     1      -1.905  16.511  20.733  0.00  0.00    +0.000 C 
ATOM     18  N   UNL     1      -1.001  15.455  20.861  0.00  0.00    +0.000 N 
ENDROOT
BRANCH   5  19
ATOM     19  C   UNL     1      -1.539  11.467  18.971  0.00  0.00    +0.000 A 
ATOM     20  C   UNL     1      -1.055  10.435  18.149  0.00  0.00    +0.000 A 
ATOM     21  C   UNL     1      -1.884   9.795  17.216  0.00  0.00    +0.000 A 
ATOM     22  C   UNL     1      -3.210  10.177  17.074  0.00  0.00    +0.000 A 
ATOM     23  C   UNL     1      -3.714  11.203  17.863  0.00  0.00    +0.000 A 
ATOM     24  C   UNL     1      -2.886  11.833  18.803  0.00  0.00    +0.000 A 
ENDBRANCH   5  19
BRANCH   1  26
ATOM     25  O   UNL     1       0.004  16.251  18.275  0.00  0.00    +0.000 OA
ATOM     26  C   UNL     1       0.830  15.973  19.150  0.00  0.00    +0.000 C 
BRANCH  26  27
ATOM     27  C   UNL     1       2.261  16.231  18.971  0.00  0.00    +0.000 A 
ATOM     28  C   UNL     1       3.069  16.074  17.871  0.00  0.00    +0.000 A 
ATOM     29  C   UNL     1       4.367  16.482  18.244  0.00  0.00    +0.000 A 
ATOM     30  C   UNL     1       4.279  16.859  19.569  0.00  0.00    +0.000 A 
ATOM     31  O   UNL     1       3.004  16.721  20.015  0.00  0.00    +0.000 OA
ENDBRANCH  26  27
ENDBRANCH   1  26
TORSDOF 3
ENDMDL
MODEL 9
REMARK VINA RESULT:      -6.9      2.344      5.755
REMARK  Name = 
REMARK  3 active torsions:
REMARK  status: ('A' for Active; 'I' for Inactive)
REMARK    1  A    between atoms: C_2  and  C_3
REMARK    2  A    between atoms: C_2  and  C_8
REMARK    3  A    between atoms: N_12  and  C_13
REMARK                            x       y       z     vdW  Elec       q    Type
REMARK                         _______ _______ _______ _____ _____    ______ ____
ROOT
ATOM      1  C   UNL     1      -2.468  12.289  21.405  0.00  0.00    +0.000 C 
ATOM      2  C   UNL     1      -1.439  13.099  22.202  0.00  0.00    +0.000 C 
ATOM      3  C   UNL     1      -1.415  14.568  21.841  0.00  0.00    +0.000 C 
ATOM      4  O   UNL     1      -2.344  15.308  22.113  0.00  0.00    +0.000 OA
ATOM      5  N   UNL     1      -0.189  14.873  21.278  0.00  0.00    +0.000 N 
ATOM      6  C   UNL     1       0.701  13.852  21.513  0.00  0.00    +0.000 C 
ATOM      7  O   UNL     1       1.923  13.862  21.490  0.00  0.00    +0.000 OA
ATOM      8  C   UNL     1      -0.083  12.591  21.734  0.00  0.00    +0.000 C 
ATOM      9  C   UNL     1      -0.314  12.045  20.336  0.00  0.00    +0.000 C 
ATOM     10  C   UNL     1       0.197  10.694  19.906  0.00  0.00    +0.000 A 
ATOM     11  C   UNL     1       1.007   9.833  20.633  0.00  0.00    +0.000 A 
ATOM     12  C   UNL     1       1.617   8.763  19.975  0.00  0.00    +0.000 A 
ATOM     13  C   UNL     1       1.457   8.596  18.596  0.00  0.00    +0.000 A 
ATOM     14  C   UNL     1       0.547   9.385  17.892  0.00  0.00    +0.000 A 
ATOM     15  C   UNL     1      -0.158  10.366  18.578  0.00  0.00    +0.000 A 
ATOM     16  C   UNL     1      -1.383  11.008  18.007  0.00  0.00    +0.000 C 
ATOM     17  C   UNL     1      -2.237  11.535  18.920  0.00  0.00    +0.000 C 
ATOM     18  N   UNL     1      -1.763  12.056  20.126  0.00  0.00    +0.000 N 
ENDROOT
BRANCH   5  19
ATOM     19  C   UNL     1       0.124  16.060  20.545  0.00  0.00    +0.000 A 
ATOM     20  C   UNL     1       0.603  17.220  21.177  0.00  0.00    +0.000 A 
ATOM     21  C   UNL     1       0.813  18.407  20.461  0.00  0.00    +0.000 A 
ATOM     22  C   UNL     1       0.541  18.467  19.101  0.00  0.00    +0.000 A 
ATOM     23  C   UNL     1       0.054  17.340  18.452  0.00  0.00    +0.000 A 
ATOM     24  C   UNL     1      -0.145  16.151  19.168  0.00  0.00    +0.000 A 
ENDBRANCH   5  19
BRANCH   1  26
ATOM     25  O   UNL     1      -4.250  13.517  20.261  0.00  0.00    +0.000 OA
ATOM     26  C   UNL     1      -3.853  12.965  21.291  0.00  0.00    +0.000 C 
BRANCH  26  27
ATOM     27  C   UNL     1      -4.696  12.859  22.485  0.00  0.00    +0.000 A 
ATOM     28  C   UNL     1      -5.992  13.259  22.705  0.00  0.00    +0.000 A 
ATOM     29  C   UNL     1      -6.318  12.905  24.030  0.00  0.00    +0.000 A 
ATOM     30  C   UNL     1      -5.188  12.311  24.554  0.00  0.00    +0.000 A 
ATOM     31  O   UNL     1      -4.202  12.269  23.621  0.00  0.00    +0.000 OA
ENDBRANCH  26  27
ENDBRANCH   1  26
TORSDOF 3
ENDMDL
