MODEL 1
REMARK VINA RESULT:      -7.7      0.000      0.000
REMARK  Name = 
REMARK  4 active torsions:
REMARK  status: ('A' for Active; 'I' for Inactive)
REMARK    1  A    between atoms: N_1  and  S_2
REMARK    2  A    between atoms: S_2  and  C_5
REMARK    3  A    between atoms: C_8  and  N_9
REMARK    4  A    between atoms: C_10  and  C_12
REMARK                            x       y       z     vdW  Elec       q    Type
REMARK                         _______ _______ _______ _____ _____    ______ ____
ROOT
ATOM      1  N   UNL     1       2.569   7.514  18.742  0.00  0.00    +0.000 N 
ATOM      2  C   UNL     1       1.954   8.707  18.394  0.00  0.00    +0.000 C 
ATOM      3  O   UNL     1       2.143   9.335  17.356  0.00  0.00    +0.000 OA
ATOM      4  H   UNL     1       2.275   7.044  19.589  0.00  0.00    +0.000 HD
ENDROOT
BRANCH   2   5
ATOM      5  C   UNL     1       0.971   9.305  19.329  0.00  0.00    +0.000 A 
ATOM      6  C   UNL     1       0.838   8.994  20.683  0.00  0.00    +0.000 A 
ATOM      7  C   UNL     1      -0.035   9.756  21.475  0.00  0.00    +0.000 A 
ATOM      8  C   UNL     1      -0.753  10.799  20.885  0.00  0.00    +0.000 A 
ATOM      9  N   UNL     1      -1.572  11.639  21.684  0.00  0.00    +0.000 N 
ATOM     10  C   UNL     1      -2.309  12.712  21.248  0.00  0.00    +0.000 A 
ATOM     11  N   UNL     1      -2.909  13.296  22.261  0.00  0.00    +0.000 NA
ATOM     12  C   UNL     1      -2.506  12.540  23.320  0.00  0.00    +0.000 A 
ATOM     13  N   UNL     1      -1.701  11.514  23.029  0.00  0.00    +0.000 NA
ATOM     14  N   UNL     1      -0.670  11.087  19.563  0.00  0.00    +0.000 NA
ATOM     15  C   UNL     1       0.193  10.348  18.828  0.00  0.00    +0.000 A 
ENDBRANCH   2   5
BRANCH   1  19
ATOM     16  C   UNL     1       5.455   5.437  16.452  0.00  0.00    +0.000 A 
ATOM     17  C   UNL     1       5.600   6.805  16.635  0.00  0.00    +0.000 A 
ATOM     18  C   UNL     1       4.654   7.500  17.388  0.00  0.00    +0.000 A 
ATOM     19  C   UNL     1       3.549   6.848  17.960  0.00  0.00    +0.000 A 
ATOM     20  C   UNL     1       3.410   5.472  17.751  0.00  0.00    +0.000 A 
ATOM     21  C   UNL     1       4.361   4.762  17.002  0.00  0.00    +0.000 A 
BRANCH  16  22
ATOM     22  S   UNL     1       6.712   4.546  15.596  0.00  0.00    +0.000 S 
ATOM     23  O   UNL     1       7.428   5.451  14.732  0.00  0.00    +0.000 OA
ATOM     24  O   UNL     1       6.167   3.292  15.127  0.00  0.00    +0.000 OA
BRANCH  22  25
ATOM     25  N   UNL     1       7.751   4.137  16.854  0.00  0.00    +0.000 NA
ATOM     26  H   UNL     1       7.220   4.060  17.724  0.00  0.00    +0.000 HD
ATOM     27  H   UNL     1       8.526   4.794  16.909  0.00  0.00    +0.000 HD
ENDBRANCH  22  25
ENDBRANCH  16  22
ENDBRANCH   1  19
TORSDOF 4
ENDMDL
MODEL 2
REMARK VINA RESULT:      -7.3      0.770      1.378
REMARK  Name = 
REMARK  4 active torsions:
REMARK  status: ('A' for Active; 'I' for Inactive)
REMARK    1  A    between atoms: N_1  and  S_2
REMARK    2  A    between atoms: S_2  and  C_5
REMARK    3  A    between atoms: C_8  and  N_9
REMARK    4  A    between atoms: C_10  and  C_12
REMARK                            x       y       z     vdW  Elec       q    Type
REMARK                         _______ _______ _______ _____ _____    ______ ____
ROOT
ATOM      1  N   UNL     1       2.503   7.405  18.851  0.00  0.00    +0.000 N 
ATOM      2  C   UNL     1       1.952   8.606  18.429  0.00  0.00    +0.000 C 
ATOM      3  O   UNL     1       2.200   9.176  17.371  0.00  0.00    +0.000 OA
ATOM      4  H   UNL     1       2.163   6.989  19.708  0.00  0.00    +0.000 HD
ENDROOT
BRANCH   2   5
ATOM      5  C   UNL     1       0.969   9.288  19.304  0.00  0.00    +0.000 A 
ATOM      6  C   UNL     1       0.771   9.036  20.662  0.00  0.00    +0.000 A 
ATOM      7  C   UNL     1      -0.089   9.871  21.393  0.00  0.00    +0.000 A 
ATOM      8  C   UNL     1      -0.729  10.927  20.739  0.00  0.00    +0.000 A 
ATOM      9  N   UNL     1      -1.530  11.838  21.475  0.00  0.00    +0.000 N 
ATOM     10  C   UNL     1      -2.194  12.930  20.974  0.00  0.00    +0.000 A 
ATOM     11  N   UNL     1      -2.797  13.582  21.942  0.00  0.00    +0.000 NA
ATOM     12  C   UNL     1      -2.474  12.846  23.042  0.00  0.00    +0.000 A 
ATOM     13  N   UNL     1      -1.715  11.770  22.819  0.00  0.00    +0.000 NA
ATOM     14  N   UNL     1      -0.582  11.161  19.412  0.00  0.00    +0.000 NA
ATOM     15  C   UNL     1       0.266  10.351  18.737  0.00  0.00    +0.000 A 
ENDBRANCH   2   5
BRANCH   1  19
ATOM     16  C   UNL     1       5.446   5.283  16.679  0.00  0.00    +0.000 A 
ATOM     17  C   UNL     1       4.279   4.628  17.046  0.00  0.00    +0.000 A 
ATOM     18  C   UNL     1       3.303   5.318  17.762  0.00  0.00    +0.000 A 
ATOM     19  C   UNL     1       3.475   6.662  18.132  0.00  0.00    +0.000 A 
ATOM     20  C   UNL     1       4.665   7.302  17.769  0.00  0.00    +0.000 A 
ATOM     21  C   UNL     1       5.652   6.619  17.040  0.00  0.00    +0.000 A 
BRANCH  16  22
ATOM     22  S   UNL     1       6.627   4.442  15.677  0.00  0.00    +0.000 S 
ATOM     23  O   UNL     1       6.003   3.288  15.079  0.00  0.00    +0.000 OA
ATOM     24  O   UNL     1       7.883   4.364  16.389  0.00  0.00    +0.000 OA
BRANCH  22  25
ATOM     25  N   UNL     1       6.882   5.560  14.446  0.00  0.00    +0.000 NA
ATOM     26  H   UNL     1       6.019   6.078  14.272  0.00  0.00    +0.000 HD
ATOM     27  H   UNL     1       7.256   5.104  13.616  0.00  0.00    +0.000 HD
ENDBRANCH  22  25
ENDBRANCH  16  22
ENDBRANCH   1  19
TORSDOF 4
ENDMDL
MODEL 3
REMARK VINA RESULT:      -7.3      2.548      3.014
REMARK  Name = 
REMARK  4 active torsions:
REMARK  status: ('A' for Active; 'I' for Inactive)
REMARK    1  A    between atoms: N_1  and  S_2
REMARK    2  A    between atoms: S_2  and  C_5
REMARK    3  A    between atoms: C_8  and  N_9
REMARK    4  A    between atoms: C_10  and  C_12
REMARK                            x       y       z     vdW  Elec       q    Type
REMARK                         _______ _______ _______ _____ _____    ______ ____
ROOT
ATOM      1  N   UNL     1       1.214   8.159  18.301  0.00  0.00    +0.000 N 
ATOM      2  C   UNL     1       1.185   9.546  18.302  0.00  0.00    +0.000 C 
ATOM      3  O   UNL     1       2.167  10.283  18.293  0.00  0.00    +0.000 OA
ATOM      4  H   UNL     1       0.339   7.655  18.228  0.00  0.00    +0.000 HD
ENDROOT
BRANCH   2   5
ATOM      5  C   UNL     1      -0.127  10.234  18.310  0.00  0.00    +0.000 A 
ATOM      6  C   UNL     1      -1.188   9.980  17.440  0.00  0.00    +0.000 A 
ATOM      7  C   UNL     1      -2.424  10.606  17.671  0.00  0.00    +0.000 A 
ATOM      8  C   UNL     1      -2.555  11.470  18.760  0.00  0.00    +0.000 A 
ATOM      9  N   UNL     1      -3.818  12.042  19.065  0.00  0.00    +0.000 N 
ATOM     10  C   UNL     1      -4.101  12.883  20.112  0.00  0.00    +0.000 A 
ATOM     11  N   UNL     1      -5.380  13.182  20.127  0.00  0.00    +0.000 NA
ATOM     12  C   UNL     1      -5.858  12.491  19.054  0.00  0.00    +0.000 A 
ATOM     13  N   UNL     1      -4.954  11.789  18.365  0.00  0.00    +0.000 NA
ATOM     14  N   UNL     1      -1.524  11.763  19.590  0.00  0.00    +0.000 NA
ATOM     15  C   UNL     1      -0.350  11.133  19.354  0.00  0.00    +0.000 A 
ENDBRANCH   2   5
BRANCH   1  19
ATOM     16  C   UNL     1       4.713   5.791  18.476  0.00  0.00    +0.000 A 
ATOM     17  C   UNL     1       4.569   6.702  17.439  0.00  0.00    +0.000 A 
ATOM     18  C   UNL     1       3.419   7.487  17.371  0.00  0.00    +0.000 A 
ATOM     19  C   UNL     1       2.395   7.372  18.325  0.00  0.00    +0.000 A 
ATOM     20  C   UNL     1       2.549   6.437  19.354  0.00  0.00    +0.000 A 
ATOM     21  C   UNL     1       3.707   5.648  19.436  0.00  0.00    +0.000 A 
BRANCH  16  22
ATOM     22  S   UNL     1       6.216   4.882  18.621  0.00  0.00    +0.000 S 
ATOM     23  O   UNL     1       6.949   5.361  19.767  0.00  0.00    +0.000 OA
ATOM     24  O   UNL     1       6.819   4.751  17.314  0.00  0.00    +0.000 OA
BRANCH  22  25
ATOM     25  N   UNL     1       5.646   3.347  19.005  0.00  0.00    +0.000 NA
ATOM     26  H   UNL     1       6.427   2.688  19.024  0.00  0.00    +0.000 HD
ATOM     27  H   UNL     1       4.898   3.071  18.373  0.00  0.00    +0.000 HD
ENDBRANCH  22  25
ENDBRANCH  16  22
ENDBRANCH   1  19
TORSDOF 4
ENDMDL
MODEL 4
REMARK VINA RESULT:      -7.2      7.391      9.534
REMARK  Name = 
REMARK  4 active torsions:
REMARK  status: ('A' for Active; 'I' for Inactive)
REMARK    1  A    between atoms: N_1  and  S_2
REMARK    2  A    between atoms: S_2  and  C_5
REMARK    3  A    between atoms: C_8  and  N_9
REMARK    4  A    between atoms: C_10  and  C_12
REMARK                            x       y       z     vdW  Elec       q    Type
REMARK                         _______ _______ _______ _____ _____    ______ ____
ROOT
ATOM      1  N   UNL     1       8.652   8.841  19.068  0.00  0.00    +0.000 N 
ATOM      2  C   UNL     1       8.025   8.265  17.972  0.00  0.00    +0.000 C 
ATOM      3  O   UNL     1       7.964   8.749  16.846  0.00  0.00    +0.000 OA
ATOM      4  H   UNL     1       8.708   8.312  19.929  0.00  0.00    +0.000 HD
ENDROOT
BRANCH   2   5
ATOM      5  C   UNL     1       7.365   6.949  18.137  0.00  0.00    +0.000 A 
ATOM      6  C   UNL     1       7.596   6.042  19.171  0.00  0.00    +0.000 A 
ATOM      7  C   UNL     1       6.781   4.904  19.277  0.00  0.00    +0.000 A 
ATOM      8  C   UNL     1       5.765   4.707  18.339  0.00  0.00    +0.000 A 
ATOM      9  N   UNL     1       4.871   3.613  18.477  0.00  0.00    +0.000 N 
ATOM     10  C   UNL     1       3.817   3.311  17.652  0.00  0.00    +0.000 A 
ATOM     11  N   UNL     1       3.169   2.260  18.103  0.00  0.00    +0.000 NA
ATOM     12  C   UNL     1       3.869   1.941  19.228  0.00  0.00    +0.000 A 
ATOM     13  N   UNL     1       4.918   2.721  19.500  0.00  0.00    +0.000 NA
ATOM     14  N   UNL     1       5.553   5.553  17.301  0.00  0.00    +0.000 NA
ATOM     15  C   UNL     1       6.342   6.650  17.235  0.00  0.00    +0.000 A 
ENDBRANCH   2   5
BRANCH   1  19
ATOM     16  C   UNL     1      10.525  12.631  19.148  0.00  0.00    +0.000 A 
ATOM     17  C   UNL     1      10.381  11.978  17.932  0.00  0.00    +0.000 A 
ATOM     18  C   UNL     1       9.765  10.728  17.894  0.00  0.00    +0.000 A 
ATOM     19  C   UNL     1       9.294  10.106  19.062  0.00  0.00    +0.000 A 
ATOM     20  C   UNL     1       9.463  10.771  20.281  0.00  0.00    +0.000 A 
ATOM     21  C   UNL     1      10.074  12.034  20.329  0.00  0.00    +0.000 A 
BRANCH  16  22
ATOM     22  S   UNL     1      11.201  14.259  19.176  0.00  0.00    +0.000 S 
ATOM     23  O   UNL     1      12.333  14.316  18.284  0.00  0.00    +0.000 OA
ATOM     24  O   UNL     1      11.266  14.721  20.544  0.00  0.00    +0.000 OA
BRANCH  22  25
ATOM     25  N   UNL     1       9.965  15.150  18.463  0.00  0.00    +0.000 NA
ATOM     26  H   UNL     1      10.006  16.115  18.796  0.00  0.00    +0.000 HD
ATOM     27  H   UNL     1       9.064  14.705  18.618  0.00  0.00    +0.000 HD
ENDBRANCH  22  25
ENDBRANCH  16  22
ENDBRANCH   1  19
TORSDOF 4
ENDMDL
MODEL 5
REMARK VINA RESULT:      -7.1      2.744      3.384
REMARK  Name = 
REMARK  4 active torsions:
REMARK  status: ('A' for Active; 'I' for Inactive)
REMARK    1  A    between atoms: N_1  and  S_2
REMARK    2  A    between atoms: S_2  and  C_5
REMARK    3  A    between atoms: C_8  and  N_9
REMARK    4  A    between atoms: C_10  and  C_12
REMARK                            x       y       z     vdW  Elec       q    Type
REMARK                         _______ _______ _______ _____ _____    ______ ____
ROOT
ATOM      1  N   UNL     1       1.294   8.294  18.001  0.00  0.00    +0.000 N 
ATOM      2  C   UNL     1       0.913   9.306  18.871  0.00  0.00    +0.000 C 
ATOM      3  O   UNL     1       1.526   9.655  19.875  0.00  0.00    +0.000 OA
ATOM      4  H   UNL     1       0.751   8.147  17.160  0.00  0.00    +0.000 HD
ENDROOT
BRANCH   2   5
ATOM      5  C   UNL     1      -0.334  10.056  18.593  0.00  0.00    +0.000 A 
ATOM      6  C   UNL     1      -1.104   9.960  17.433  0.00  0.00    +0.000 A 
ATOM      7  C   UNL     1      -2.343  10.619  17.380  0.00  0.00    +0.000 A 
ATOM      8  C   UNL     1      -2.767  11.358  18.487  0.00  0.00    +0.000 A 
ATOM      9  N   UNL     1      -4.055  11.956  18.491  0.00  0.00    +0.000 N 
ATOM     10  C   UNL     1      -4.613  12.684  19.513  0.00  0.00    +0.000 A 
ATOM     11  N   UNL     1      -5.837  13.045  19.201  0.00  0.00    +0.000 NA
ATOM     12  C   UNL     1      -5.997  12.509  17.959  0.00  0.00    +0.000 A 
ATOM     13  N   UNL     1      -4.945  11.845  17.472  0.00  0.00    +0.000 NA
ATOM     14  N   UNL     1      -2.014  11.498  19.605  0.00  0.00    +0.000 NA
ATOM     15  C   UNL     1      -0.833  10.839  19.635  0.00  0.00    +0.000 A 
ENDBRANCH   2   5
BRANCH   1  19
ATOM     16  C   UNL     1       4.749   5.886  18.380  0.00  0.00    +0.000 A 
ATOM     17  C   UNL     1       3.687   5.679  19.248  0.00  0.00    +0.000 A 
ATOM     18  C   UNL     1       2.543   6.467  19.132  0.00  0.00    +0.000 A 
ATOM     19  C   UNL     1       2.443   7.477  18.161  0.00  0.00    +0.000 A 
ATOM     20  C   UNL     1       3.530   7.684  17.306  0.00  0.00    +0.000 A 
ATOM     21  C   UNL     1       4.683   6.890  17.409  0.00  0.00    +0.000 A 
BRANCH  16  22
ATOM     22  S   UNL     1       6.146   4.814  18.457  0.00  0.00    +0.000 S 
ATOM     23  O   UNL     1       7.080   5.324  19.431  0.00  0.00    +0.000 OA
ATOM     24  O   UNL     1       6.543   4.456  17.114  0.00  0.00    +0.000 OA
BRANCH  22  25
ATOM     25  N   UNL     1       5.465   3.420  19.107  0.00  0.00    +0.000 NA
ATOM     26  H   UNL     1       5.440   3.497  20.126  0.00  0.00    +0.000 HD
ATOM     27  H   UNL     1       5.953   2.591  18.775  0.00  0.00    +0.000 HD
ENDBRANCH  22  25
ENDBRANCH  16  22
ENDBRANCH   1  19
TORSDOF 4
ENDMDL
MODEL 6
REMARK VINA RESULT:      -7.1      2.489      3.379
REMARK  Name = 
REMARK  4 active torsions:
REMARK  status: ('A' for Active; 'I' for Inactive)
REMARK    1  A    between atoms: N_1  and  S_2
REMARK    2  A    between atoms: S_2  and  C_5
REMARK    3  A    between atoms: C_8  and  N_9
REMARK    4  A    between atoms: C_10  and  C_12
REMARK                            x       y       z     vdW  Elec       q    Type
REMARK                         _______ _______ _______ _____ _____    ______ ____
ROOT
ATOM      1  N   UNL     1       1.094   8.145  20.247  0.00  0.00    +0.000 N 
ATOM      2  C   UNL     1       1.113   8.868  21.431  0.00  0.00    +0.000 C 
ATOM      3  O   UNL     1       1.863   8.665  22.382  0.00  0.00    +0.000 OA
ATOM      4  H   UNL     1       0.486   8.454  19.499  0.00  0.00    +0.000 HD
ENDROOT
BRANCH   2   5
ATOM      5  C   UNL     1       0.164   9.993  21.597  0.00  0.00    +0.000 A 
ATOM      6  C   UNL     1      -0.293  10.834  20.582  0.00  0.00    +0.000 A 
ATOM      7  C   UNL     1      -1.310  11.758  20.867  0.00  0.00    +0.000 A 
ATOM      8  C   UNL     1      -1.832  11.816  22.162  0.00  0.00    +0.000 A 
ATOM      9  N   UNL     1      -2.923  12.678  22.451  0.00  0.00    +0.000 N 
ATOM     10  C   UNL     1      -3.552  12.820  23.663  0.00  0.00    +0.000 A 
ATOM     11  N   UNL     1      -4.553  13.664  23.562  0.00  0.00    +0.000 NA
ATOM     12  C   UNL     1      -4.506  14.024  22.249  0.00  0.00    +0.000 A 
ATOM     13  N   UNL     1      -3.532  13.466  21.528  0.00  0.00    +0.000 NA
ATOM     14  N   UNL     1      -1.372  11.038  23.172  0.00  0.00    +0.000 NA
ATOM     15  C   UNL     1      -0.403  10.145  22.863  0.00  0.00    +0.000 A 
ENDBRANCH   2   5
BRANCH   1  19
ATOM     16  C   UNL     1       3.582   4.856  19.311  0.00  0.00    +0.000 A 
ATOM     17  C   UNL     1       2.685   4.743  20.364  0.00  0.00    +0.000 A 
ATOM     18  C   UNL     1       1.861   5.821  20.682  0.00  0.00    +0.000 A 
ATOM     19  C   UNL     1       1.922   7.028  19.965  0.00  0.00    +0.000 A 
ATOM     20  C   UNL     1       2.843   7.130  18.918  0.00  0.00    +0.000 A 
ATOM     21  C   UNL     1       3.672   6.048  18.584  0.00  0.00    +0.000 A 
BRANCH  16  22
ATOM     22  S   UNL     1       4.541   3.454  18.842  0.00  0.00    +0.000 S 
ATOM     23  O   UNL     1       4.036   2.931  17.597  0.00  0.00    +0.000 OA
ATOM     24  O   UNL     1       4.760   2.621  20.002  0.00  0.00    +0.000 OA
BRANCH  22  25
ATOM     25  N   UNL     1       6.032   4.161  18.513  0.00  0.00    +0.000 NA
ATOM     26  H   UNL     1       6.747   3.742  19.111  0.00  0.00    +0.000 HD
ATOM     27  H   UNL     1       5.977   5.173  18.595  0.00  0.00    +0.000 HD
ENDBRANCH  22  25
ENDBRANCH  16  22
ENDBRANCH   1  19
TORSDOF 4
ENDMDL
MODEL 7
REMARK VINA RESULT:      -7.1      2.030      2.938
REMARK  Name = 
REMARK  4 active torsions:
REMARK  status: ('A' for Active; 'I' for Inactive)
REMARK    1  A    between atoms: N_1  and  S_2
REMARK    2  A    between atoms: S_2  and  C_5
REMARK    3  A    between atoms: C_8  and  N_9
REMARK    4  A    between atoms: C_10  and  C_12
REMARK                            x       y       z     vdW  Elec       q    Type
REMARK                         _______ _______ _______ _____ _____    ______ ____
ROOT
ATOM      1  N   UNL     1       1.271   8.657  19.798  0.00  0.00    +0.000 N 
ATOM      2  C   UNL     1       1.116   9.028  21.126  0.00  0.00    +0.000 C 
ATOM      3  O   UNL     1       1.719   8.544  22.080  0.00  0.00    +0.000 OA
ATOM      4  H   UNL     1       0.778   9.182  19.087  0.00  0.00    +0.000 HD
ENDROOT
BRANCH   2   5
ATOM      5  C   UNL     1       0.151  10.102  21.461  0.00  0.00    +0.000 A 
ATOM      6  C   UNL     1      -0.421  10.997  20.556  0.00  0.00    +0.000 A 
ATOM      7  C   UNL     1      -1.436  11.859  21.000  0.00  0.00    +0.000 A 
ATOM      8  C   UNL     1      -1.840  11.803  22.336  0.00  0.00    +0.000 A 
ATOM      9  N   UNL     1      -2.925  12.601  22.785  0.00  0.00    +0.000 N 
ATOM     10  C   UNL     1      -3.445  12.630  24.055  0.00  0.00    +0.000 A 
ATOM     11  N   UNL     1      -4.477  13.442  24.108  0.00  0.00    +0.000 NA
ATOM     12  C   UNL     1      -4.561  13.898  22.827  0.00  0.00    +0.000 A 
ATOM     13  N   UNL     1      -3.640  13.430  21.982  0.00  0.00    +0.000 NA
ATOM     14  N   UNL     1      -1.265  10.972  23.239  0.00  0.00    +0.000 NA
ATOM     15  C   UNL     1      -0.302  10.140  22.779  0.00  0.00    +0.000 A 
ENDBRANCH   2   5
BRANCH   1  19
ATOM     16  C   UNL     1       3.838   5.633  18.334  0.00  0.00    +0.000 A 
ATOM     17  C   UNL     1       3.136   5.408  19.509  0.00  0.00    +0.000 A 
ATOM     18  C   UNL     1       2.287   6.398  20.001  0.00  0.00    +0.000 A 
ATOM     19  C   UNL     1       2.132   7.627  19.339  0.00  0.00    +0.000 A 
ATOM     20  C   UNL     1       2.860   7.844  18.165  0.00  0.00    +0.000 A 
ATOM     21  C   UNL     1       3.711   6.850  17.656  0.00  0.00    +0.000 A 
BRANCH  16  22
ATOM     22  S   UNL     1       4.822   4.337  17.656  0.00  0.00    +0.000 S 
ATOM     23  O   UNL     1       5.815   4.907  16.780  0.00  0.00    +0.000 OA
ATOM     24  O   UNL     1       3.959   3.250  17.250  0.00  0.00    +0.000 OA
BRANCH  22  25
ATOM     25  N   UNL     1       5.629   3.778  19.022  0.00  0.00    +0.000 NA
ATOM     26  H   UNL     1       5.254   4.241  19.853  0.00  0.00    +0.000 HD
ATOM     27  H   UNL     1       6.635   3.887  18.916  0.00  0.00    +0.000 HD
ENDBRANCH  22  25
ENDBRANCH  16  22
ENDBRANCH   1  19
TORSDOF 4
ENDMDL
MODEL 8
REMARK VINA RESULT:      -7.1      4.297     10.055
REMARK  Name = 
REMARK  4 active torsions:
REMARK  status: ('A' for Active; 'I' for Inactive)
REMARK    1  A    between atoms: N_1  and  S_2
REMARK    2  A    between atoms: S_2  and  C_5
REMARK    3  A    between atoms: C_8  and  N_9
REMARK    4  A    between atoms: C_10  and  C_12
REMARK                            x       y       z     vdW  Elec       q    Type
REMARK                         _______ _______ _______ _____ _____    ______ ____
ROOT
ATOM      1  N   UNL     1       1.071   9.404  19.822  0.00  0.00    +0.000 N 
ATOM      2  C   UNL     1       1.503   8.112  20.084  0.00  0.00    +0.000 C 
ATOM      3  O   UNL     1       1.161   7.422  21.040  0.00  0.00    +0.000 OA
ATOM      4  H   UNL     1       1.359   9.847  18.959  0.00  0.00    +0.000 HD
ENDROOT
BRANCH   2   5
ATOM      5  C   UNL     1       2.457   7.474  19.147  0.00  0.00    +0.000 A 
ATOM      6  C   UNL     1       2.776   7.931  17.868  0.00  0.00    +0.000 A 
ATOM      7  C   UNL     1       3.814   7.306  17.159  0.00  0.00    +0.000 A 
ATOM      8  C   UNL     1       4.494   6.239  17.750  0.00  0.00    +0.000 A 
ATOM      9  N   UNL     1       5.606   5.651  17.091  0.00  0.00    +0.000 N 
ATOM     10  C   UNL     1       6.381   4.620  17.560  0.00  0.00    +0.000 A 
ATOM     11  N   UNL     1       7.355   4.361  16.718  0.00  0.00    +0.000 NA
ATOM     12  C   UNL     1       7.141   5.271  15.727  0.00  0.00    +0.000 A 
ATOM     13  N   UNL     1       6.088   6.075  15.894  0.00  0.00    +0.000 NA
ATOM     14  N   UNL     1       4.170   5.752  18.973  0.00  0.00    +0.000 NA
ATOM     15  C   UNL     1       3.178   6.385  19.640  0.00  0.00    +0.000 A 
ENDBRANCH   2   5
BRANCH   1  19
ATOM     16  C   UNL     1      -1.580  11.684  22.202  0.00  0.00    +0.000 A 
ATOM     17  C   UNL     1      -0.725  10.783  22.822  0.00  0.00    +0.000 A 
ATOM     18  C   UNL     1       0.152  10.026  22.047  0.00  0.00    +0.000 A 
ATOM     19  C   UNL     1       0.187  10.146  20.648  0.00  0.00    +0.000 A 
ATOM     20  C   UNL     1      -0.694  11.046  20.038  0.00  0.00    +0.000 A 
ATOM     21  C   UNL     1      -1.576  11.819  20.810  0.00  0.00    +0.000 A 
BRANCH  16  22
ATOM     22  S   UNL     1      -2.607  12.718  23.192  0.00  0.00    +0.000 S 
ATOM     23  O   UNL     1      -1.795  13.739  23.808  0.00  0.00    +0.000 OA
ATOM     24  O   UNL     1      -3.522  11.894  23.947  0.00  0.00    +0.000 OA
BRANCH  22  25
ATOM     25  N   UNL     1      -3.550  13.476  22.023  0.00  0.00    +0.000 NA
ATOM     26  H   UNL     1      -3.272  14.456  21.944  0.00  0.00    +0.000 HD
ATOM     27  H   UNL     1      -4.540  13.349  22.220  0.00  0.00    +0.000 HD
ENDBRANCH  22  25
ENDBRANCH  16  22
ENDBRANCH   1  19
TORSDOF 4
ENDMDL
MODEL 9
REMARK VINA RESULT:      -7.0      2.121      2.910
REMARK  Name = 
REMARK  4 active torsions:
REMARK  status: ('A' for Active; 'I' for Inactive)
REMARK    1  A    between atoms: N_1  and  S_2
REMARK    2  A    between atoms: S_2  and  C_5
REMARK    3  A    between atoms: C_8  and  N_9
REMARK    4  A    between atoms: C_10  and  C_12
REMARK                            x       y       z     vdW  Elec       q    Type
REMARK                         _______ _______ _______ _____ _____    ______ ____
ROOT
ATOM      1  N   UNL     1       1.288   8.664  19.747  0.00  0.00    +0.000 N 
ATOM      2  C   UNL     1       1.127   9.033  21.075  0.00  0.00    +0.000 C 
ATOM      3  O   UNL     1       1.734   8.557  22.030  0.00  0.00    +0.000 OA
ATOM      4  H   UNL     1       0.789   9.182  19.035  0.00  0.00    +0.000 HD
ENDROOT
BRANCH   2   5
ATOM      5  C   UNL     1       0.148  10.095  21.408  0.00  0.00    +0.000 A 
ATOM      6  C   UNL     1      -0.379  11.029  20.516  0.00  0.00    +0.000 A 
ATOM      7  C   UNL     1      -1.414  11.875  20.946  0.00  0.00    +0.000 A 
ATOM      8  C   UNL     1      -1.881  11.764  22.258  0.00  0.00    +0.000 A 
ATOM      9  N   UNL     1      -2.986  12.545  22.688  0.00  0.00    +0.000 N 
ATOM     10  C   UNL     1      -3.566  12.522  23.931  0.00  0.00    +0.000 A 
ATOM     11  N   UNL     1      -4.599  13.334  23.969  0.00  0.00    +0.000 NA
ATOM     12  C   UNL     1      -4.620  13.845  22.706  0.00  0.00    +0.000 A 
ATOM     13  N   UNL     1      -3.660  13.410  21.887  0.00  0.00    +0.000 NA
ATOM     14  N   UNL     1      -1.351  10.893  23.152  0.00  0.00    +0.000 NA
ATOM     15  C   UNL     1      -0.368  10.079  22.704  0.00  0.00    +0.000 A 
ENDBRANCH   2   5
BRANCH   1  19
ATOM     16  C   UNL     1       3.890   5.581  18.480  0.00  0.00    +0.000 A 
ATOM     17  C   UNL     1       3.804   6.741  17.724  0.00  0.00    +0.000 A 
ATOM     18  C   UNL     1       2.948   7.763  18.132  0.00  0.00    +0.000 A 
ATOM     19  C   UNL     1       2.162   7.644  19.290  0.00  0.00    +0.000 A 
ATOM     20  C   UNL     1       2.248   6.461  20.031  0.00  0.00    +0.000 A 
ATOM     21  C   UNL     1       3.113   5.428  19.633  0.00  0.00    +0.000 A 
BRANCH  16  22
ATOM     22  S   UNL     1       5.054   4.339  18.023  0.00  0.00    +0.000 S 
ATOM     23  O   UNL     1       6.218   4.448  18.868  0.00  0.00    +0.000 OA
ATOM     24  O   UNL     1       5.143   4.281  16.582  0.00  0.00    +0.000 OA
BRANCH  22  25
ATOM     25  N   UNL     1       4.245   2.935  18.476  0.00  0.00    +0.000 NA
ATOM     26  H   UNL     1       3.490   3.171  19.123  0.00  0.00    +0.000 HD
ATOM     27  H   UNL     1       4.896   2.247  18.846  0.00  0.00    +0.000 HD
ENDBRANCH  22  25
ENDBRANCH  16  22
ENDBRANCH   1  19
TORSDOF 4
ENDMDL
