MODEL 1
REMARK VINA RESULT:      -6.3      0.000      0.000
REMARK  Name = 
REMARK  7 active torsions:
REMARK  status: ('A' for Active; 'I' for Inactive)
REMARK    1  A    between atoms: C_1  and  C_2
REMARK    2  A    between atoms: C_2  and  O_3
REMARK    3  A    between atoms: O_3  and  C_4
REMARK    4  A    between atoms: C_4  and  C_6
REMARK    5  A    between atoms: C_6  and  C_7
REMARK    6  A    between atoms: C_7  and  C_10
REMARK    7  A    between atoms: N_8  and  O_9
REMARK                            x       y       z     vdW  Elec       q    Type
REMARK                         _______ _______ _______ _____ _____    ______ ____
ROOT
ATOM      1  C   UNL     1       6.374   5.215  18.899  0.00  0.00    +0.000 C 
ATOM      2  N   UNL     1       7.144   5.333  19.948  0.00  0.00    +0.000 NA
ENDROOT
BRANCH   1   3
ATOM      3  C   UNL     1       6.818   5.251  17.529  0.00  0.00    +0.000 A 
ATOM      4  N   UNL     1       7.283   6.317  16.905  0.00  0.00    +0.000 NA
ATOM      5  N   UNL     1       7.599   5.911  15.631  0.00  0.00    +0.000 NA
ATOM      6  N   UNL     1       7.335   4.624  15.464  0.00  0.00    +0.000 NA
ATOM      7  N   UNL     1       6.850   4.216  16.641  0.00  0.00    +0.000 N 
ATOM      8  H   UNL     1       6.567   3.254  16.786  0.00  0.00    +0.000 HD
ENDBRANCH   1   3
BRANCH   2   9
ATOM      9  O   UNL     1       8.501   5.508  19.651  0.00  0.00    +0.000 OA
ATOM     10  H   UNL     1       8.516   6.423  19.301  0.00  0.00    +0.000 HD
ENDBRANCH   2   9
BRANCH   1  11
ATOM     11  C   UNL     1       4.897   5.006  19.151  0.00  0.00    +0.000 C 
BRANCH  11  12
ATOM     12  C   UNL     1       4.542   3.556  19.043  0.00  0.00    +0.000 C 
ATOM     13  O   UNL     1       4.838   2.712  19.882  0.00  0.00    +0.000 OA
BRANCH  12  14
ATOM     14  O   UNL     1       3.950   3.298  17.847  0.00  0.00    +0.000 OA
BRANCH  14  16
ATOM     15  C   UNL     1       1.692   4.077  17.697  0.00  0.00    +0.000 C 
ATOM     16  C   UNL     1       2.584   2.867  17.910  0.00  0.00    +0.000 C 
ENDBRANCH  14  16
ENDBRANCH  12  14
ENDBRANCH  11  12
ENDBRANCH   1  11
TORSDOF 6
ENDMDL
MODEL 2
REMARK VINA RESULT:      -6.1      3.049      4.359
REMARK  Name = 
REMARK  7 active torsions:
REMARK  status: ('A' for Active; 'I' for Inactive)
REMARK    1  A    between atoms: C_1  and  C_2
REMARK    2  A    between atoms: C_2  and  O_3
REMARK    3  A    between atoms: O_3  and  C_4
REMARK    4  A    between atoms: C_4  and  C_6
REMARK    5  A    between atoms: C_6  and  C_7
REMARK    6  A    between atoms: C_7  and  C_10
REMARK    7  A    between atoms: N_8  and  O_9
REMARK                            x       y       z     vdW  Elec       q    Type
REMARK                         _______ _______ _______ _____ _____    ______ ____
ROOT
ATOM      1  C   UNL     1       5.393   4.583  17.284  0.00  0.00    +0.000 C 
ATOM      2  N   UNL     1       4.517   3.617  17.330  0.00  0.00    +0.000 NA
ENDROOT
BRANCH   1   3
ATOM      3  C   UNL     1       6.409   4.839  18.274  0.00  0.00    +0.000 A 
ATOM      4  N   UNL     1       6.185   5.250  19.508  0.00  0.00    +0.000 NA
ATOM      5  N   UNL     1       7.416   5.354  20.110  0.00  0.00    +0.000 NA
ATOM      6  N   UNL     1       8.384   5.016  19.270  0.00  0.00    +0.000 NA
ATOM      7  N   UNL     1       7.758   4.699  18.132  0.00  0.00    +0.000 N 
ATOM      8  H   UNL     1       8.277   4.399  17.316  0.00  0.00    +0.000 HD
ENDBRANCH   1   3
BRANCH   2   9
ATOM      9  O   UNL     1       4.621   2.796  18.460  0.00  0.00    +0.000 OA
ATOM     10  H   UNL     1       5.423   3.153  18.897  0.00  0.00    +0.000 HD
ENDBRANCH   2   9
BRANCH   1  11
ATOM     11  C   UNL     1       5.346   5.497  16.079  0.00  0.00    +0.000 C 
BRANCH  11  12
ATOM     12  C   UNL     1       6.242   4.988  14.993  0.00  0.00    +0.000 C 
ATOM     13  O   UNL     1       7.430   5.268  14.896  0.00  0.00    +0.000 OA
BRANCH  12  14
ATOM     14  O   UNL     1       5.528   4.272  14.084  0.00  0.00    +0.000 OA
BRANCH  14  16
ATOM     15  C   UNL     1       5.324   3.183  11.962  0.00  0.00    +0.000 C 
ATOM     16  C   UNL     1       6.290   3.681  13.022  0.00  0.00    +0.000 C 
ENDBRANCH  14  16
ENDBRANCH  12  14
ENDBRANCH  11  12
ENDBRANCH   1  11
TORSDOF 6
ENDMDL
MODEL 3
REMARK VINA RESULT:      -6.0      0.768      1.033
REMARK  Name = 
REMARK  7 active torsions:
REMARK  status: ('A' for Active; 'I' for Inactive)
REMARK    1  A    between atoms: C_1  and  C_2
REMARK    2  A    between atoms: C_2  and  O_3
REMARK    3  A    between atoms: O_3  and  C_4
REMARK    4  A    between atoms: C_4  and  C_6
REMARK    5  A    between atoms: C_6  and  C_7
REMARK    6  A    between atoms: C_7  and  C_10
REMARK    7  A    between atoms: N_8  and  O_9
REMARK                            x       y       z     vdW  Elec       q    Type
REMARK                         _______ _______ _______ _____ _____    ______ ____
ROOT
ATOM      1  C   UNL     1       6.254   5.188  18.976  0.00  0.00    +0.000 C 
ATOM      2  N   UNL     1       7.057   5.320  19.998  0.00  0.00    +0.000 NA
ENDROOT
BRANCH   1   3
ATOM      3  C   UNL     1       6.648   5.240  17.591  0.00  0.00    +0.000 A 
ATOM      4  N   UNL     1       7.598   4.508  17.041  0.00  0.00    +0.000 NA
ATOM      5  N   UNL     1       7.637   4.861  15.713  0.00  0.00    +0.000 NA
ATOM      6  N   UNL     1       6.732   5.791  15.444  0.00  0.00    +0.000 NA
ATOM      7  N   UNL     1       6.121   6.026  16.609  0.00  0.00    +0.000 N 
ATOM      8  H   UNL     1       5.374   6.706  16.680  0.00  0.00    +0.000 HD
ENDBRANCH   1   3
BRANCH   2   9
ATOM      9  O   UNL     1       8.398   5.527  19.654  0.00  0.00    +0.000 OA
ATOM     10  H   UNL     1       8.442   5.131  18.758  0.00  0.00    +0.000 HD
ENDBRANCH   2   9
BRANCH   1  11
ATOM     11  C   UNL     1       4.792   4.943  19.279  0.00  0.00    +0.000 C 
BRANCH  11  12
ATOM     12  C   UNL     1       4.464   3.487  19.167  0.00  0.00    +0.000 C 
ATOM     13  O   UNL     1       4.926   2.621  19.900  0.00  0.00    +0.000 OA
BRANCH  12  14
ATOM     14  O   UNL     1       3.678   3.258  18.082  0.00  0.00    +0.000 OA
BRANCH  14  16
ATOM     15  C   UNL     1       1.520   2.353  18.583  0.00  0.00    +0.000 C 
ATOM     16  C   UNL     1       2.926   2.037  18.106  0.00  0.00    +0.000 C 
ENDBRANCH  14  16
ENDBRANCH  12  14
ENDBRANCH  11  12
ENDBRANCH   1  11
TORSDOF 6
ENDMDL
MODEL 4
REMARK VINA RESULT:      -6.0      0.913      1.298
REMARK  Name = 
REMARK  7 active torsions:
REMARK  status: ('A' for Active; 'I' for Inactive)
REMARK    1  A    between atoms: C_1  and  C_2
REMARK    2  A    between atoms: C_2  and  O_3
REMARK    3  A    between atoms: O_3  and  C_4
REMARK    4  A    between atoms: C_4  and  C_6
REMARK    5  A    between atoms: C_6  and  C_7
REMARK    6  A    between atoms: C_7  and  C_10
REMARK    7  A    between atoms: N_8  and  O_9
REMARK                            x       y       z     vdW  Elec       q    Type
REMARK                         _______ _______ _______ _____ _____    ______ ____
ROOT
ATOM      1  C   UNL     1       6.374   5.365  19.003  0.00  0.00    +0.000 C 
ATOM      2  N   UNL     1       7.152   5.402  20.051  0.00  0.00    +0.000 NA
ENDROOT
BRANCH   1   3
ATOM      3  C   UNL     1       6.818   5.323  17.633  0.00  0.00    +0.000 A 
ATOM      4  N   UNL     1       7.547   4.361  17.097  0.00  0.00    +0.000 NA
ATOM      5  N   UNL     1       7.732   4.706  15.780  0.00  0.00    +0.000 NA
ATOM      6  N   UNL     1       7.134   5.855  15.502  0.00  0.00    +0.000 NA
ATOM      7  N   UNL     1       6.569   6.237  16.652  0.00  0.00    +0.000 N 
ATOM      8  H   UNL     1       6.039   7.098  16.714  0.00  0.00    +0.000 HD
ENDBRANCH   1   3
BRANCH   2   9
ATOM      9  O   UNL     1       8.520   5.399  19.754  0.00  0.00    +0.000 OA
ATOM     10  H   UNL     1       8.893   5.904  20.507  0.00  0.00    +0.000 HD
ENDBRANCH   2   9
BRANCH   1  11
ATOM     11  C   UNL     1       4.882   5.348  19.255  0.00  0.00    +0.000 C 
BRANCH  11  12
ATOM     12  C   UNL     1       4.354   3.948  19.218  0.00  0.00    +0.000 C 
ATOM     13  O   UNL     1       4.946   2.979  19.680  0.00  0.00    +0.000 OA
BRANCH  12  14
ATOM     14  O   UNL     1       3.194   3.895  18.511  0.00  0.00    +0.000 OA
BRANCH  14  16
ATOM     15  C   UNL     1       1.359   3.973  20.046  0.00  0.00    +0.000 C 
ATOM     16  C   UNL     1       2.136   4.736  18.989  0.00  0.00    +0.000 C 
ENDBRANCH  14  16
ENDBRANCH  12  14
ENDBRANCH  11  12
ENDBRANCH   1  11
TORSDOF 6
ENDMDL
MODEL 5
REMARK VINA RESULT:      -6.0      3.136      4.490
REMARK  Name = 
REMARK  7 active torsions:
REMARK  status: ('A' for Active; 'I' for Inactive)
REMARK    1  A    between atoms: C_1  and  C_2
REMARK    2  A    between atoms: C_2  and  O_3
REMARK    3  A    between atoms: O_3  and  C_4
REMARK    4  A    between atoms: C_4  and  C_6
REMARK    5  A    between atoms: C_6  and  C_7
REMARK    6  A    between atoms: C_7  and  C_10
REMARK    7  A    between atoms: N_8  and  O_9
REMARK                            x       y       z     vdW  Elec       q    Type
REMARK                         _______ _______ _______ _____ _____    ______ ____
ROOT
ATOM      1  C   UNL     1       5.491   4.474  17.004  0.00  0.00    +0.000 C 
ATOM      2  N   UNL     1       4.596   3.523  17.015  0.00  0.00    +0.000 NA
ENDROOT
BRANCH   1   3
ATOM      3  C   UNL     1       6.436   4.745  18.058  0.00  0.00    +0.000 A 
ATOM      4  N   UNL     1       7.739   4.555  17.980  0.00  0.00    +0.000 NA
ATOM      5  N   UNL     1       8.260   4.949  19.190  0.00  0.00    +0.000 NA
ATOM      6  N   UNL     1       7.302   5.374  20.001  0.00  0.00    +0.000 NA
ATOM      7  N   UNL     1       6.172   5.245  19.298  0.00  0.00    +0.000 N 
ATOM      8  H   UNL     1       5.278   5.507  19.695  0.00  0.00    +0.000 HD
ENDBRANCH   1   3
BRANCH   2   9
ATOM      9  O   UNL     1       4.603   2.737  18.174  0.00  0.00    +0.000 OA
ATOM     10  H   UNL     1       3.770   2.229  18.080  0.00  0.00    +0.000 HD
ENDBRANCH   2   9
BRANCH   1  11
ATOM     11  C   UNL     1       5.547   5.350  15.772  0.00  0.00    +0.000 C 
BRANCH  11  12
ATOM     12  C   UNL     1       6.535   4.813  14.784  0.00  0.00    +0.000 C 
ATOM     13  O   UNL     1       7.629   5.318  14.563  0.00  0.00    +0.000 OA
BRANCH  12  14
ATOM     14  O   UNL     1       6.004   3.764  14.102  0.00  0.00    +0.000 OA
BRANCH  14  16
ATOM     15  C   UNL     1       5.163   3.214  11.930  0.00  0.00    +0.000 C 
ATOM     16  C   UNL     1       6.376   3.668  12.720  0.00  0.00    +0.000 C 
ENDBRANCH  14  16
ENDBRANCH  12  14
ENDBRANCH  11  12
ENDBRANCH   1  11
TORSDOF 6
ENDMDL
MODEL 6
REMARK VINA RESULT:      -5.9      1.038      1.410
REMARK  Name = 
REMARK  7 active torsions:
REMARK  status: ('A' for Active; 'I' for Inactive)
REMARK    1  A    between atoms: C_1  and  C_2
REMARK    2  A    between atoms: C_2  and  O_3
REMARK    3  A    between atoms: O_3  and  C_4
REMARK    4  A    between atoms: C_4  and  C_6
REMARK    5  A    between atoms: C_6  and  C_7
REMARK    6  A    between atoms: C_7  and  C_10
REMARK    7  A    between atoms: N_8  and  O_9
REMARK                            x       y       z     vdW  Elec       q    Type
REMARK                         _______ _______ _______ _____ _____    ______ ____
ROOT
ATOM      1  C   UNL     1       6.341   5.374  18.977  0.00  0.00    +0.000 C 
ATOM      2  N   UNL     1       7.103   5.360  20.037  0.00  0.00    +0.000 NA
ENDROOT
BRANCH   1   3
ATOM      3  C   UNL     1       6.805   5.339  17.613  0.00  0.00    +0.000 A 
ATOM      4  N   UNL     1       6.725   6.337  16.754  0.00  0.00    +0.000 NA
ATOM      5  N   UNL     1       7.290   5.888  15.585  0.00  0.00    +0.000 NA
ATOM      6  N   UNL     1       7.712   4.639  15.713  0.00  0.00    +0.000 NA
ATOM      7  N   UNL     1       7.409   4.299  16.970  0.00  0.00    +0.000 N 
ATOM      8  H   UNL     1       7.631   3.379  17.331  0.00  0.00    +0.000 HD
ENDBRANCH   1   3
BRANCH   2   9
ATOM      9  O   UNL     1       8.475   5.309  19.761  0.00  0.00    +0.000 OA
ATOM     10  H   UNL     1       8.524   4.575  19.113  0.00  0.00    +0.000 HD
ENDBRANCH   2   9
BRANCH   1  11
ATOM     11  C   UNL     1       4.846   5.410  19.205  0.00  0.00    +0.000 C 
BRANCH  11  12
ATOM     12  C   UNL     1       4.158   4.367  18.382  0.00  0.00    +0.000 C 
ATOM     13  O   UNL     1       3.486   4.610  17.387  0.00  0.00    +0.000 OA
BRANCH  12  14
ATOM     14  O   UNL     1       4.294   3.142  18.955  0.00  0.00    +0.000 OA
BRANCH  14  16
ATOM     15  C   UNL     1       2.153   2.224  19.508  0.00  0.00    +0.000 C 
ATOM     16  C   UNL     1       3.414   2.869  20.054  0.00  0.00    +0.000 C 
ENDBRANCH  14  16
ENDBRANCH  12  14
ENDBRANCH  11  12
ENDBRANCH   1  11
TORSDOF 6
ENDMDL
MODEL 7
REMARK VINA RESULT:      -5.9      1.156      1.338
REMARK  Name = 
REMARK  7 active torsions:
REMARK  status: ('A' for Active; 'I' for Inactive)
REMARK    1  A    between atoms: C_1  and  C_2
REMARK    2  A    between atoms: C_2  and  O_3
REMARK    3  A    between atoms: O_3  and  C_4
REMARK    4  A    between atoms: C_4  and  C_6
REMARK    5  A    between atoms: C_6  and  C_7
REMARK    6  A    between atoms: C_7  and  C_10
REMARK    7  A    between atoms: N_8  and  O_9
REMARK                            x       y       z     vdW  Elec       q    Type
REMARK                         _______ _______ _______ _____ _____    ______ ____
ROOT
ATOM      1  C   UNL     1       6.084   5.227  18.640  0.00  0.00    +0.000 C 
ATOM      2  N   UNL     1       6.827   5.255  19.714  0.00  0.00    +0.000 NA
ENDROOT
BRANCH   1   3
ATOM      3  C   UNL     1       6.573   5.129  17.288  0.00  0.00    +0.000 A 
ATOM      4  N   UNL     1       7.257   6.063  16.655  0.00  0.00    +0.000 NA
ATOM      5  N   UNL     1       7.532   5.560  15.406  0.00  0.00    +0.000 NA
ATOM      6  N   UNL     1       7.029   4.343  15.264  0.00  0.00    +0.000 NA
ATOM      7  N   UNL     1       6.434   4.077  16.432  0.00  0.00    +0.000 N 
ATOM      8  H   UNL     1       5.965   3.194  16.591  0.00  0.00    +0.000 HD
ENDBRANCH   1   3
BRANCH   2   9
ATOM      9  O   UNL     1       8.203   5.182  19.466  0.00  0.00    +0.000 OA
ATOM     10  H   UNL     1       8.538   4.785  20.297  0.00  0.00    +0.000 HD
ENDBRANCH   2   9
BRANCH   1  11
ATOM     11  C   UNL     1       4.585   5.285  18.839  0.00  0.00    +0.000 C 
BRANCH  11  12
ATOM     12  C   UNL     1       4.020   3.909  19.009  0.00  0.00    +0.000 C 
ATOM     13  O   UNL     1       4.048   3.044  18.142  0.00  0.00    +0.000 OA
BRANCH  12  14
ATOM     14  O   UNL     1       3.383   3.800  20.205  0.00  0.00    +0.000 OA
BRANCH  14  16
ATOM     15  C   UNL     1       0.998   3.619  20.303  0.00  0.00    +0.000 C 
ATOM     16  C   UNL     1       2.308   2.852  20.252  0.00  0.00    +0.000 C 
ENDBRANCH  14  16
ENDBRANCH  12  14
ENDBRANCH  11  12
ENDBRANCH   1  11
TORSDOF 6
ENDMDL
MODEL 8
REMARK VINA RESULT:      -5.9      2.620      4.006
REMARK  Name = 
REMARK  7 active torsions:
REMARK  status: ('A' for Active; 'I' for Inactive)
REMARK    1  A    between atoms: C_1  and  C_2
REMARK    2  A    between atoms: C_2  and  O_3
REMARK    3  A    between atoms: O_3  and  C_4
REMARK    4  A    between atoms: C_4  and  C_6
REMARK    5  A    between atoms: C_6  and  C_7
REMARK    6  A    between atoms: C_7  and  C_10
REMARK    7  A    between atoms: N_8  and  O_9
REMARK                            x       y       z     vdW  Elec       q    Type
REMARK                         _______ _______ _______ _____ _____    ______ ____
ROOT
ATOM      1  C   UNL     1       4.868   4.171  18.021  0.00  0.00    +0.000 C 
ATOM      2  N   UNL     1       4.226   3.074  18.320  0.00  0.00    +0.000 NA
ENDROOT
BRANCH   1   3
ATOM      3  C   UNL     1       6.116   4.595  18.605  0.00  0.00    +0.000 A 
ATOM      4  N   UNL     1       6.240   5.266  19.735  0.00  0.00    +0.000 NA
ATOM      5  N   UNL     1       7.588   5.451  19.927  0.00  0.00    +0.000 NA
ATOM      6  N   UNL     1       8.286   4.910  18.940  0.00  0.00    +0.000 NA
ATOM      7  N   UNL     1       7.372   4.381  18.120  0.00  0.00    +0.000 N 
ATOM      8  H   UNL     1       7.646   3.897  17.274  0.00  0.00    +0.000 HD
ENDBRANCH   1   3
BRANCH   2   9
ATOM      9  O   UNL     1       4.849   2.288  19.296  0.00  0.00    +0.000 OA
ATOM     10  H   UNL     1       4.170   1.603  19.470  0.00  0.00    +0.000 HD
ENDBRANCH   2   9
BRANCH   1  11
ATOM     11  C   UNL     1       4.257   5.059  16.959  0.00  0.00    +0.000 C 
BRANCH  11  12
ATOM     12  C   UNL     1       5.237   5.322  15.858  0.00  0.00    +0.000 C 
ATOM     13  O   UNL     1       5.916   6.338  15.772  0.00  0.00    +0.000 OA
BRANCH  12  14
ATOM     14  O   UNL     1       5.182   4.334  14.926  0.00  0.00    +0.000 OA
BRANCH  14  16
ATOM     15  C   UNL     1       6.118   3.602  12.848  0.00  0.00    +0.000 C 
ATOM     16  C   UNL     1       6.422   4.027  14.273  0.00  0.00    +0.000 C 
ENDBRANCH  14  16
ENDBRANCH  12  14
ENDBRANCH  11  12
ENDBRANCH   1  11
TORSDOF 6
ENDMDL
MODEL 9
REMARK VINA RESULT:      -5.9      2.826      4.031
REMARK  Name = 
REMARK  7 active torsions:
REMARK  status: ('A' for Active; 'I' for Inactive)
REMARK    1  A    between atoms: C_1  and  C_2
REMARK    2  A    between atoms: C_2  and  O_3
REMARK    3  A    between atoms: O_3  and  C_4
REMARK    4  A    between atoms: C_4  and  C_6
REMARK    5  A    between atoms: C_6  and  C_7
REMARK    6  A    between atoms: C_7  and  C_10
REMARK    7  A    between atoms: N_8  and  O_9
REMARK                            x       y       z     vdW  Elec       q    Type
REMARK                         _______ _______ _______ _____ _____    ______ ____
ROOT
ATOM      1  C   UNL     1       7.052   4.867  18.406  0.00  0.00    +0.000 C 
ATOM      2  N   UNL     1       8.064   5.292  19.114  0.00  0.00    +0.000 NA
ENDROOT
BRANCH   1   3
ATOM      3  C   UNL     1       5.746   4.548  18.923  0.00  0.00    +0.000 A 
ATOM      4  N   UNL     1       4.849   5.428  19.327  0.00  0.00    +0.000 NA
ATOM      5  N   UNL     1       3.751   4.705  19.728  0.00  0.00    +0.000 NA
ATOM      6  N   UNL     1       3.960   3.405  19.577  0.00  0.00    +0.000 NA
ATOM      7  N   UNL     1       5.197   3.309  19.080  0.00  0.00    +0.000 N 
ATOM      8  H   UNL     1       5.607   2.408  18.867  0.00  0.00    +0.000 HD
ENDBRANCH   1   3
BRANCH   2   9
ATOM      9  O   UNL     1       7.795   5.426  20.482  0.00  0.00    +0.000 OA
ATOM     10  H   UNL     1       7.136   6.152  20.489  0.00  0.00    +0.000 HD
ENDBRANCH   2   9
BRANCH   1  11
ATOM     11  C   UNL     1       7.270   4.718  16.916  0.00  0.00    +0.000 C 
BRANCH  11  12
ATOM     12  C   UNL     1       6.491   5.749  16.160  0.00  0.00    +0.000 C 
ATOM     13  O   UNL     1       6.527   6.949  16.402  0.00  0.00    +0.000 OA
BRANCH  12  14
ATOM     14  O   UNL     1       5.669   5.155  15.255  0.00  0.00    +0.000 OA
BRANCH  14  16
ATOM     15  C   UNL     1       6.222   3.821  13.347  0.00  0.00    +0.000 C 
ATOM     16  C   UNL     1       6.040   3.830  14.854  0.00  0.00    +0.000 C 
ENDBRANCH  14  16
ENDBRANCH  12  14
ENDBRANCH  11  12
ENDBRANCH   1  11
TORSDOF 6
ENDMDL
