MODEL 1
REMARK VINA RESULT:      -7.8      0.000      0.000
REMARK  Name = 
REMARK  8 active torsions:
REMARK  status: ('A' for Active; 'I' for Inactive)
REMARK    1  A    between atoms: C_1  and  N_2
REMARK    2  A    between atoms: N_2  and  C_3
REMARK    3  A    between atoms: C_9  and  C_10
REMARK    4  A    between atoms: C_10  and  N_11
REMARK    5  A    between atoms: N_11  and  C_12
REMARK    6  A    between atoms: N_11  and  C_13
REMARK    7  A    between atoms: C_13  and  C_14
REMARK    8  A    between atoms: C_13  and  C_21
REMARK                            x       y       z     vdW  Elec       q    Type
REMARK                         _______ _______ _______ _____ _____    ______ ____
ROOT
ATOM      1  C   UNL     1       4.673   3.234  17.536  0.00  0.00    +0.000 C 
ENDROOT
BRANCH   1  10
ATOM      2  C   UNL     1       7.895   5.133  12.747  0.00  0.00    +0.000 C 
ATOM      3  N   UNL     1       6.700   4.577  13.341  0.00  0.00    +0.000 N 
ATOM      4  C   UNL     1       6.054   3.447  12.696  0.00  0.00    +0.000 C 
ATOM      5  C   UNL     1       6.577   4.705  14.717  0.00  0.00    +0.000 A 
ATOM      6  N   UNL     1       7.217   5.708  15.304  0.00  0.00    +0.000 NA
ATOM      7  C   UNL     1       7.020   5.851  16.603  0.00  0.00    +0.000 A 
ATOM      8  N   UNL     1       7.684   6.893  17.219  0.00  0.00    +0.000 N 
ATOM      9  N   UNL     1       6.263   5.071  17.355  0.00  0.00    +0.000 NA
ATOM     10  C   UNL     1       5.644   4.086  16.701  0.00  0.00    +0.000 A 
ATOM     11  N   UNL     1       5.808   3.855  15.392  0.00  0.00    +0.000 NA
ATOM     12  H   UNL     1       8.465   7.187  16.648  0.00  0.00    +0.000 HD
ATOM     13  H   UNL     1       7.870   6.671  18.185  0.00  0.00    +0.000 HD
ENDBRANCH   1  10
BRANCH   1  14
ATOM     14  N   UNL     1       4.145   3.693  18.849  0.00  0.00    +0.000 NA
ATOM     15  C   UNL     1       4.514   2.814  19.943  0.00  0.00    +0.000 C 
BRANCH  14  16
ATOM     16  C   UNL     1       2.770   4.209  18.798  0.00  0.00    +0.000 C 
BRANCH  16  17
ATOM     17  C   UNL     1       2.606   5.711  19.090  0.00  0.00    +0.000 A 
ATOM     18  C   UNL     1       2.054   6.193  20.293  0.00  0.00    +0.000 A 
ATOM     19  C   UNL     1       1.655   7.526  20.412  0.00  0.00    +0.000 A 
ATOM     20  C   UNL     1       1.846   8.395  19.346  0.00  0.00    +0.000 A 
ATOM     21  F   UNL     1       1.394   9.654  19.432  0.00  0.00    +0.000 F 
ATOM     22  C   UNL     1       2.479   7.971  18.185  0.00  0.00    +0.000 A 
ATOM     23  C   UNL     1       2.873   6.636  18.063  0.00  0.00    +0.000 A 
ENDBRANCH  16  17
BRANCH  16  24
ATOM     24  C   UNL     1       1.755   3.408  19.569  0.00  0.00    +0.000 C 
ATOM     25  C   UNL     1       0.411   3.016  18.989  0.00  0.00    +0.000 C 
ATOM     26  C   UNL     1       1.469   1.973  19.178  0.00  0.00    +0.000 C 
ENDBRANCH  16  24
ENDBRANCH  14  16
ENDBRANCH   1  14
TORSDOF 5
ENDMDL
MODEL 2
REMARK VINA RESULT:      -7.4      3.902      7.007
REMARK  Name = 
REMARK  8 active torsions:
REMARK  status: ('A' for Active; 'I' for Inactive)
REMARK    1  A    between atoms: C_1  and  N_2
REMARK    2  A    between atoms: N_2  and  C_3
REMARK    3  A    between atoms: C_9  and  C_10
REMARK    4  A    between atoms: C_10  and  N_11
REMARK    5  A    between atoms: N_11  and  C_12
REMARK    6  A    between atoms: N_11  and  C_13
REMARK    7  A    between atoms: C_13  and  C_14
REMARK    8  A    between atoms: C_13  and  C_21
REMARK                            x       y       z     vdW  Elec       q    Type
REMARK                         _______ _______ _______ _____ _____    ______ ____
ROOT
ATOM      1  C   UNL     1       2.477   6.312  20.424  0.00  0.00    +0.000 C 
ENDROOT
BRANCH   1  10
ATOM      2  C   UNL     1      -0.836  11.256  21.649  0.00  0.00    +0.000 C 
ATOM      3  N   UNL     1       0.090  10.215  22.032  0.00  0.00    +0.000 N 
ATOM      4  C   UNL     1      -0.092   9.547  23.309  0.00  0.00    +0.000 C 
ATOM      5  C   UNL     1       0.682   9.504  20.998  0.00  0.00    +0.000 A 
ATOM      6  N   UNL     1       0.793  10.104  19.820  0.00  0.00    +0.000 NA
ATOM      7  C   UNL     1       1.429   9.432  18.876  0.00  0.00    +0.000 A 
ATOM      8  N   UNL     1       1.546  10.051  17.648  0.00  0.00    +0.000 N 
ATOM      9  N   UNL     1       1.938   8.219  19.007  0.00  0.00    +0.000 NA
ATOM     10  C   UNL     1       1.797   7.677  20.219  0.00  0.00    +0.000 A 
ATOM     11  N   UNL     1       1.145   8.277  21.223  0.00  0.00    +0.000 NA
ATOM     12  H   UNL     1       0.852  10.781  17.565  0.00  0.00    +0.000 HD
ATOM     13  H   UNL     1       1.592   9.365  16.909  0.00  0.00    +0.000 HD
ENDBRANCH   1  10
BRANCH   1  14
ATOM     14  N   UNL     1       2.063   5.099  19.671  0.00  0.00    +0.000 NA
ATOM     15  C   UNL     1       1.077   4.304  20.379  0.00  0.00    +0.000 C 
BRANCH  14  16
ATOM     16  C   UNL     1       3.165   4.405  18.992  0.00  0.00    +0.000 C 
BRANCH  16  17
ATOM     17  C   UNL     1       4.346   5.288  18.553  0.00  0.00    +0.000 A 
ATOM     18  C   UNL     1       4.292   6.115  17.414  0.00  0.00    +0.000 A 
ATOM     19  C   UNL     1       5.455   6.675  16.882  0.00  0.00    +0.000 A 
ATOM     20  C   UNL     1       6.673   6.449  17.510  0.00  0.00    +0.000 A 
ATOM     21  F   UNL     1       7.798   6.922  16.958  0.00  0.00    +0.000 F 
ATOM     22  C   UNL     1       6.741   5.721  18.691  0.00  0.00    +0.000 A 
ATOM     23  C   UNL     1       5.579   5.155  19.221  0.00  0.00    +0.000 A 
ENDBRANCH  16  17
BRANCH  16  24
ATOM     24  C   UNL     1       2.753   3.484  17.875  0.00  0.00    +0.000 C 
ATOM     25  C   UNL     1       3.395   2.130  17.650  0.00  0.00    +0.000 C 
ATOM     26  C   UNL     1       1.999   2.208  18.186  0.00  0.00    +0.000 C 
ENDBRANCH  16  24
ENDBRANCH  14  16
ENDBRANCH   1  14
TORSDOF 5
ENDMDL
MODEL 3
REMARK VINA RESULT:      -7.3      3.906      7.054
REMARK  Name = 
REMARK  8 active torsions:
REMARK  status: ('A' for Active; 'I' for Inactive)
REMARK    1  A    between atoms: C_1  and  N_2
REMARK    2  A    between atoms: N_2  and  C_3
REMARK    3  A    between atoms: C_9  and  C_10
REMARK    4  A    between atoms: C_10  and  N_11
REMARK    5  A    between atoms: N_11  and  C_12
REMARK    6  A    between atoms: N_11  and  C_13
REMARK    7  A    between atoms: C_13  and  C_14
REMARK    8  A    between atoms: C_13  and  C_21
REMARK                            x       y       z     vdW  Elec       q    Type
REMARK                         _______ _______ _______ _____ _____    ______ ____
ROOT
ATOM      1  C   UNL     1       2.152   6.183  20.169  0.00  0.00    +0.000 C 
ENDROOT
BRANCH   1  10
ATOM      2  C   UNL     1      -0.516  11.403  21.766  0.00  0.00    +0.000 C 
ATOM      3  N   UNL     1       0.257  10.221  22.071  0.00  0.00    +0.000 N 
ATOM      4  C   UNL     1      -0.040   9.480  23.285  0.00  0.00    +0.000 C 
ATOM      5  C   UNL     1       0.776   9.526  20.988  0.00  0.00    +0.000 A 
ATOM      6  N   UNL     1       0.991  10.200  19.867  0.00  0.00    +0.000 NA
ATOM      7  C   UNL     1       1.556   9.530  18.877  0.00  0.00    +0.000 A 
ATOM      8  N   UNL     1       1.782  10.227  17.707  0.00  0.00    +0.000 N 
ATOM      9  N   UNL     1       1.900   8.253  18.912  0.00  0.00    +0.000 NA
ATOM     10  C   UNL     1       1.661   7.637  20.071  0.00  0.00    +0.000 A 
ATOM     11  N   UNL     1       1.069   8.234  21.114  0.00  0.00    +0.000 NA
ATOM     12  H   UNL     1       1.191  11.046  17.677  0.00  0.00    +0.000 HD
ATOM     13  H   UNL     1       1.755   9.603  16.914  0.00  0.00    +0.000 HD
ENDBRANCH   1  10
BRANCH   1  14
ATOM     14  N   UNL     1       2.716   5.456  19.001  0.00  0.00    +0.000 NA
ATOM     15  C   UNL     1       1.707   4.739  18.243  0.00  0.00    +0.000 C 
BRANCH  14  16
ATOM     16  C   UNL     1       3.999   4.791  19.265  0.00  0.00    +0.000 C 
BRANCH  16  17
ATOM     17  C   UNL     1       5.232   5.417  18.593  0.00  0.00    +0.000 A 
ATOM     18  C   UNL     1       6.519   5.355  19.163  0.00  0.00    +0.000 A 
ATOM     19  C   UNL     1       7.551   6.167  18.685  0.00  0.00    +0.000 A 
ATOM     20  C   UNL     1       7.316   7.011  17.609  0.00  0.00    +0.000 A 
ATOM     21  F   UNL     1       8.281   7.845  17.201  0.00  0.00    +0.000 F 
ATOM     22  C   UNL     1       6.085   7.018  16.965  0.00  0.00    +0.000 A 
ATOM     23  C   UNL     1       5.050   6.212  17.445  0.00  0.00    +0.000 A 
ENDBRANCH  16  17
BRANCH  16  24
ATOM     24  C   UNL     1       3.997   3.297  19.077  0.00  0.00    +0.000 C 
ATOM     25  C   UNL     1       4.556   2.341  20.112  0.00  0.00    +0.000 C 
ATOM     26  C   UNL     1       3.075   2.431  19.909  0.00  0.00    +0.000 C 
ENDBRANCH  16  24
ENDBRANCH  14  16
ENDBRANCH   1  14
TORSDOF 5
ENDMDL
MODEL 4
REMARK VINA RESULT:      -7.3      1.222      1.420
REMARK  Name = 
REMARK  8 active torsions:
REMARK  status: ('A' for Active; 'I' for Inactive)
REMARK    1  A    between atoms: C_1  and  N_2
REMARK    2  A    between atoms: N_2  and  C_3
REMARK    3  A    between atoms: C_9  and  C_10
REMARK    4  A    between atoms: C_10  and  N_11
REMARK    5  A    between atoms: N_11  and  C_12
REMARK    6  A    between atoms: N_11  and  C_13
REMARK    7  A    between atoms: C_13  and  C_14
REMARK    8  A    between atoms: C_13  and  C_21
REMARK                            x       y       z     vdW  Elec       q    Type
REMARK                         _______ _______ _______ _____ _____    ______ ____
ROOT
ATOM      1  C   UNL     1       5.008   4.510  19.181  0.00  0.00    +0.000 C 
ENDROOT
BRANCH   1  10
ATOM      2  C   UNL     1       7.678   5.294  13.779  0.00  0.00    +0.000 C 
ATOM      3  N   UNL     1       6.559   4.896  14.602  0.00  0.00    +0.000 N 
ATOM      4  C   UNL     1       5.855   3.665  14.287  0.00  0.00    +0.000 C 
ATOM      5  C   UNL     1       6.584   5.317  15.924  0.00  0.00    +0.000 A 
ATOM      6  N   UNL     1       7.276   6.411  16.211  0.00  0.00    +0.000 NA
ATOM      7  C   UNL     1       7.221   6.831  17.464  0.00  0.00    +0.000 A 
ATOM      8  N   UNL     1       7.940   7.969  17.768  0.00  0.00    +0.000 N 
ATOM      9  N   UNL     1       6.555   6.241  18.442  0.00  0.00    +0.000 NA
ATOM     10  C   UNL     1       5.877   5.149  18.083  0.00  0.00    +0.000 A 
ATOM     11  N   UNL     1       5.899   4.642  16.844  0.00  0.00    +0.000 NA
ATOM     12  H   UNL     1       8.652   8.122  17.067  0.00  0.00    +0.000 HD
ATOM     13  H   UNL     1       8.232   7.955  18.734  0.00  0.00    +0.000 HD
ENDBRANCH   1  10
BRANCH   1  14
ATOM     14  N   UNL     1       3.745   3.788  18.873  0.00  0.00    +0.000 NA
ATOM     15  C   UNL     1       3.712   3.262  17.521  0.00  0.00    +0.000 C 
BRANCH  14  16
ATOM     16  C   UNL     1       2.537   4.434  19.403  0.00  0.00    +0.000 C 
BRANCH  16  17
ATOM     17  C   UNL     1       2.472   5.964  19.253  0.00  0.00    +0.000 A 
ATOM     18  C   UNL     1       2.144   6.817  20.326  0.00  0.00    +0.000 A 
ATOM     19  C   UNL     1       1.814   8.155  20.099  0.00  0.00    +0.000 A 
ATOM     20  C   UNL     1       1.852   8.659  18.806  0.00  0.00    +0.000 A 
ATOM     21  F   UNL     1       1.462   9.920  18.578  0.00  0.00    +0.000 F 
ATOM     22  C   UNL     1       2.269   7.867  17.744  0.00  0.00    +0.000 A 
ATOM     23  C   UNL     1       2.594   6.526  17.969  0.00  0.00    +0.000 A 
ENDBRANCH  16  17
BRANCH  16  24
ATOM     24  C   UNL     1       2.150   4.024  20.799  0.00  0.00    +0.000 C 
ATOM     25  C   UNL     1       1.182   2.893  21.082  0.00  0.00    +0.000 C 
ATOM     26  C   UNL     1       2.641   2.707  21.364  0.00  0.00    +0.000 C 
ENDBRANCH  16  24
ENDBRANCH  14  16
ENDBRANCH   1  14
TORSDOF 5
ENDMDL
MODEL 5
REMARK VINA RESULT:      -7.2      4.101      7.052
REMARK  Name = 
REMARK  8 active torsions:
REMARK  status: ('A' for Active; 'I' for Inactive)
REMARK    1  A    between atoms: C_1  and  N_2
REMARK    2  A    between atoms: N_2  and  C_3
REMARK    3  A    between atoms: C_9  and  C_10
REMARK    4  A    between atoms: C_10  and  N_11
REMARK    5  A    between atoms: N_11  and  C_12
REMARK    6  A    between atoms: N_11  and  C_13
REMARK    7  A    between atoms: C_13  and  C_14
REMARK    8  A    between atoms: C_13  and  C_21
REMARK                            x       y       z     vdW  Elec       q    Type
REMARK                         _______ _______ _______ _____ _____    ______ ____
ROOT
ATOM      1  C   UNL     1       2.039   7.647  17.645  0.00  0.00    +0.000 C 
ENDROOT
BRANCH   1  10
ATOM      2  C   UNL     1      -0.203  11.663  21.616  0.00  0.00    +0.000 C 
ATOM      3  N   UNL     1       0.397  10.389  21.292  0.00  0.00    +0.000 N 
ATOM      4  C   UNL     1      -0.113   9.189  21.932  0.00  0.00    +0.000 C 
ATOM      5  C   UNL     1       0.955  10.272  20.027  0.00  0.00    +0.000 A 
ATOM      6  N   UNL     1       1.366  11.381  19.428  0.00  0.00    +0.000 NA
ATOM      7  C   UNL     1       1.961  11.232  18.257  0.00  0.00    +0.000 A 
ATOM      8  N   UNL     1       2.391  12.383  17.629  0.00  0.00    +0.000 N 
ATOM      9  N   UNL     1       2.157  10.080  17.637  0.00  0.00    +0.000 NA
ATOM     10  C   UNL     1       1.724   9.004  18.298  0.00  0.00    +0.000 A 
ATOM     11  N   UNL     1       1.088   9.069  19.475  0.00  0.00    +0.000 NA
ATOM     12  H   UNL     1       1.901  13.182  18.006  0.00  0.00    +0.000 HD
ATOM     13  H   UNL     1       2.385  12.262  16.627  0.00  0.00    +0.000 HD
ENDBRANCH   1  10
BRANCH   1  14
ATOM     14  N   UNL     1       3.294   6.903  17.931  0.00  0.00    +0.000 NA
ATOM     15  C   UNL     1       4.461   7.508  17.316  0.00  0.00    +0.000 C 
BRANCH  14  16
ATOM     16  C   UNL     1       3.154   5.441  17.878  0.00  0.00    +0.000 C 
BRANCH  16  17
ATOM     17  C   UNL     1       2.387   4.797  19.046  0.00  0.00    +0.000 A 
ATOM     18  C   UNL     1       2.749   4.999  20.393  0.00  0.00    +0.000 A 
ATOM     19  C   UNL     1       2.226   4.186  21.402  0.00  0.00    +0.000 A 
ATOM     20  C   UNL     1       1.306   3.199  21.077  0.00  0.00    +0.000 A 
ATOM     21  F   UNL     1       0.862   2.370  22.032  0.00  0.00    +0.000 F 
ATOM     22  C   UNL     1       0.856   3.046  19.772  0.00  0.00    +0.000 A 
ATOM     23  C   UNL     1       1.383   3.853  18.761  0.00  0.00    +0.000 A 
ENDBRANCH  16  17
BRANCH  16  24
ATOM     24  C   UNL     1       4.426   4.684  17.602  0.00  0.00    +0.000 C 
ATOM     25  C   UNL     1       4.435   3.254  17.102  0.00  0.00    +0.000 C 
ATOM     26  C   UNL     1       4.822   4.365  16.176  0.00  0.00    +0.000 C 
ENDBRANCH  16  24
ENDBRANCH  14  16
ENDBRANCH   1  14
TORSDOF 5
ENDMDL
MODEL 6
REMARK VINA RESULT:      -7.1      3.945      7.226
REMARK  Name = 
REMARK  8 active torsions:
REMARK  status: ('A' for Active; 'I' for Inactive)
REMARK    1  A    between atoms: C_1  and  N_2
REMARK    2  A    between atoms: N_2  and  C_3
REMARK    3  A    between atoms: C_9  and  C_10
REMARK    4  A    between atoms: C_10  and  N_11
REMARK    5  A    between atoms: N_11  and  C_12
REMARK    6  A    between atoms: N_11  and  C_13
REMARK    7  A    between atoms: C_13  and  C_14
REMARK    8  A    between atoms: C_13  and  C_21
REMARK                            x       y       z     vdW  Elec       q    Type
REMARK                         _______ _______ _______ _____ _____    ______ ____
ROOT
ATOM      1  C   UNL     1       2.384   6.186  20.057  0.00  0.00    +0.000 C 
ENDROOT
BRANCH   1  10
ATOM      2  C   UNL     1      -0.525  11.272  21.668  0.00  0.00    +0.000 C 
ATOM      3  N   UNL     1       0.311  10.132  21.968  0.00  0.00    +0.000 N 
ATOM      4  C   UNL     1       0.068   9.382  23.188  0.00  0.00    +0.000 C 
ATOM      5  C   UNL     1       0.851   9.459  20.881  0.00  0.00    +0.000 A 
ATOM      6  N   UNL     1       1.017  10.138  19.754  0.00  0.00    +0.000 NA
ATOM      7  C   UNL     1       1.602   9.493  18.760  0.00  0.00    +0.000 A 
ATOM      8  N   UNL     1       1.777  10.195  17.584  0.00  0.00    +0.000 N 
ATOM      9  N   UNL     1       2.010   8.236  18.795  0.00  0.00    +0.000 NA
ATOM     10  C   UNL     1       1.818   7.613  19.960  0.00  0.00    +0.000 A 
ATOM     11  N   UNL     1       1.210   8.184  21.008  0.00  0.00    +0.000 NA
ATOM     12  H   UNL     1       1.145  10.983  17.559  0.00  0.00    +0.000 HD
ATOM     13  H   UNL     1       1.772   9.567  16.794  0.00  0.00    +0.000 HD
ENDBRANCH   1  10
BRANCH   1  14
ATOM     14  N   UNL     1       2.671   5.364  18.852  0.00  0.00    +0.000 NA
ATOM     15  C   UNL     1       1.486   4.726  18.309  0.00  0.00    +0.000 C 
BRANCH  14  16
ATOM     16  C   UNL     1       3.911   4.581  18.938  0.00  0.00    +0.000 C 
BRANCH  16  17
ATOM     17  C   UNL     1       4.951   4.846  17.835  0.00  0.00    +0.000 A 
ATOM     18  C   UNL     1       4.588   5.116  16.500  0.00  0.00    +0.000 A 
ATOM     19  C   UNL     1       5.539   5.067  15.478  0.00  0.00    +0.000 A 
ATOM     20  C   UNL     1       6.864   4.793  15.789  0.00  0.00    +0.000 A 
ATOM     21  F   UNL     1       7.761   4.670  14.802  0.00  0.00    +0.000 F 
ATOM     22  C   UNL     1       7.266   4.623  17.107  0.00  0.00    +0.000 A 
ATOM     23  C   UNL     1       6.315   4.666  18.130  0.00  0.00    +0.000 A 
ENDBRANCH  16  17
BRANCH  16  24
ATOM     24  C   UNL     1       3.723   3.101  19.139  0.00  0.00    +0.000 C 
ATOM     25  C   UNL     1       4.563   2.293  20.109  0.00  0.00    +0.000 C 
ATOM     26  C   UNL     1       3.130   2.583  20.433  0.00  0.00    +0.000 C 
ENDBRANCH  16  24
ENDBRANCH  14  16
ENDBRANCH   1  14
TORSDOF 5
ENDMDL
MODEL 7
REMARK VINA RESULT:      -7.0      1.334      1.605
REMARK  Name = 
REMARK  8 active torsions:
REMARK  status: ('A' for Active; 'I' for Inactive)
REMARK    1  A    between atoms: C_1  and  N_2
REMARK    2  A    between atoms: N_2  and  C_3
REMARK    3  A    between atoms: C_9  and  C_10
REMARK    4  A    between atoms: C_10  and  N_11
REMARK    5  A    between atoms: N_11  and  C_12
REMARK    6  A    between atoms: N_11  and  C_13
REMARK    7  A    between atoms: C_13  and  C_14
REMARK    8  A    between atoms: C_13  and  C_21
REMARK                            x       y       z     vdW  Elec       q    Type
REMARK                         _______ _______ _______ _____ _____    ______ ____
ROOT
ATOM      1  C   UNL     1       4.794   3.690  19.606  0.00  0.00    +0.000 C 
ENDROOT
BRANCH   1  10
ATOM      2  C   UNL     1       7.490   5.336  14.415  0.00  0.00    +0.000 C 
ATOM      3  N   UNL     1       6.327   4.948  15.181  0.00  0.00    +0.000 N 
ATOM      4  C   UNL     1       5.402   3.983  14.614  0.00  0.00    +0.000 C 
ATOM      5  C   UNL     1       6.449   5.006  16.562  0.00  0.00    +0.000 A 
ATOM      6  N   UNL     1       7.337   5.851  17.069  0.00  0.00    +0.000 NA
ATOM      7  C   UNL     1       7.378   5.941  18.387  0.00  0.00    +0.000 A 
ATOM      8  N   UNL     1       8.301   6.818  18.920  0.00  0.00    +0.000 N 
ATOM      9  N   UNL     1       6.627   5.249  19.227  0.00  0.00    +0.000 NA
ATOM     10  C   UNL     1       5.751   4.423  18.651  0.00  0.00    +0.000 A 
ATOM     11  N   UNL     1       5.662   4.252  17.325  0.00  0.00    +0.000 NA
ATOM     12  H   UNL     1       9.020   7.016  18.236  0.00  0.00    +0.000 HD
ATOM     13  H   UNL     1       8.598   6.507  19.832  0.00  0.00    +0.000 HD
ENDBRANCH   1  10
BRANCH   1  14
ATOM     14  N   UNL     1       3.550   4.322  20.121  0.00  0.00    +0.000 NA
ATOM     15  C   UNL     1       2.867   3.504  21.105  0.00  0.00    +0.000 C 
BRANCH  14  16
ATOM     16  C   UNL     1       2.747   4.998  19.092  0.00  0.00    +0.000 C 
BRANCH  16  17
ATOM     17  C   UNL     1       2.426   6.479  19.356  0.00  0.00    +0.000 A 
ATOM     18  C   UNL     1       1.888   6.932  20.578  0.00  0.00    +0.000 A 
ATOM     19  C   UNL     1       1.344   8.214  20.687  0.00  0.00    +0.000 A 
ATOM     20  C   UNL     1       1.374   9.065  19.591  0.00  0.00    +0.000 A 
ATOM     21  F   UNL     1       0.785  10.266  19.671  0.00  0.00    +0.000 F 
ATOM     22  C   UNL     1       1.988   8.680  18.406  0.00  0.00    +0.000 A 
ATOM     23  C   UNL     1       2.527   7.396  18.293  0.00  0.00    +0.000 A 
ENDBRANCH  16  17
BRANCH  16  24
ATOM     24  C   UNL     1       1.510   4.260  18.657  0.00  0.00    +0.000 C 
ATOM     25  C   UNL     1       1.130   4.086  17.200  0.00  0.00    +0.000 C 
ATOM     26  C   UNL     1       1.633   2.911  17.979  0.00  0.00    +0.000 C 
ENDBRANCH  16  24
ENDBRANCH  14  16
ENDBRANCH   1  14
TORSDOF 5
ENDMDL
MODEL 8
REMARK VINA RESULT:      -7.0      3.872      6.884
REMARK  Name = 
REMARK  8 active torsions:
REMARK  status: ('A' for Active; 'I' for Inactive)
REMARK    1  A    between atoms: C_1  and  N_2
REMARK    2  A    between atoms: N_2  and  C_3
REMARK    3  A    between atoms: C_9  and  C_10
REMARK    4  A    between atoms: C_10  and  N_11
REMARK    5  A    between atoms: N_11  and  C_12
REMARK    6  A    between atoms: N_11  and  C_13
REMARK    7  A    between atoms: C_13  and  C_14
REMARK    8  A    between atoms: C_13  and  C_21
REMARK                            x       y       z     vdW  Elec       q    Type
REMARK                         _______ _______ _______ _____ _____    ______ ____
ROOT
ATOM      1  C   UNL     1       2.772   6.476  20.094  0.00  0.00    +0.000 C 
ENDROOT
BRANCH   1  10
ATOM      2  C   UNL     1      -0.749  11.102  21.861  0.00  0.00    +0.000 C 
ATOM      3  N   UNL     1       0.272  10.110  22.109  0.00  0.00    +0.000 N 
ATOM      4  C   UNL     1       0.240   9.363  23.354  0.00  0.00    +0.000 C 
ATOM      5  C   UNL     1       0.823   9.499  20.992  0.00  0.00    +0.000 A 
ATOM      6  N   UNL     1       0.797  10.166  19.846  0.00  0.00    +0.000 NA
ATOM      7  C   UNL     1       1.397   9.592  18.817  0.00  0.00    +0.000 A 
ATOM      8  N   UNL     1       1.373  10.282  17.622  0.00  0.00    +0.000 N 
ATOM      9  N   UNL     1       1.994   8.412  18.837  0.00  0.00    +0.000 NA
ATOM     10  C   UNL     1       1.989   7.798  20.022  0.00  0.00    +0.000 A 
ATOM     11  N   UNL     1       1.382   8.297  21.107  0.00  0.00    +0.000 NA
ATOM     12  H   UNL     1       0.627  10.965  17.636  0.00  0.00    +0.000 HD
ATOM     13  H   UNL     1       1.403   9.641  16.843  0.00  0.00    +0.000 HD
ENDBRANCH   1  10
BRANCH   1  14
ATOM     14  N   UNL     1       2.169   5.175  19.697  0.00  0.00    +0.000 NA
ATOM     15  C   UNL     1       1.353   4.589  20.744  0.00  0.00    +0.000 C 
BRANCH  14  16
ATOM     16  C   UNL     1       3.072   4.299  18.939  0.00  0.00    +0.000 C 
BRANCH  16  17
ATOM     17  C   UNL     1       4.338   4.965  18.373  0.00  0.00    +0.000 A 
ATOM     18  C   UNL     1       5.563   4.978  19.069  0.00  0.00    +0.000 A 
ATOM     19  C   UNL     1       6.600   5.825  18.672  0.00  0.00    +0.000 A 
ATOM     20  C   UNL     1       6.437   6.630  17.553  0.00  0.00    +0.000 A 
ATOM     21  F   UNL     1       7.401   7.498  17.218  0.00  0.00    +0.000 F 
ATOM     22  C   UNL     1       5.278   6.563  16.791  0.00  0.00    +0.000 A 
ATOM     23  C   UNL     1       4.236   5.721  17.190  0.00  0.00    +0.000 A 
ENDBRANCH  16  17
BRANCH  16  24
ATOM     24  C   UNL     1       2.408   3.450  17.887  0.00  0.00    +0.000 C 
ATOM     25  C   UNL     1       2.761   1.992  17.669  0.00  0.00    +0.000 C 
ATOM     26  C   UNL     1       1.449   2.352  18.296  0.00  0.00    +0.000 C 
ENDBRANCH  16  24
ENDBRANCH  14  16
ENDBRANCH   1  14
TORSDOF 5
ENDMDL
MODEL 9
REMARK VINA RESULT:      -7.0      1.245      1.748
REMARK  Name = 
REMARK  8 active torsions:
REMARK  status: ('A' for Active; 'I' for Inactive)
REMARK    1  A    between atoms: C_1  and  N_2
REMARK    2  A    between atoms: N_2  and  C_3
REMARK    3  A    between atoms: C_9  and  C_10
REMARK    4  A    between atoms: C_10  and  N_11
REMARK    5  A    between atoms: N_11  and  C_12
REMARK    6  A    between atoms: N_11  and  C_13
REMARK    7  A    between atoms: C_13  and  C_14
REMARK    8  A    between atoms: C_13  and  C_21
REMARK                            x       y       z     vdW  Elec       q    Type
REMARK                         _______ _______ _______ _____ _____    ______ ____
ROOT
ATOM      1  C   UNL     1       5.070   4.325  19.183  0.00  0.00    +0.000 C 
ENDROOT
BRANCH   1  10
ATOM      2  C   UNL     1       7.663   5.294  13.773  0.00  0.00    +0.000 C 
ATOM      3  N   UNL     1       6.556   4.868  14.598  0.00  0.00    +0.000 N 
ATOM      4  C   UNL     1       5.849   3.647  14.252  0.00  0.00    +0.000 C 
ATOM      5  C   UNL     1       6.599   5.243  15.933  0.00  0.00    +0.000 A 
ATOM      6  N   UNL     1       7.294   6.329  16.248  0.00  0.00    +0.000 NA
ATOM      7  C   UNL     1       7.256   6.705  17.514  0.00  0.00    +0.000 A 
ATOM      8  N   UNL     1       7.978   7.834  17.847  0.00  0.00    +0.000 N 
ATOM      9  N   UNL     1       6.605   6.082  18.481  0.00  0.00    +0.000 NA
ATOM     10  C   UNL     1       5.922   5.001  18.095  0.00  0.00    +0.000 A 
ATOM     11  N   UNL     1       5.928   4.537  16.839  0.00  0.00    +0.000 NA
ATOM     12  H   UNL     1       8.680   8.012  17.141  0.00  0.00    +0.000 HD
ATOM     13  H   UNL     1       8.283   7.788  18.807  0.00  0.00    +0.000 HD
ENDBRANCH   1  10
BRANCH   1  14
ATOM     14  N   UNL     1       3.858   3.527  18.858  0.00  0.00    +0.000 NA
ATOM     15  C   UNL     1       3.812   3.111  17.468  0.00  0.00    +0.000 C 
BRANCH  14  16
ATOM     16  C   UNL     1       2.624   4.025  19.481  0.00  0.00    +0.000 C 
BRANCH  16  17
ATOM     17  C   UNL     1       2.258   5.487  19.174  0.00  0.00    +0.000 A 
ATOM     18  C   UNL     1       2.370   6.041  17.883  0.00  0.00    +0.000 A 
ATOM     19  C   UNL     1       2.310   7.424  17.692  0.00  0.00    +0.000 A 
ATOM     20  C   UNL     1       2.095   8.257  18.782  0.00  0.00    +0.000 A 
ATOM     21  F   UNL     1       2.114   9.585  18.611  0.00  0.00    +0.000 F 
ATOM     22  C   UNL     1       1.881   7.730  20.049  0.00  0.00    +0.000 A 
ATOM     23  C   UNL     1       1.947   6.348  20.243  0.00  0.00    +0.000 A 
ENDBRANCH  16  17
BRANCH  16  24
ATOM     24  C   UNL     1       2.492   3.746  20.954  0.00  0.00    +0.000 C 
ATOM     25  C   UNL     1       1.437   2.817  21.521  0.00  0.00    +0.000 C 
ATOM     26  C   UNL     1       2.871   2.387  21.504  0.00  0.00    +0.000 C 
ENDBRANCH  16  24
ENDBRANCH  14  16
ENDBRANCH   1  14
TORSDOF 5
ENDMDL
