MODEL 1
REMARK VINA RESULT:      -7.2      0.000      0.000
REMARK  Name = 
REMARK  3 active torsions:
REMARK  status: ('A' for Active; 'I' for Inactive)
REMARK    1  A    between atoms: C_1  and  C_2
REMARK    2  A    between atoms: N_4  and  C_5
REMARK    3  A    between atoms: C_8  and  C_9
REMARK                            x       y       z     vdW  Elec       q    Type
REMARK                         _______ _______ _______ _____ _____    ______ ____
ROOT
ATOM      1  C   UNL     1       2.092   6.907  20.216  0.00  0.00    +0.000 C 
ATOM      2  C   UNL     1       2.857   5.953  19.362  0.00  0.00    +0.000 A 
ATOM      3  C   UNL     1       3.027   4.653  19.652  0.00  0.00    +0.000 A 
ATOM      4  N   UNL     1       3.728   3.752  18.869  0.00  0.00    +0.000 N 
ATOM      5  C   UNL     1       3.883   2.343  19.229  0.00  0.00    +0.000 C 
ATOM      6  C   UNL     1       4.295   4.190  17.707  0.00  0.00    +0.000 A 
ATOM      7  C   UNL     1       5.013   3.592  16.707  0.00  0.00    +0.000 A 
ATOM      8  C   UNL     1       5.294   4.620  15.767  0.00  0.00    +0.000 A 
ATOM      9  N   UNL     1       4.777   5.795  16.165  0.00  0.00    +0.000 NA
ATOM     10  N   UNL     1       4.165   5.520  17.349  0.00  0.00    +0.000 N 
ATOM     11  C   UNL     1       3.469   6.487  18.101  0.00  0.00    +0.000 A 
ATOM     12  O   UNL     1       3.378   7.653  17.738  0.00  0.00    +0.000 OA
ENDROOT
BRANCH   8  13
ATOM     13  C   UNL     1       6.009   4.462  14.500  0.00  0.00    +0.000 A 
ATOM     14  C   UNL     1       7.148   5.230  14.221  0.00  0.00    +0.000 A 
ATOM     15  C   UNL     1       7.783   5.133  12.980  0.00  0.00    +0.000 A 
ATOM     16  C   UNL     1       7.289   4.263  12.009  0.00  0.00    +0.000 A 
ATOM     17  C   UNL     1       6.171   3.479  12.280  0.00  0.00    +0.000 A 
ATOM     18  C   UNL     1       5.536   3.576  13.519  0.00  0.00    +0.000 A 
ENDBRANCH   8  13
TORSDOF 1
ENDMDL
MODEL 2
REMARK VINA RESULT:      -7.2      2.147      6.508
REMARK  Name = 
REMARK  3 active torsions:
REMARK  status: ('A' for Active; 'I' for Inactive)
REMARK    1  A    between atoms: C_1  and  C_2
REMARK    2  A    between atoms: N_4  and  C_5
REMARK    3  A    between atoms: C_8  and  C_9
REMARK                            x       y       z     vdW  Elec       q    Type
REMARK                         _______ _______ _______ _____ _____    ______ ____
ROOT
ATOM      1  C   UNL     1       6.837   4.589  15.184  0.00  0.00    +0.000 C 
ATOM      2  C   UNL     1       5.846   4.884  16.259  0.00  0.00    +0.000 A 
ATOM      3  C   UNL     1       5.577   4.057  17.282  0.00  0.00    +0.000 A 
ATOM      4  N   UNL     1       4.665   4.317  18.291  0.00  0.00    +0.000 N 
ATOM      5  C   UNL     1       4.409   3.382  19.386  0.00  0.00    +0.000 C 
ATOM      6  C   UNL     1       3.979   5.496  18.271  0.00  0.00    +0.000 A 
ATOM      7  C   UNL     1       3.051   6.077  19.093  0.00  0.00    +0.000 A 
ATOM      8  C   UNL     1       2.745   7.332  18.502  0.00  0.00    +0.000 A 
ATOM      9  N   UNL     1       3.448   7.519  17.371  0.00  0.00    +0.000 NA
ATOM     10  N   UNL     1       4.201   6.392  17.242  0.00  0.00    +0.000 N 
ATOM     11  C   UNL     1       5.110   6.189  16.186  0.00  0.00    +0.000 A 
ATOM     12  O   UNL     1       5.275   7.018  15.299  0.00  0.00    +0.000 OA
ENDROOT
BRANCH   8  13
ATOM     13  C   UNL     1       1.829   8.341  19.035  0.00  0.00    +0.000 A 
ATOM     14  C   UNL     1       1.450   8.321  20.384  0.00  0.00    +0.000 A 
ATOM     15  C   UNL     1       0.516   9.239  20.872  0.00  0.00    +0.000 A 
ATOM     16  C   UNL     1      -0.042  10.189  20.018  0.00  0.00    +0.000 A 
ATOM     17  C   UNL     1       0.341  10.234  18.680  0.00  0.00    +0.000 A 
ATOM     18  C   UNL     1       1.273   9.316  18.192  0.00  0.00    +0.000 A 
ENDBRANCH   8  13
TORSDOF 1
ENDMDL
MODEL 3
REMARK VINA RESULT:      -7.1      0.204      1.154
REMARK  Name = 
REMARK  3 active torsions:
REMARK  status: ('A' for Active; 'I' for Inactive)
REMARK    1  A    between atoms: C_1  and  C_2
REMARK    2  A    between atoms: N_4  and  C_5
REMARK    3  A    between atoms: C_8  and  C_9
REMARK                            x       y       z     vdW  Elec       q    Type
REMARK                         _______ _______ _______ _____ _____    ______ ____
ROOT
ATOM      1  C   UNL     1       2.174   7.129  20.203  0.00  0.00    +0.000 C 
ATOM      2  C   UNL     1       2.942   6.165  19.363  0.00  0.00    +0.000 A 
ATOM      3  C   UNL     1       3.181   4.890  19.709  0.00  0.00    +0.000 A 
ATOM      4  N   UNL     1       3.886   3.980  18.940  0.00  0.00    +0.000 N 
ATOM      5  C   UNL     1       4.119   2.599  19.361  0.00  0.00    +0.000 C 
ATOM      6  C   UNL     1       4.382   4.382  17.734  0.00  0.00    +0.000 A 
ATOM      7  C   UNL     1       5.081   3.763  16.732  0.00  0.00    +0.000 A 
ATOM      8  C   UNL     1       5.275   4.752  15.731  0.00  0.00    +0.000 A 
ATOM      9  N   UNL     1       4.725   5.924  16.093  0.00  0.00    +0.000 NA
ATOM     10  N   UNL     1       4.178   5.684  17.317  0.00  0.00    +0.000 N 
ATOM     11  C   UNL     1       3.474   6.659  18.051  0.00  0.00    +0.000 A 
ATOM     12  O   UNL     1       3.316   7.800  17.635  0.00  0.00    +0.000 OA
ENDROOT
BRANCH   8  13
ATOM     13  C   UNL     1       5.941   4.560  14.441  0.00  0.00    +0.000 A 
ATOM     14  C   UNL     1       5.408   3.686  13.484  0.00  0.00    +0.000 A 
ATOM     15  C   UNL     1       6.086   3.447  12.286  0.00  0.00    +0.000 A 
ATOM     16  C   UNL     1       7.299   4.084  12.030  0.00  0.00    +0.000 A 
ATOM     17  C   UNL     1       7.830   4.972  12.964  0.00  0.00    +0.000 A 
ATOM     18  C   UNL     1       7.154   5.209  14.161  0.00  0.00    +0.000 A 
ENDBRANCH   8  13
TORSDOF 1
ENDMDL
MODEL 4
REMARK VINA RESULT:      -7.1      1.995      3.099
REMARK  Name = 
REMARK  3 active torsions:
REMARK  status: ('A' for Active; 'I' for Inactive)
REMARK    1  A    between atoms: C_1  and  C_2
REMARK    2  A    between atoms: N_4  and  C_5
REMARK    3  A    between atoms: C_8  and  C_9
REMARK                            x       y       z     vdW  Elec       q    Type
REMARK                         _______ _______ _______ _____ _____    ______ ____
ROOT
ATOM      1  C   UNL     1       1.448   2.706  21.574  0.00  0.00    +0.000 C 
ATOM      2  C   UNL     1       2.061   3.588  20.540  0.00  0.00    +0.000 A 
ATOM      3  C   UNL     1       1.946   4.926  20.528  0.00  0.00    +0.000 A 
ATOM      4  N   UNL     1       2.513   5.761  19.580  0.00  0.00    +0.000 N 
ATOM      5  C   UNL     1       2.359   7.215  19.613  0.00  0.00    +0.000 C 
ATOM      6  C   UNL     1       3.252   5.209  18.575  0.00  0.00    +0.000 A 
ATOM      7  C   UNL     1       3.957   5.716  17.516  0.00  0.00    +0.000 A 
ATOM      8  C   UNL     1       4.516   4.592  16.852  0.00  0.00    +0.000 A 
ATOM      9  N   UNL     1       4.176   3.446  17.468  0.00  0.00    +0.000 NA
ATOM     10  N   UNL     1       3.407   3.836  18.521  0.00  0.00    +0.000 N 
ATOM     11  C   UNL     1       2.856   2.932  19.451  0.00  0.00    +0.000 A 
ATOM     12  O   UNL     1       3.026   1.723  19.362  0.00  0.00    +0.000 OA
ENDROOT
BRANCH   8  13
ATOM     13  C   UNL     1       5.390   4.625  15.677  0.00  0.00    +0.000 A 
ATOM     14  C   UNL     1       5.053   3.916  14.517  0.00  0.00    +0.000 A 
ATOM     15  C   UNL     1       5.926   3.887  13.425  0.00  0.00    +0.000 A 
ATOM     16  C   UNL     1       7.138   4.572  13.482  0.00  0.00    +0.000 A 
ATOM     17  C   UNL     1       7.475   5.299  14.622  0.00  0.00    +0.000 A 
ATOM     18  C   UNL     1       6.605   5.326  15.712  0.00  0.00    +0.000 A 
ENDBRANCH   8  13
TORSDOF 1
ENDMDL
MODEL 5
REMARK VINA RESULT:      -7.1      1.758      2.511
REMARK  Name = 
REMARK  3 active torsions:
REMARK  status: ('A' for Active; 'I' for Inactive)
REMARK    1  A    between atoms: C_1  and  C_2
REMARK    2  A    between atoms: N_4  and  C_5
REMARK    3  A    between atoms: C_8  and  C_9
REMARK                            x       y       z     vdW  Elec       q    Type
REMARK                         _______ _______ _______ _____ _____    ______ ____
ROOT
ATOM      1  C   UNL     1       2.483   3.091  21.051  0.00  0.00    +0.000 C 
ATOM      2  C   UNL     1       2.973   3.853  19.865  0.00  0.00    +0.000 A 
ATOM      3  C   UNL     1       2.798   5.173  19.695  0.00  0.00    +0.000 A 
ATOM      4  N   UNL     1       3.250   5.898  18.605  0.00  0.00    +0.000 N 
ATOM      5  C   UNL     1       3.034   7.337  18.466  0.00  0.00    +0.000 C 
ATOM      6  C   UNL     1       3.933   5.246  17.619  0.00  0.00    +0.000 A 
ATOM      7  C   UNL     1       4.529   5.636  16.449  0.00  0.00    +0.000 A 
ATOM      8  C   UNL     1       5.084   4.455  15.889  0.00  0.00    +0.000 A 
ATOM      9  N   UNL     1       4.845   3.388  16.670  0.00  0.00    +0.000 NA
ATOM     10  N   UNL     1       4.144   3.884  17.726  0.00  0.00    +0.000 N 
ATOM     11  C   UNL     1       3.709   3.089  18.805  0.00  0.00    +0.000 A 
ATOM     12  O   UNL     1       3.926   1.885  18.856  0.00  0.00    +0.000 OA
ENDROOT
BRANCH   8  13
ATOM     13  C   UNL     1       5.860   4.365  14.650  0.00  0.00    +0.000 A 
ATOM     14  C   UNL     1       7.047   5.094  14.496  0.00  0.00    +0.000 A 
ATOM     15  C   UNL     1       7.744   5.067  13.285  0.00  0.00    +0.000 A 
ATOM     16  C   UNL     1       7.264   4.305  12.220  0.00  0.00    +0.000 A 
ATOM     17  C   UNL     1       6.097   3.559  12.367  0.00  0.00    +0.000 A 
ATOM     18  C   UNL     1       5.400   3.588  13.575  0.00  0.00    +0.000 A 
ENDBRANCH   8  13
TORSDOF 1
ENDMDL
MODEL 6
REMARK VINA RESULT:      -7.1      2.003      2.849
REMARK  Name = 
REMARK  3 active torsions:
REMARK  status: ('A' for Active; 'I' for Inactive)
REMARK    1  A    between atoms: C_1  and  C_2
REMARK    2  A    between atoms: N_4  and  C_5
REMARK    3  A    between atoms: C_8  and  C_9
REMARK                            x       y       z     vdW  Elec       q    Type
REMARK                         _______ _______ _______ _____ _____    ______ ____
ROOT
ATOM      1  C   UNL     1       1.192   2.841  21.395  0.00  0.00    +0.000 C 
ATOM      2  C   UNL     1       1.889   3.683  20.379  0.00  0.00    +0.000 A 
ATOM      3  C   UNL     1       1.838   5.024  20.352  0.00  0.00    +0.000 A 
ATOM      4  N   UNL     1       2.482   5.822  19.421  0.00  0.00    +0.000 N 
ATOM      5  C   UNL     1       2.397   7.282  19.434  0.00  0.00    +0.000 C 
ATOM      6  C   UNL     1       3.235   5.226  18.451  0.00  0.00    +0.000 A 
ATOM      7  C   UNL     1       4.006   5.688  17.418  0.00  0.00    +0.000 A 
ATOM      8  C   UNL     1       4.538   4.532  16.788  0.00  0.00    +0.000 A 
ATOM      9  N   UNL     1       4.118   3.410  17.398  0.00  0.00    +0.000 NA
ATOM     10  N   UNL     1       3.326   3.847  18.416  0.00  0.00    +0.000 N 
ATOM     11  C   UNL     1       2.695   2.979  19.329  0.00  0.00    +0.000 A 
ATOM     12  O   UNL     1       2.811   1.762  19.258  0.00  0.00    +0.000 OA
ENDROOT
BRANCH   8  13
ATOM     13  C   UNL     1       5.458   4.511  15.650  0.00  0.00    +0.000 A 
ATOM     14  C   UNL     1       6.636   5.271  15.669  0.00  0.00    +0.000 A 
ATOM     15  C   UNL     1       7.473   5.310  14.551  0.00  0.00    +0.000 A 
ATOM     16  C   UNL     1       7.146   4.583  13.407  0.00  0.00    +0.000 A 
ATOM     17  C   UNL     1       5.989   3.807  13.382  0.00  0.00    +0.000 A 
ATOM     18  C   UNL     1       5.151   3.770  14.498  0.00  0.00    +0.000 A 
ENDBRANCH   8  13
TORSDOF 1
ENDMDL
MODEL 7
REMARK VINA RESULT:      -7.1      2.085      6.527
REMARK  Name = 
REMARK  3 active torsions:
REMARK  status: ('A' for Active; 'I' for Inactive)
REMARK    1  A    between atoms: C_1  and  C_2
REMARK    2  A    between atoms: N_4  and  C_5
REMARK    3  A    between atoms: C_8  and  C_9
REMARK                            x       y       z     vdW  Elec       q    Type
REMARK                         _______ _______ _______ _____ _____    ______ ____
ROOT
ATOM      1  C   UNL     1       6.819   4.704  14.995  0.00  0.00    +0.000 C 
ATOM      2  C   UNL     1       5.876   4.954  16.124  0.00  0.00    +0.000 A 
ATOM      3  C   UNL     1       5.690   4.108  17.149  0.00  0.00    +0.000 A 
ATOM      4  N   UNL     1       4.824   4.327  18.208  0.00  0.00    +0.000 N 
ATOM      5  C   UNL     1       4.657   3.373  19.304  0.00  0.00    +0.000 C 
ATOM      6  C   UNL     1       4.099   5.482  18.238  0.00  0.00    +0.000 A 
ATOM      7  C   UNL     1       3.197   6.024  19.115  0.00  0.00    +0.000 A 
ATOM      8  C   UNL     1       2.820   7.274  18.555  0.00  0.00    +0.000 A 
ATOM      9  N   UNL     1       3.455   7.496  17.392  0.00  0.00    +0.000 NA
ATOM     10  N   UNL     1       4.237   6.396  17.210  0.00  0.00    +0.000 N 
ATOM     11  C   UNL     1       5.096   6.234  16.105  0.00  0.00    +0.000 A 
ATOM     12  O   UNL     1       5.185   7.077  15.221  0.00  0.00    +0.000 OA
ENDROOT
BRANCH   8  13
ATOM     13  C   UNL     1       1.900   8.246  19.148  0.00  0.00    +0.000 A 
ATOM     14  C   UNL     1       1.393   9.308  18.387  0.00  0.00    +0.000 A 
ATOM     15  C   UNL     1       0.578  10.277  18.976  0.00  0.00    +0.000 A 
ATOM     16  C   UNL     1       0.255  10.190  20.330  0.00  0.00    +0.000 A 
ATOM     17  C   UNL     1       0.734   9.129  21.093  0.00  0.00    +0.000 A 
ATOM     18  C   UNL     1       1.551   8.161  20.505  0.00  0.00    +0.000 A 
ENDBRANCH   8  13
TORSDOF 1
ENDMDL
MODEL 8
REMARK VINA RESULT:      -6.8      2.380      6.448
REMARK  Name = 
REMARK  3 active torsions:
REMARK  status: ('A' for Active; 'I' for Inactive)
REMARK    1  A    between atoms: C_1  and  C_2
REMARK    2  A    between atoms: N_4  and  C_5
REMARK    3  A    between atoms: C_8  and  C_9
REMARK                            x       y       z     vdW  Elec       q    Type
REMARK                         _______ _______ _______ _____ _____    ______ ____
ROOT
ATOM      1  C   UNL     1       7.299   4.974  13.677  0.00  0.00    +0.000 C 
ATOM      2  C   UNL     1       6.848   4.973  15.099  0.00  0.00    +0.000 A 
ATOM      3  C   UNL     1       7.485   5.618  16.090  0.00  0.00    +0.000 A 
ATOM      4  N   UNL     1       7.078   5.632  17.414  0.00  0.00    +0.000 N 
ATOM      5  C   UNL     1       7.807   6.352  18.458  0.00  0.00    +0.000 C 
ATOM      6  C   UNL     1       5.947   4.953  17.763  0.00  0.00    +0.000 A 
ATOM      7  C   UNL     1       5.259   4.778  18.934  0.00  0.00    +0.000 A 
ATOM      8  C   UNL     1       4.144   3.962  18.606  0.00  0.00    +0.000 A 
ATOM      9  N   UNL     1       4.141   3.647  17.299  0.00  0.00    +0.000 NA
ATOM     10  N   UNL     1       5.245   4.261  16.794  0.00  0.00    +0.000 N 
ATOM     11  C   UNL     1       5.605   4.204  15.433  0.00  0.00    +0.000 A 
ATOM     12  O   UNL     1       4.946   3.580  14.611  0.00  0.00    +0.000 OA
ENDROOT
BRANCH   8  13
ATOM     13  C   UNL     1       3.087   3.530  19.523  0.00  0.00    +0.000 A 
ATOM     14  C   UNL     1       1.740   3.783  19.231  0.00  0.00    +0.000 A 
ATOM     15  C   UNL     1       0.740   3.439  20.144  0.00  0.00    +0.000 A 
ATOM     16  C   UNL     1       1.076   2.831  21.353  0.00  0.00    +0.000 A 
ATOM     17  C   UNL     1       2.409   2.554  21.646  0.00  0.00    +0.000 A 
ATOM     18  C   UNL     1       3.409   2.899  20.735  0.00  0.00    +0.000 A 
ENDBRANCH   8  13
TORSDOF 1
ENDMDL
MODEL 9
REMARK VINA RESULT:      -6.8      1.747      1.953
REMARK  Name = 
REMARK  3 active torsions:
REMARK  status: ('A' for Active; 'I' for Inactive)
REMARK    1  A    between atoms: C_1  and  C_2
REMARK    2  A    between atoms: N_4  and  C_5
REMARK    3  A    between atoms: C_8  and  C_9
REMARK                            x       y       z     vdW  Elec       q    Type
REMARK                         _______ _______ _______ _____ _____    ______ ____
ROOT
ATOM      1  C   UNL     1       1.700   4.011  19.982  0.00  0.00    +0.000 C 
ATOM      2  C   UNL     1       2.945   4.264  19.202  0.00  0.00    +0.000 A 
ATOM      3  C   UNL     1       4.094   4.702  19.740  0.00  0.00    +0.000 A 
ATOM      4  N   UNL     1       5.261   4.938  19.033  0.00  0.00    +0.000 N 
ATOM      5  C   UNL     1       6.489   5.414  19.667  0.00  0.00    +0.000 C 
ATOM      6  C   UNL     1       5.273   4.711  17.687  0.00  0.00    +0.000 A 
ATOM      7  C   UNL     1       6.225   4.807  16.708  0.00  0.00    +0.000 A 
ATOM      8  C   UNL     1       5.583   4.407  15.506  0.00  0.00    +0.000 A 
ATOM      9  N   UNL     1       4.298   4.079  15.728  0.00  0.00    +0.000 NA
ATOM     10  N   UNL     1       4.121   4.265  17.065  0.00  0.00    +0.000 N 
ATOM     11  C   UNL     1       2.903   4.009  17.725  0.00  0.00    +0.000 A 
ATOM     12  O   UNL     1       1.911   3.609  17.128  0.00  0.00    +0.000 OA
ENDROOT
BRANCH   8  13
ATOM     13  C   UNL     1       6.204   4.306  14.184  0.00  0.00    +0.000 A 
ATOM     14  C   UNL     1       7.300   5.110  13.846  0.00  0.00    +0.000 A 
ATOM     15  C   UNL     1       7.842   5.067  12.558  0.00  0.00    +0.000 A 
ATOM     16  C   UNL     1       7.297   4.213  11.600  0.00  0.00    +0.000 A 
ATOM     17  C   UNL     1       6.221   3.392  11.929  0.00  0.00    +0.000 A 
ATOM     18  C   UNL     1       5.679   3.437  13.215  0.00  0.00    +0.000 A 
ENDBRANCH   8  13
TORSDOF 1
ENDMDL
