MODEL 1
REMARK VINA RESULT:      -6.4      0.000      0.000
REMARK  Name = 
REMARK  1 active torsions:
REMARK  status: ('A' for Active; 'I' for Inactive)
REMARK    1  A    between atoms: C_6  and  C_7
REMARK                            x       y       z     vdW  Elec       q    Type
REMARK                         _______ _______ _______ _____ _____    ______ ____
ROOT
ATOM      1  O   UNL     1       7.492   5.156  14.374  0.00  0.00    +0.000 OA
ATOM      2  C   UNL     1       7.151   5.255  15.539  0.00  0.00    +0.000 C 
ATOM      3  N   UNL     1       7.758   4.677  16.601  0.00  0.00    +0.000 N 
ATOM      4  C   UNL     1       7.113   4.994  17.760  0.00  0.00    +0.000 C 
ATOM      5  O   UNL     1       7.449   4.612  18.870  0.00  0.00    +0.000 OA
ATOM      6  C   UNL     1       5.911   5.880  17.413  0.00  0.00    +0.000 C 
ATOM      7  N   UNL     1       6.075   5.979  15.986  0.00  0.00    +0.000 N 
ATOM      8  H   UNL     1       8.571   4.089  16.539  0.00  0.00    +0.000 HD
ATOM      9  H   UNL     1       5.477   6.496  15.356  0.00  0.00    +0.000 HD
ENDROOT
BRANCH   6  10
ATOM     10  C   UNL     1       4.631   5.183  17.737  0.00  0.00    +0.000 A 
ATOM     11  C   UNL     1       3.911   4.268  16.983  0.00  0.00    +0.000 A 
ATOM     12  C   UNL     1       2.762   3.775  17.670  0.00  0.00    +0.000 A 
ATOM     13  C   UNL     1       2.642   4.350  18.908  0.00  0.00    +0.000 A 
ATOM     14 BR   UNL     1       1.266   3.937  20.109  0.00  0.00    +0.000 Br
ATOM     15  S   UNL     1       3.866   5.468  19.250  0.00  0.00    +0.000 S 
ENDBRANCH   6  10
TORSDOF 1
ENDMDL
MODEL 2
REMARK VINA RESULT:      -6.3      1.675      2.230
REMARK  Name = 
REMARK  1 active torsions:
REMARK  status: ('A' for Active; 'I' for Inactive)
REMARK    1  A    between atoms: C_6  and  C_7
REMARK                            x       y       z     vdW  Elec       q    Type
REMARK                         _______ _______ _______ _____ _____    ______ ____
ROOT
ATOM      1  O   UNL     1       8.191   4.205  17.380  0.00  0.00    +0.000 OA
ATOM      2  C   UNL     1       7.061   4.552  17.087  0.00  0.00    +0.000 C 
ATOM      3  N   UNL     1       6.616   5.827  16.995  0.00  0.00    +0.000 N 
ATOM      4  C   UNL     1       5.297   5.856  16.649  0.00  0.00    +0.000 C 
ATOM      5  O   UNL     1       4.642   6.874  16.491  0.00  0.00    +0.000 OA
ATOM      6  C   UNL     1       4.803   4.410  16.518  0.00  0.00    +0.000 C 
ATOM      7  N   UNL     1       6.025   3.701  16.798  0.00  0.00    +0.000 N 
ATOM      8  H   UNL     1       7.183   6.639  17.164  0.00  0.00    +0.000 HD
ATOM      9  H   UNL     1       6.138   2.696  16.808  0.00  0.00    +0.000 HD
ENDROOT
BRANCH   6  10
ATOM     10  C   UNL     1       3.780   4.106  17.562  0.00  0.00    +0.000 A 
ATOM     11  C   UNL     1       2.400   4.037  17.449  0.00  0.00    +0.000 A 
ATOM     12  C   UNL     1       1.768   3.654  18.669  0.00  0.00    +0.000 A 
ATOM     13  C   UNL     1       2.690   3.466  19.665  0.00  0.00    +0.000 A 
ATOM     14 BR   UNL     1       2.239   2.938  21.405  0.00  0.00    +0.000 Br
ATOM     15  S   UNL     1       4.283   3.754  19.168  0.00  0.00    +0.000 S 
ENDBRANCH   6  10
TORSDOF 1
ENDMDL
MODEL 3
REMARK VINA RESULT:      -6.3      1.441      2.171
REMARK  Name = 
REMARK  1 active torsions:
REMARK  status: ('A' for Active; 'I' for Inactive)
REMARK    1  A    between atoms: C_6  and  C_7
REMARK                            x       y       z     vdW  Elec       q    Type
REMARK                         _______ _______ _______ _____ _____    ______ ____
ROOT
ATOM      1  O   UNL     1       8.308   4.236  17.394  0.00  0.00    +0.000 OA
ATOM      2  C   UNL     1       7.242   4.541  16.890  0.00  0.00    +0.000 C 
ATOM      3  N   UNL     1       6.901   5.763  16.421  0.00  0.00    +0.000 N 
ATOM      4  C   UNL     1       5.631   5.755  15.926  0.00  0.00    +0.000 C 
ATOM      5  O   UNL     1       5.069   6.721  15.435  0.00  0.00    +0.000 OA
ATOM      6  C   UNL     1       5.051   4.348  16.115  0.00  0.00    +0.000 C 
ATOM      7  N   UNL     1       6.184   3.688  16.710  0.00  0.00    +0.000 N 
ATOM      8  H   UNL     1       7.504   6.567  16.440  0.00  0.00    +0.000 HD
ATOM      9  H   UNL     1       6.223   2.717  16.992  0.00  0.00    +0.000 HD
ENDROOT
BRANCH   6  10
ATOM     10  C   UNL     1       3.907   4.373  17.074  0.00  0.00    +0.000 A 
ATOM     11  C   UNL     1       2.685   3.720  17.005  0.00  0.00    +0.000 A 
ATOM     12  C   UNL     1       1.875   3.949  18.156  0.00  0.00    +0.000 A 
ATOM     13  C   UNL     1       2.504   4.782  19.044  0.00  0.00    +0.000 A 
ATOM     14 BR   UNL     1       1.757   5.297  20.683  0.00  0.00    +0.000 Br
ATOM     15  S   UNL     1       4.027   5.299  18.516  0.00  0.00    +0.000 S 
ENDBRANCH   6  10
TORSDOF 1
ENDMDL
MODEL 4
REMARK VINA RESULT:      -6.3      1.667      1.979
REMARK  Name = 
REMARK  1 active torsions:
REMARK  status: ('A' for Active; 'I' for Inactive)
REMARK    1  A    between atoms: C_6  and  C_7
REMARK                            x       y       z     vdW  Elec       q    Type
REMARK                         _______ _______ _______ _____ _____    ______ ____
ROOT
ATOM      1  O   UNL     1       7.748   7.766  17.152  0.00  0.00    +0.000 OA
ATOM      2  C   UNL     1       7.284   6.640  17.140  0.00  0.00    +0.000 C 
ATOM      3  N   UNL     1       7.169   5.836  16.058  0.00  0.00    +0.000 N 
ATOM      4  C   UNL     1       6.604   4.643  16.400  0.00  0.00    +0.000 C 
ATOM      5  O   UNL     1       6.386   3.728  15.621  0.00  0.00    +0.000 OA
ATOM      6  C   UNL     1       6.284   4.675  17.899  0.00  0.00    +0.000 C 
ATOM      7  N   UNL     1       6.788   5.981  18.236  0.00  0.00    +0.000 N 
ATOM      8  H   UNL     1       7.459   6.089  15.130  0.00  0.00    +0.000 HD
ATOM      9  H   UNL     1       6.777   6.401  19.155  0.00  0.00    +0.000 HD
ENDROOT
BRANCH   6  10
ATOM     10  C   UNL     1       4.809   4.618  18.125  0.00  0.00    +0.000 A 
ATOM     11  C   UNL     1       3.792   5.300  17.475  0.00  0.00    +0.000 A 
ATOM     12  C   UNL     1       2.496   4.926  17.939  0.00  0.00    +0.000 A 
ATOM     13  C   UNL     1       2.580   3.990  18.937  0.00  0.00    +0.000 A 
ATOM     14 BR   UNL     1       1.085   3.243  19.782  0.00  0.00    +0.000 Br
ATOM     15  S   UNL     1       4.173   3.570  19.330  0.00  0.00    +0.000 S 
ENDBRANCH   6  10
TORSDOF 1
ENDMDL
MODEL 5
REMARK VINA RESULT:      -6.1      1.445      2.386
REMARK  Name = 
REMARK  1 active torsions:
REMARK  status: ('A' for Active; 'I' for Inactive)
REMARK    1  A    between atoms: C_6  and  C_7
REMARK                            x       y       z     vdW  Elec       q    Type
REMARK                         _______ _______ _______ _____ _____    ______ ____
ROOT
ATOM      1  O   UNL     1       8.226   5.499  19.542  0.00  0.00    +0.000 OA
ATOM      2  C   UNL     1       7.415   5.425  18.637  0.00  0.00    +0.000 C 
ATOM      3  N   UNL     1       7.010   6.442  17.841  0.00  0.00    +0.000 N 
ATOM      4  C   UNL     1       6.091   6.009  16.932  0.00  0.00    +0.000 C 
ATOM      5  O   UNL     1       5.562   6.716  16.088  0.00  0.00    +0.000 OA
ATOM      6  C   UNL     1       5.840   4.516  17.175  0.00  0.00    +0.000 C 
ATOM      7  N   UNL     1       6.757   4.281  18.260  0.00  0.00    +0.000 N 
ATOM      8  H   UNL     1       7.343   7.387  17.916  0.00  0.00    +0.000 HD
ATOM      9  H   UNL     1       6.911   3.396  18.725  0.00  0.00    +0.000 HD
ENDROOT
BRANCH   6  10
ATOM     10  C   UNL     1       4.436   4.285  17.629  0.00  0.00    +0.000 A 
ATOM     11  C   UNL     1       3.341   3.836  16.907  0.00  0.00    +0.000 A 
ATOM     12  C   UNL     1       2.176   3.683  17.717  0.00  0.00    +0.000 A 
ATOM     13  C   UNL     1       2.427   4.041  19.016  0.00  0.00    +0.000 A 
ATOM     14 BR   UNL     1       1.144   3.955  20.377  0.00  0.00    +0.000 Br
ATOM     15  S   UNL     1       4.016   4.564  19.272  0.00  0.00    +0.000 S 
ENDBRANCH   6  10
TORSDOF 1
ENDMDL
MODEL 6
REMARK VINA RESULT:      -6.1      1.117      1.131
REMARK  Name = 
REMARK  1 active torsions:
REMARK  status: ('A' for Active; 'I' for Inactive)
REMARK    1  A    between atoms: C_6  and  C_7
REMARK                            x       y       z     vdW  Elec       q    Type
REMARK                         _______ _______ _______ _____ _____    ______ ____
ROOT
ATOM      1  O   UNL     1       6.756   4.091  14.441  0.00  0.00    +0.000 OA
ATOM      2  C   UNL     1       6.529   4.403  15.596  0.00  0.00    +0.000 C 
ATOM      3  N   UNL     1       7.386   4.289  16.637  0.00  0.00    +0.000 N 
ATOM      4  C   UNL     1       6.808   4.730  17.791  0.00  0.00    +0.000 C 
ATOM      5  O   UNL     1       7.357   4.745  18.882  0.00  0.00    +0.000 OA
ATOM      6  C   UNL     1       5.374   5.171  17.472  0.00  0.00    +0.000 C 
ATOM      7  N   UNL     1       5.348   4.930  16.052  0.00  0.00    +0.000 N 
ATOM      8  H   UNL     1       8.320   3.925  16.566  0.00  0.00    +0.000 HD
ATOM      9  H   UNL     1       4.564   5.102  15.437  0.00  0.00    +0.000 HD
ENDROOT
BRANCH   6  10
ATOM     10  C   UNL     1       4.386   4.289  18.162  0.00  0.00    +0.000 A 
ATOM     11  C   UNL     1       3.967   3.009  17.832  0.00  0.00    +0.000 A 
ATOM     12  C   UNL     1       3.049   2.471  18.781  0.00  0.00    +0.000 A 
ATOM     13  C   UNL     1       2.790   3.370  19.783  0.00  0.00    +0.000 A 
ATOM     14 BR   UNL     1       1.645   3.013  21.221  0.00  0.00    +0.000 Br
ATOM     15  S   UNL     1       3.612   4.838  19.595  0.00  0.00    +0.000 S 
ENDBRANCH   6  10
TORSDOF 1
ENDMDL
MODEL 7
REMARK VINA RESULT:      -6.1      1.759      2.036
REMARK  Name = 
REMARK  1 active torsions:
REMARK  status: ('A' for Active; 'I' for Inactive)
REMARK    1  A    between atoms: C_6  and  C_7
REMARK                            x       y       z     vdW  Elec       q    Type
REMARK                         _______ _______ _______ _____ _____    ______ ____
ROOT
ATOM      1  O   UNL     1       6.007   3.639  15.667  0.00  0.00    +0.000 OA
ATOM      2  C   UNL     1       5.912   4.294  16.689  0.00  0.00    +0.000 C 
ATOM      3  N   UNL     1       6.773   4.275  17.733  0.00  0.00    +0.000 N 
ATOM      4  C   UNL     1       6.363   5.127  18.714  0.00  0.00    +0.000 C 
ATOM      5  O   UNL     1       6.954   5.312  19.767  0.00  0.00    +0.000 OA
ATOM      6  C   UNL     1       5.048   5.777  18.269  0.00  0.00    +0.000 C 
ATOM      7  N   UNL     1       4.899   5.176  16.968  0.00  0.00    +0.000 N 
ATOM      8  H   UNL     1       7.599   3.704  17.776  0.00  0.00    +0.000 HD
ATOM      9  H   UNL     1       4.143   5.347  16.320  0.00  0.00    +0.000 HD
ENDROOT
BRANCH   6  10
ATOM     10  C   UNL     1       3.925   5.359  19.160  0.00  0.00    +0.000 A 
ATOM     11  C   UNL     1       2.846   6.098  19.622  0.00  0.00    +0.000 A 
ATOM     12  C   UNL     1       1.946   5.320  20.409  0.00  0.00    +0.000 A 
ATOM     13  C   UNL     1       2.385   4.027  20.530  0.00  0.00    +0.000 A 
ATOM     14 BR   UNL     1       1.456   2.704  21.475  0.00  0.00    +0.000 Br
ATOM     15  S   UNL     1       3.852   3.741  19.735  0.00  0.00    +0.000 S 
ENDBRANCH   6  10
TORSDOF 1
ENDMDL
MODEL 8
REMARK VINA RESULT:      -6.0      4.402      5.708
REMARK  Name = 
REMARK  1 active torsions:
REMARK  status: ('A' for Active; 'I' for Inactive)
REMARK    1  A    between atoms: C_6  and  C_7
REMARK                            x       y       z     vdW  Elec       q    Type
REMARK                         _______ _______ _______ _____ _____    ______ ____
ROOT
ATOM      1  O   UNL     1       2.196   3.206  22.340  0.00  0.00    +0.000 OA
ATOM      2  C   UNL     1       2.058   3.669  21.222  0.00  0.00    +0.000 C 
ATOM      3  N   UNL     1       1.541   3.025  20.150  0.00  0.00    +0.000 N 
ATOM      4  C   UNL     1       1.536   3.837  19.054  0.00  0.00    +0.000 C 
ATOM      5  O   UNL     1       1.120   3.515  17.952  0.00  0.00    +0.000 OA
ATOM      6  C   UNL     1       2.151   5.184  19.451  0.00  0.00    +0.000 C 
ATOM      7  N   UNL     1       2.411   4.940  20.847  0.00  0.00    +0.000 N 
ATOM      8  H   UNL     1       1.210   2.076  20.163  0.00  0.00    +0.000 HD
ATOM      9  H   UNL     1       2.819   5.598  21.497  0.00  0.00    +0.000 HD
ENDROOT
BRANCH   6  10
ATOM     10  C   UNL     1       3.434   5.413  18.722  0.00  0.00    +0.000 A 
ATOM     11  C   UNL     1       3.795   6.455  17.881  0.00  0.00    +0.000 A 
ATOM     12  C   UNL     1       5.141   6.349  17.423  0.00  0.00    +0.000 A 
ATOM     13  C   UNL     1       5.744   5.222  17.917  0.00  0.00    +0.000 A 
ATOM     14 BR   UNL     1       7.520   4.754  17.550  0.00  0.00    +0.000 Br
ATOM     15  S   UNL     1       4.725   4.293  18.899  0.00  0.00    +0.000 S 
ENDBRANCH   6  10
TORSDOF 1
ENDMDL
MODEL 9
REMARK VINA RESULT:      -6.0      1.112      1.373
REMARK  Name = 
REMARK  1 active torsions:
REMARK  status: ('A' for Active; 'I' for Inactive)
REMARK    1  A    between atoms: C_6  and  C_7
REMARK                            x       y       z     vdW  Elec       q    Type
REMARK                         _______ _______ _______ _____ _____    ______ ____
ROOT
ATOM      1  O   UNL     1       6.828   4.480  14.192  0.00  0.00    +0.000 OA
ATOM      2  C   UNL     1       6.782   4.764  15.375  0.00  0.00    +0.000 C 
ATOM      3  N   UNL     1       7.633   4.332  16.334  0.00  0.00    +0.000 N 
ATOM      4  C   UNL     1       7.290   4.842  17.551  0.00  0.00    +0.000 C 
ATOM      5  O   UNL     1       7.889   4.620  18.592  0.00  0.00    +0.000 OA
ATOM      6  C   UNL     1       6.036   5.705  17.374  0.00  0.00    +0.000 C 
ATOM      7  N   UNL     1       5.845   5.583  15.952  0.00  0.00    +0.000 N 
ATOM      8  H   UNL     1       8.409   3.714  16.168  0.00  0.00    +0.000 HD
ATOM      9  H   UNL     1       5.109   6.019  15.414  0.00  0.00    +0.000 HD
ENDROOT
BRANCH   6  10
ATOM     10  C   UNL     1       4.877   5.108  18.103  0.00  0.00    +0.000 A 
ATOM     11  C   UNL     1       4.435   5.342  19.396  0.00  0.00    +0.000 A 
ATOM     12  C   UNL     1       3.246   4.619  19.708  0.00  0.00    +0.000 A 
ATOM     13  C   UNL     1       2.843   3.849  18.648  0.00  0.00    +0.000 A 
ATOM     14 BR   UNL     1       1.311   2.773  18.675  0.00  0.00    +0.000 Br
ATOM     15  S   UNL     1       3.867   3.969  17.305  0.00  0.00    +0.000 S 
ENDBRANCH   6  10
TORSDOF 1
ENDMDL
