MODEL 1
REMARK VINA RESULT:      -8.2      0.000      0.000
REMARK  Name = 
REMARK  7 active torsions:
REMARK  status: ('A' for Active; 'I' for Inactive)
REMARK    1  A    between atoms: C_5  and  C_6
REMARK    2  A    between atoms: C_6  and  N_7
REMARK    3  A    between atoms: N_11  and  C_12
REMARK    4  A    between atoms: C_12  and  C_13
REMARK    5  A    between atoms: C_13  and  C_14
REMARK    6  A    between atoms: C_16  and  C_17
REMARK    7  A    between atoms: C_23  and  C_24
REMARK                            x       y       z     vdW  Elec       q    Type
REMARK                         _______ _______ _______ _____ _____    ______ ____
ROOT
ATOM      1  C   UNL     1       1.997   9.041  17.776  0.00  0.00    +0.000 C 
ENDROOT
BRANCH   1   2
ATOM      2  C   UNL     1       2.642   7.712  18.086  0.00  0.00    +0.000 A 
ATOM      3  C   UNL     1       2.153   6.927  19.109  0.00  0.00    +0.000 A 
ATOM      4  C   UNL     1       2.680   5.660  19.229  0.00  0.00    +0.000 A 
ATOM      5  N   UNL     1       3.708   5.242  18.462  0.00  0.00    +0.000 NA
ATOM      6  C   UNL     1       4.173   6.093  17.538  0.00  0.00    +0.000 A 
ATOM      7  N   UNL     1       3.660   7.314  17.300  0.00  0.00    +0.000 NA
BRANCH   6   8
ATOM      8  C   UNL     1       5.353   5.658  16.768  0.00  0.00    +0.000 A 
ATOM      9  C   UNL     1       5.424   5.834  15.378  0.00  0.00    +0.000 A 
ATOM     10  C   UNL     1       6.520   5.354  14.681  0.00  0.00    +0.000 A 
ATOM     11  N   UNL     1       7.557   4.724  15.263  0.00  0.00    +0.000 NA
ATOM     12  C   UNL     1       7.495   4.572  16.602  0.00  0.00    +0.000 A 
ATOM     13  C   UNL     1       6.439   5.018  17.382  0.00  0.00    +0.000 A 
ENDBRANCH   6   8
BRANCH   4  14
ATOM     14  C   UNL     1       2.128   4.612  20.101  0.00  0.00    +0.000 A 
ATOM     15  C   UNL     1       2.441   4.366  21.429  0.00  0.00    +0.000 A 
ATOM     16  C   UNL     1       1.861   3.167  21.928  0.00  0.00    +0.000 A 
ATOM     17  C   UNL     1       1.069   2.554  20.986  0.00  0.00    +0.000 A 
ATOM     18  S   UNL     1       1.010   3.437  19.527  0.00  0.00    +0.000 S 
ENDBRANCH   4  14
ENDBRANCH   1   2
BRANCH   1  19
ATOM     19  C   UNL     1       1.415   9.736  19.022  0.00  0.00    +0.000 C 
BRANCH  19  24
ATOM     20  N   UNL     1       0.117  13.082  20.245  0.00  0.00    +0.000 NA
ATOM     21  C   UNL     1       0.430  12.075  21.266  0.00  0.00    +0.000 C 
ATOM     22  C   UNL     1      -0.472  10.854  21.391  0.00  0.00    +0.000 C 
ATOM     23  C   UNL     1      -0.799  10.008  20.169  0.00  0.00    +0.000 C 
ATOM     24  N   UNL     1      -0.006  10.116  18.954  0.00  0.00    +0.000 NA
ATOM     25  C   UNL     1      -0.239  11.411  18.298  0.00  0.00    +0.000 C 
ATOM     26  C   UNL     1       0.464  12.658  18.874  0.00  0.00    +0.000 C 
BRANCH  20  27
ATOM     27  C   UNL     1       0.791  14.377  20.565  0.00  0.00    +0.000 C 
BRANCH  27  32
ATOM     28  F   UNL     1       0.958  18.627  16.857  0.00  0.00    +0.000 F 
ATOM     29  C   UNL     1       0.912  17.550  17.651  0.00  0.00    +0.000 A 
ATOM     30  C   UNL     1       2.092  16.911  18.010  0.00  0.00    +0.000 A 
ATOM     31  C   UNL     1       2.051  15.830  18.893  0.00  0.00    +0.000 A 
ATOM     32  C   UNL     1       0.829  15.400  19.435  0.00  0.00    +0.000 A 
ATOM     33  C   UNL     1      -0.360  16.011  18.991  0.00  0.00    +0.000 A 
ATOM     34  C   UNL     1      -0.316  17.096  18.116  0.00  0.00    +0.000 A 
ENDBRANCH  27  32
ENDBRANCH  20  27
ENDBRANCH  19  24
ENDBRANCH   1  19
TORSDOF 7
ENDMDL
MODEL 2
REMARK VINA RESULT:      -8.1      3.289      4.481
REMARK  Name = 
REMARK  7 active torsions:
REMARK  status: ('A' for Active; 'I' for Inactive)
REMARK    1  A    between atoms: C_5  and  C_6
REMARK    2  A    between atoms: C_6  and  N_7
REMARK    3  A    between atoms: N_11  and  C_12
REMARK    4  A    between atoms: C_12  and  C_13
REMARK    5  A    between atoms: C_13  and  C_14
REMARK    6  A    between atoms: C_16  and  C_17
REMARK    7  A    between atoms: C_23  and  C_24
REMARK                            x       y       z     vdW  Elec       q    Type
REMARK                         _______ _______ _______ _____ _____    ______ ____
ROOT
ATOM      1  C   UNL     1       2.370   9.431  17.856  0.00  0.00    +0.000 C 
ENDROOT
BRANCH   1   2
ATOM      2  C   UNL     1       2.883   8.018  17.985  0.00  0.00    +0.000 A 
ATOM      3  C   UNL     1       2.321   7.158  18.905  0.00  0.00    +0.000 A 
ATOM      4  C   UNL     1       2.723   5.842  18.855  0.00  0.00    +0.000 A 
ATOM      5  N   UNL     1       3.706   5.429  18.029  0.00  0.00    +0.000 NA
ATOM      6  C   UNL     1       4.251   6.344  17.215  0.00  0.00    +0.000 A 
ATOM      7  N   UNL     1       3.859   7.628  17.143  0.00  0.00    +0.000 NA
BRANCH   6   8
ATOM      8  C   UNL     1       5.385   5.900  16.383  0.00  0.00    +0.000 A 
ATOM      9  C   UNL     1       6.713   6.113  16.784  0.00  0.00    +0.000 A 
ATOM     10  C   UNL     1       7.750   5.741  15.945  0.00  0.00    +0.000 A 
ATOM     11  N   UNL     1       7.567   5.162  14.744  0.00  0.00    +0.000 NA
ATOM     12  C   UNL     1       6.290   4.941  14.369  0.00  0.00    +0.000 A 
ATOM     13  C   UNL     1       5.189   5.281  15.140  0.00  0.00    +0.000 A 
ENDBRANCH   6   8
BRANCH   4  14
ATOM     14  C   UNL     1       2.071   4.748  19.592  0.00  0.00    +0.000 A 
ATOM     15  C   UNL     1       1.920   4.627  20.965  0.00  0.00    +0.000 A 
ATOM     16  C   UNL     1       1.402   3.363  21.361  0.00  0.00    +0.000 A 
ATOM     17  C   UNL     1       1.113   2.568  20.278  0.00  0.00    +0.000 A 
ATOM     18  S   UNL     1       1.443   3.356  18.800  0.00  0.00    +0.000 S 
ENDBRANCH   4  14
ENDBRANCH   1   2
BRANCH   1  19
ATOM     19  C   UNL     1       0.891   9.578  18.262  0.00  0.00    +0.000 C 
BRANCH  19  24
ATOM     20  N   UNL     1      -2.236  11.661  18.770  0.00  0.00    +0.000 NA
ATOM     21  C   UNL     1      -1.183  12.234  17.923  0.00  0.00    +0.000 C 
ATOM     22  C   UNL     1       0.114  12.695  18.577  0.00  0.00    +0.000 C 
ATOM     23  C   UNL     1       0.888  11.761  19.495  0.00  0.00    +0.000 C 
ATOM     24  N   UNL     1       0.624  10.331  19.498  0.00  0.00    +0.000 NA
ATOM     25  C   UNL     1      -0.694  10.049  20.087  0.00  0.00    +0.000 C 
ATOM     26  C   UNL     1      -1.947  10.284  19.217  0.00  0.00    +0.000 C 
BRANCH  20  27
ATOM     27  C   UNL     1      -3.553  11.703  18.065  0.00  0.00    +0.000 C 
BRANCH  27  32
ATOM     28  F   UNL     1      -7.888  12.077  21.658  0.00  0.00    +0.000 F 
ATOM     29  C   UNL     1      -6.896  12.081  20.758  0.00  0.00    +0.000 A 
ATOM     30  C   UNL     1      -5.715  12.754  21.042  0.00  0.00    +0.000 A 
ATOM     31  C   UNL     1      -4.654  12.701  20.135  0.00  0.00    +0.000 A 
ATOM     32  C   UNL     1      -4.769  11.956  18.950  0.00  0.00    +0.000 A 
ATOM     33  C   UNL     1      -6.004  11.352  18.648  0.00  0.00    +0.000 A 
ATOM     34  C   UNL     1      -7.059  11.399  19.560  0.00  0.00    +0.000 A 
ENDBRANCH  27  32
ENDBRANCH  20  27
ENDBRANCH  19  24
ENDBRANCH   1  19
TORSDOF 7
ENDMDL
MODEL 3
REMARK VINA RESULT:      -8.0      3.116      4.387
REMARK  Name = 
REMARK  7 active torsions:
REMARK  status: ('A' for Active; 'I' for Inactive)
REMARK    1  A    between atoms: C_5  and  C_6
REMARK    2  A    between atoms: C_6  and  N_7
REMARK    3  A    between atoms: N_11  and  C_12
REMARK    4  A    between atoms: C_12  and  C_13
REMARK    5  A    between atoms: C_13  and  C_14
REMARK    6  A    between atoms: C_16  and  C_17
REMARK    7  A    between atoms: C_23  and  C_24
REMARK                            x       y       z     vdW  Elec       q    Type
REMARK                         _______ _______ _______ _____ _____    ______ ____
ROOT
ATOM      1  C   UNL     1       1.349   9.013  17.735  0.00  0.00    +0.000 C 
ENDROOT
BRANCH   1   2
ATOM      2  C   UNL     1       2.178   7.800  18.080  0.00  0.00    +0.000 A 
ATOM      3  C   UNL     1       1.779   6.955  19.095  0.00  0.00    +0.000 A 
ATOM      4  C   UNL     1       2.488   5.784  19.246  0.00  0.00    +0.000 A 
ATOM      5  N   UNL     1       3.594   5.523  18.518  0.00  0.00    +0.000 NA
ATOM      6  C   UNL     1       3.956   6.431  17.601  0.00  0.00    +0.000 A 
ATOM      7  N   UNL     1       3.272   7.557  17.334  0.00  0.00    +0.000 NA
BRANCH   6   8
ATOM      8  C   UNL     1       5.215   6.177  16.877  0.00  0.00    +0.000 A 
ATOM      9  C   UNL     1       6.414   6.800  17.258  0.00  0.00    +0.000 A 
ATOM     10  C   UNL     1       7.563   6.588  16.514  0.00  0.00    +0.000 A 
ATOM     11  N   UNL     1       7.613   5.793  15.428  0.00  0.00    +0.000 NA
ATOM     12  C   UNL     1       6.463   5.181  15.076  0.00  0.00    +0.000 A 
ATOM     13  C   UNL     1       5.266   5.335  15.758  0.00  0.00    +0.000 A 
ENDBRANCH   6   8
BRANCH   4  14
ATOM     14  C   UNL     1       2.072   4.668  20.109  0.00  0.00    +0.000 A 
ATOM     15  C   UNL     1       2.461   4.421  21.417  0.00  0.00    +0.000 A 
ATOM     16  C   UNL     1       2.016   3.161  21.904  0.00  0.00    +0.000 A 
ATOM     17  C   UNL     1       1.245   2.500  20.978  0.00  0.00    +0.000 A 
ATOM     18  S   UNL     1       1.045   3.407  19.547  0.00  0.00    +0.000 S 
ENDBRANCH   4  14
ENDBRANCH   1   2
BRANCH   1  19
ATOM     19  C   UNL     1       1.905  10.317  18.338  0.00  0.00    +0.000 C 
BRANCH  19  24
ATOM     20  N   UNL     1      -1.522  11.872  18.799  0.00  0.00    +0.000 NA
ATOM     21  C   UNL     1      -0.458  12.744  18.289  0.00  0.00    +0.000 C 
ATOM     22  C   UNL     1       0.664  13.160  19.232  0.00  0.00    +0.000 C 
ATOM     23  C   UNL     1       1.434  12.113  20.024  0.00  0.00    +0.000 C 
ATOM     24  N   UNL     1       1.375  10.707  19.654  0.00  0.00    +0.000 NA
ATOM     25  C   UNL     1       0.043  10.152  19.941  0.00  0.00    +0.000 C 
ATOM     26  C   UNL     1      -1.104  10.464  18.958  0.00  0.00    +0.000 C 
BRANCH  20  27
ATOM     27  C   UNL     1      -2.728  11.950  17.919  0.00  0.00    +0.000 C 
BRANCH  27  32
ATOM     28  F   UNL     1      -7.907  11.314  20.067  0.00  0.00    +0.000 F 
ATOM     29  C   UNL     1      -6.646  11.381  19.621  0.00  0.00    +0.000 A 
ATOM     30  C   UNL     1      -6.267  10.623  18.520  0.00  0.00    +0.000 A 
ATOM     31  C   UNL     1      -4.971  10.744  18.012  0.00  0.00    +0.000 A 
ATOM     32  C   UNL     1      -4.060  11.641  18.594  0.00  0.00    +0.000 A 
ATOM     33  C   UNL     1      -4.443  12.335  19.757  0.00  0.00    +0.000 A 
ATOM     34  C   UNL     1      -5.741  12.219  20.258  0.00  0.00    +0.000 A 
ENDBRANCH  27  32
ENDBRANCH  20  27
ENDBRANCH  19  24
ENDBRANCH   1  19
TORSDOF 7
ENDMDL
MODEL 4
REMARK VINA RESULT:      -7.9      2.878      3.847
REMARK  Name = 
REMARK  7 active torsions:
REMARK  status: ('A' for Active; 'I' for Inactive)
REMARK    1  A    between atoms: C_5  and  C_6
REMARK    2  A    between atoms: C_6  and  N_7
REMARK    3  A    between atoms: N_11  and  C_12
REMARK    4  A    between atoms: C_12  and  C_13
REMARK    5  A    between atoms: C_13  and  C_14
REMARK    6  A    between atoms: C_16  and  C_17
REMARK    7  A    between atoms: C_23  and  C_24
REMARK                            x       y       z     vdW  Elec       q    Type
REMARK                         _______ _______ _______ _____ _____    ______ ____
ROOT
ATOM      1  C   UNL     1       1.609   9.317  18.057  0.00  0.00    +0.000 C 
ENDROOT
BRANCH   1   2
ATOM      2  C   UNL     1       2.348   8.025  18.307  0.00  0.00    +0.000 A 
ATOM      3  C   UNL     1       1.896   7.143  19.266  0.00  0.00    +0.000 A 
ATOM      4  C   UNL     1       2.518   5.916  19.327  0.00  0.00    +0.000 A 
ATOM      5  N   UNL     1       3.596   5.626  18.570  0.00  0.00    +0.000 NA
ATOM      6  C   UNL     1       4.018   6.567  17.714  0.00  0.00    +0.000 A 
ATOM      7  N   UNL     1       3.416   7.756  17.533  0.00  0.00    +0.000 NA
BRANCH   6   8
ATOM      8  C   UNL     1       5.249   6.273  16.958  0.00  0.00    +0.000 A 
ATOM      9  C   UNL     1       6.471   6.878  17.291  0.00  0.00    +0.000 A 
ATOM     10  C   UNL     1       7.593   6.627  16.518  0.00  0.00    +0.000 A 
ATOM     11  N   UNL     1       7.595   5.811  15.448  0.00  0.00    +0.000 NA
ATOM     12  C   UNL     1       6.423   5.216  15.142  0.00  0.00    +0.000 A 
ATOM     13  C   UNL     1       5.249   5.408  15.855  0.00  0.00    +0.000 A 
ENDBRANCH   6   8
BRANCH   4  14
ATOM     14  C   UNL     1       2.026   4.776  20.117  0.00  0.00    +0.000 A 
ATOM     15  C   UNL     1       2.345   4.456  21.428  0.00  0.00    +0.000 A 
ATOM     16  C   UNL     1       1.838   3.191  21.834  0.00  0.00    +0.000 A 
ATOM     17  C   UNL     1       1.092   2.599  20.843  0.00  0.00    +0.000 A 
ATOM     18  S   UNL     1       0.988   3.578  19.449  0.00  0.00    +0.000 S 
ENDBRANCH   4  14
ENDBRANCH   1   2
BRANCH   1  19
ATOM     19  C   UNL     1       0.733   9.754  19.247  0.00  0.00    +0.000 C 
BRANCH  19  24
ATOM     20  N   UNL     1      -1.508  12.491  20.611  0.00  0.00    +0.000 NA
ATOM     21  C   UNL     1      -1.161  12.562  19.187  0.00  0.00    +0.000 C 
ATOM     22  C   UNL     1       0.269  12.917  18.798  0.00  0.00    +0.000 C 
ATOM     23  C   UNL     1       1.442  12.155  19.396  0.00  0.00    +0.000 C 
ATOM     24  N   UNL     1       1.241  10.875  20.055  0.00  0.00    +0.000 NA
ATOM     25  C   UNL     1       0.525  11.055  21.328  0.00  0.00    +0.000 C 
ATOM     26  C   UNL     1      -1.001  11.277  21.281  0.00  0.00    +0.000 C 
BRANCH  20  27
ATOM     27  C   UNL     1      -2.988  12.594  20.793  0.00  0.00    +0.000 C 
BRANCH  27  32
ATOM     28  F   UNL     1      -4.060  15.904  25.236  0.00  0.00    +0.000 F 
ATOM     29  C   UNL     1      -3.914  15.103  24.173  0.00  0.00    +0.000 A 
ATOM     30  C   UNL     1      -3.935  15.649  22.895  0.00  0.00    +0.000 A 
ATOM     31  C   UNL     1      -3.714  14.825  21.789  0.00  0.00    +0.000 A 
ATOM     32  C   UNL     1      -3.452  13.456  21.963  0.00  0.00    +0.000 A 
ATOM     33  C   UNL     1      -3.519  12.914  23.260  0.00  0.00    +0.000 A 
ATOM     34  C   UNL     1      -3.731  13.740  24.364  0.00  0.00    +0.000 A 
ENDBRANCH  27  32
ENDBRANCH  20  27
ENDBRANCH  19  24
ENDBRANCH   1  19
TORSDOF 7
ENDMDL
MODEL 5
REMARK VINA RESULT:      -7.9      2.962      3.960
REMARK  Name = 
REMARK  7 active torsions:
REMARK  status: ('A' for Active; 'I' for Inactive)
REMARK    1  A    between atoms: C_5  and  C_6
REMARK    2  A    between atoms: C_6  and  N_7
REMARK    3  A    between atoms: N_11  and  C_12
REMARK    4  A    between atoms: C_12  and  C_13
REMARK    5  A    between atoms: C_13  and  C_14
REMARK    6  A    between atoms: C_16  and  C_17
REMARK    7  A    between atoms: C_23  and  C_24
REMARK                            x       y       z     vdW  Elec       q    Type
REMARK                         _______ _______ _______ _____ _____    ______ ____
ROOT
ATOM      1  C   UNL     1       2.163   9.371  17.870  0.00  0.00    +0.000 C 
ENDROOT
BRANCH   1   2
ATOM      2  C   UNL     1       2.755   7.996  18.057  0.00  0.00    +0.000 A 
ATOM      3  C   UNL     1       2.257   7.154  19.029  0.00  0.00    +0.000 A 
ATOM      4  C   UNL     1       2.730   5.861  19.035  0.00  0.00    +0.000 A 
ATOM      5  N   UNL     1       3.719   5.461  18.210  0.00  0.00    +0.000 NA
ATOM      6  C   UNL     1       4.200   6.362  17.342  0.00  0.00    +0.000 A 
ATOM      7  N   UNL     1       3.735   7.619  17.215  0.00  0.00    +0.000 NA
BRANCH   6   8
ATOM      8  C   UNL     1       5.341   5.940  16.509  0.00  0.00    +0.000 A 
ATOM      9  C   UNL     1       6.664   6.183  16.907  0.00  0.00    +0.000 A 
ATOM     10  C   UNL     1       7.708   5.831  16.068  0.00  0.00    +0.000 A 
ATOM     11  N   UNL     1       7.536   5.243  14.870  0.00  0.00    +0.000 NA
ATOM     12  C   UNL     1       6.263   4.993  14.498  0.00  0.00    +0.000 A 
ATOM     13  C   UNL     1       5.156   5.312  15.269  0.00  0.00    +0.000 A 
ENDBRANCH   6   8
BRANCH   4  14
ATOM     14  C   UNL     1       2.153   4.770  19.837  0.00  0.00    +0.000 A 
ATOM     15  C   UNL     1       2.285   4.564  21.202  0.00  0.00    +0.000 A 
ATOM     16  C   UNL     1       1.750   3.319  21.634  0.00  0.00    +0.000 A 
ATOM     17  C   UNL     1       1.167   2.628  20.598  0.00  0.00    +0.000 A 
ATOM     18  S   UNL     1       1.247   3.491  19.128  0.00  0.00    +0.000 S 
ENDBRANCH   4  14
ENDBRANCH   1   2
BRANCH   1  19
ATOM     19  C   UNL     1       1.009   9.672  18.846  0.00  0.00    +0.000 C 
BRANCH  19  24
ATOM     20  N   UNL     1      -1.578  12.271  19.811  0.00  0.00    +0.000 NA
ATOM     21  C   UNL     1      -0.872  12.472  18.540  0.00  0.00    +0.000 C 
ATOM     22  C   UNL     1       0.600  12.862  18.572  0.00  0.00    +0.000 C 
ATOM     23  C   UNL     1       1.596  12.049  19.387  0.00  0.00    +0.000 C 
ATOM     24  N   UNL     1       1.260  10.714  19.855  0.00  0.00    +0.000 NA
ATOM     25  C   UNL     1       0.233  10.776  20.906  0.00  0.00    +0.000 C 
ATOM     26  C   UNL     1      -1.233  11.001  20.480  0.00  0.00    +0.000 C 
BRANCH  20  27
ATOM     27  C   UNL     1      -3.056  12.357  19.607  0.00  0.00    +0.000 C 
BRANCH  27  32
ATOM     28  F   UNL     1      -6.176  14.950  23.529  0.00  0.00    +0.000 F 
ATOM     29  C   UNL     1      -5.411  14.258  22.674  0.00  0.00    +0.000 A 
ATOM     30  C   UNL     1      -5.979  13.247  21.910  0.00  0.00    +0.000 A 
ATOM     31  C   UNL     1      -5.199  12.572  20.969  0.00  0.00    +0.000 A 
ATOM     32  C   UNL     1      -3.853  12.923  20.777  0.00  0.00    +0.000 A 
ATOM     33  C   UNL     1      -3.281  13.894  21.621  0.00  0.00    +0.000 A 
ATOM     34  C   UNL     1      -4.064  14.574  22.554  0.00  0.00    +0.000 A 
ENDBRANCH  27  32
ENDBRANCH  20  27
ENDBRANCH  19  24
ENDBRANCH   1  19
TORSDOF 7
ENDMDL
MODEL 6
REMARK VINA RESULT:      -7.9      2.672      3.839
REMARK  Name = 
REMARK  7 active torsions:
REMARK  status: ('A' for Active; 'I' for Inactive)
REMARK    1  A    between atoms: C_5  and  C_6
REMARK    2  A    between atoms: C_6  and  N_7
REMARK    3  A    between atoms: N_11  and  C_12
REMARK    4  A    between atoms: C_12  and  C_13
REMARK    5  A    between atoms: C_13  and  C_14
REMARK    6  A    between atoms: C_16  and  C_17
REMARK    7  A    between atoms: C_23  and  C_24
REMARK                            x       y       z     vdW  Elec       q    Type
REMARK                         _______ _______ _______ _____ _____    ______ ____
ROOT
ATOM      1  C   UNL     1       1.585   9.099  17.824  0.00  0.00    +0.000 C 
ENDROOT
BRANCH   1   2
ATOM      2  C   UNL     1       2.346   7.830  18.119  0.00  0.00    +0.000 A 
ATOM      3  C   UNL     1       1.922   6.986  19.124  0.00  0.00    +0.000 A 
ATOM      4  C   UNL     1       2.562   5.771  19.229  0.00  0.00    +0.000 A 
ATOM      5  N   UNL     1       3.631   5.462  18.467  0.00  0.00    +0.000 NA
ATOM      6  C   UNL     1       4.025   6.368  17.562  0.00  0.00    +0.000 A 
ATOM      7  N   UNL     1       3.404   7.541  17.339  0.00  0.00    +0.000 NA
BRANCH   6   8
ATOM      8  C   UNL     1       5.248   6.057  16.799  0.00  0.00    +0.000 A 
ATOM      9  C   UNL     1       6.493   6.589  17.168  0.00  0.00    +0.000 A 
ATOM     10  C   UNL     1       7.608   6.327  16.389  0.00  0.00    +0.000 A 
ATOM     11  N   UNL     1       7.581   5.565  15.279  0.00  0.00    +0.000 NA
ATOM     12  C   UNL     1       6.386   5.040  14.937  0.00  0.00    +0.000 A 
ATOM     13  C   UNL     1       5.217   5.249  15.654  0.00  0.00    +0.000 A 
ENDBRANCH   6   8
BRANCH   4  14
ATOM     14  C   UNL     1       2.100   4.661  20.077  0.00  0.00    +0.000 A 
ATOM     15  C   UNL     1       2.429   4.416  21.402  0.00  0.00    +0.000 A 
ATOM     16  C   UNL     1       1.953   3.162  21.873  0.00  0.00    +0.000 A 
ATOM     17  C   UNL     1       1.220   2.502  20.916  0.00  0.00    +0.000 A 
ATOM     18  S   UNL     1       1.090   3.405  19.474  0.00  0.00    +0.000 S 
ENDBRANCH   4  14
ENDBRANCH   1   2
BRANCH   1  19
ATOM     19  C   UNL     1       1.687  10.143  18.953  0.00  0.00    +0.000 C 
BRANCH  19  24
ATOM     20  N   UNL     1      -0.708  11.855  21.342  0.00  0.00    +0.000 NA
ATOM     21  C   UNL     1      -1.248  10.762  20.526  0.00  0.00    +0.000 C 
ATOM     22  C   UNL     1      -1.428  10.985  19.029  0.00  0.00    +0.000 C 
ATOM     23  C   UNL     1      -0.274  11.502  18.182  0.00  0.00    +0.000 C 
ATOM     24  N   UNL     1       1.092  11.461  18.680  0.00  0.00    +0.000 NA
ATOM     25  C   UNL     1       1.274  12.428  19.774  0.00  0.00    +0.000 C 
ATOM     26  C   UNL     1       0.746  12.051  21.175  0.00  0.00    +0.000 C 
BRANCH  20  27
ATOM     27  C   UNL     1      -1.030  11.638  22.786  0.00  0.00    +0.000 C 
BRANCH  27  32
ATOM     28  F   UNL     1      -4.711  15.566  24.476  0.00  0.00    +0.000 F 
ATOM     29  C   UNL     1      -3.817  14.614  24.181  0.00  0.00    +0.000 A 
ATOM     30  C   UNL     1      -4.233  13.294  24.068  0.00  0.00    +0.000 A 
ATOM     31  C   UNL     1      -3.315  12.310  23.693  0.00  0.00    +0.000 A 
ATOM     32  C   UNL     1      -1.982  12.652  23.410  0.00  0.00    +0.000 A 
ATOM     33  C   UNL     1      -1.568  13.982  23.613  0.00  0.00    +0.000 A 
ATOM     34  C   UNL     1      -2.489  14.964  23.979  0.00  0.00    +0.000 A 
ENDBRANCH  27  32
ENDBRANCH  20  27
ENDBRANCH  19  24
ENDBRANCH   1  19
TORSDOF 7
ENDMDL
MODEL 7
REMARK VINA RESULT:      -7.9      2.865      3.648
REMARK  Name = 
REMARK  7 active torsions:
REMARK  status: ('A' for Active; 'I' for Inactive)
REMARK    1  A    between atoms: C_5  and  C_6
REMARK    2  A    between atoms: C_6  and  N_7
REMARK    3  A    between atoms: N_11  and  C_12
REMARK    4  A    between atoms: C_12  and  C_13
REMARK    5  A    between atoms: C_13  and  C_14
REMARK    6  A    between atoms: C_16  and  C_17
REMARK    7  A    between atoms: C_23  and  C_24
REMARK                            x       y       z     vdW  Elec       q    Type
REMARK                         _______ _______ _______ _____ _____    ______ ____
ROOT
ATOM      1  C   UNL     1       2.005   9.149  17.776  0.00  0.00    +0.000 C 
ENDROOT
BRANCH   1   2
ATOM      2  C   UNL     1       2.644   7.818  18.086  0.00  0.00    +0.000 A 
ATOM      3  C   UNL     1       2.152   7.034  19.108  0.00  0.00    +0.000 A 
ATOM      4  C   UNL     1       2.675   5.766  19.228  0.00  0.00    +0.000 A 
ATOM      5  N   UNL     1       3.703   5.344  18.463  0.00  0.00    +0.000 NA
ATOM      6  C   UNL     1       4.172   6.195  17.539  0.00  0.00    +0.000 A 
ATOM      7  N   UNL     1       3.663   7.417  17.302  0.00  0.00    +0.000 NA
BRANCH   6   8
ATOM      8  C   UNL     1       5.352   5.756  16.771  0.00  0.00    +0.000 A 
ATOM      9  C   UNL     1       5.353   5.762  15.368  0.00  0.00    +0.000 A 
ATOM     10  C   UNL     1       6.456   5.281  14.681  0.00  0.00    +0.000 A 
ATOM     11  N   UNL     1       7.562   4.809  15.284  0.00  0.00    +0.000 NA
ATOM     12  C   UNL     1       7.566   4.822  16.634  0.00  0.00    +0.000 A 
ATOM     13  C   UNL     1       6.509   5.281  17.405  0.00  0.00    +0.000 A 
ENDBRANCH   6   8
BRANCH   4  14
ATOM     14  C   UNL     1       2.118   4.718  20.099  0.00  0.00    +0.000 A 
ATOM     15  C   UNL     1       2.468   4.436  21.410  0.00  0.00    +0.000 A 
ATOM     16  C   UNL     1       1.866   3.247  21.906  0.00  0.00    +0.000 A 
ATOM     17  C   UNL     1       1.022   2.679  20.981  0.00  0.00    +0.000 A 
ATOM     18  S   UNL     1       0.943   3.592  19.542  0.00  0.00    +0.000 S 
ENDBRANCH   4  14
ENDBRANCH   1   2
BRANCH   1  19
ATOM     19  C   UNL     1       0.985   9.593  18.842  0.00  0.00    +0.000 C 
BRANCH  19  24
ATOM     20  N   UNL     1      -1.390  12.306  20.018  0.00  0.00    +0.000 NA
ATOM     21  C   UNL     1      -0.889  12.408  18.643  0.00  0.00    +0.000 C 
ATOM     22  C   UNL     1       0.575  12.768  18.421  0.00  0.00    +0.000 C 
ATOM     23  C   UNL     1       1.676  11.987  19.124  0.00  0.00    +0.000 C 
ATOM     24  N   UNL     1       1.402  10.693  19.728  0.00  0.00    +0.000 NA
ATOM     25  C   UNL     1       0.552  10.846  20.918  0.00  0.00    +0.000 C 
ATOM     26  C   UNL     1      -0.960  11.074  20.710  0.00  0.00    +0.000 C 
BRANCH  20  27
ATOM     27  C   UNL     1      -2.881  12.410  20.040  0.00  0.00    +0.000 C 
BRANCH  27  32
ATOM     28  F   UNL     1      -5.324  15.338  24.199  0.00  0.00    +0.000 F 
ATOM     29  C   UNL     1      -4.703  14.738  23.175  0.00  0.00    +0.000 A 
ATOM     30  C   UNL     1      -3.399  14.286  23.335  0.00  0.00    +0.000 A 
ATOM     31  C   UNL     1      -2.774  13.599  22.291  0.00  0.00    +0.000 A 
ATOM     32  C   UNL     1      -3.463  13.347  21.094  0.00  0.00    +0.000 A 
ATOM     33  C   UNL     1      -4.752  13.887  20.928  0.00  0.00    +0.000 A 
ATOM     34  C   UNL     1      -5.377  14.565  21.974  0.00  0.00    +0.000 A 
ENDBRANCH  27  32
ENDBRANCH  20  27
ENDBRANCH  19  24
ENDBRANCH   1  19
TORSDOF 7
ENDMDL
MODEL 8
REMARK VINA RESULT:      -7.9      0.841      1.251
REMARK  Name = 
REMARK  7 active torsions:
REMARK  status: ('A' for Active; 'I' for Inactive)
REMARK    1  A    between atoms: C_5  and  C_6
REMARK    2  A    between atoms: C_6  and  N_7
REMARK    3  A    between atoms: N_11  and  C_12
REMARK    4  A    between atoms: C_12  and  C_13
REMARK    5  A    between atoms: C_13  and  C_14
REMARK    6  A    between atoms: C_16  and  C_17
REMARK    7  A    between atoms: C_23  and  C_24
REMARK                            x       y       z     vdW  Elec       q    Type
REMARK                         _______ _______ _______ _____ _____    ______ ____
ROOT
ATOM      1  C   UNL     1       1.931   9.092  18.070  0.00  0.00    +0.000 C 
ENDROOT
BRANCH   1   2
ATOM      2  C   UNL     1       2.580   7.742  18.252  0.00  0.00    +0.000 A 
ATOM      3  C   UNL     1       2.128   6.883  19.232  0.00  0.00    +0.000 A 
ATOM      4  C   UNL     1       2.652   5.610  19.235  0.00  0.00    +0.000 A 
ATOM      5  N   UNL     1       3.645   5.247  18.398  0.00  0.00    +0.000 NA
ATOM      6  C   UNL     1       4.079   6.165  17.522  0.00  0.00    +0.000 A 
ATOM      7  N   UNL     1       3.563   7.402  17.399  0.00  0.00    +0.000 NA
BRANCH   6   8
ATOM      8  C   UNL     1       5.225   5.786  16.675  0.00  0.00    +0.000 A 
ATOM      9  C   UNL     1       5.088   4.851  15.637  0.00  0.00    +0.000 A 
ATOM     10  C   UNL     1       6.201   4.472  14.906  0.00  0.00    +0.000 A 
ATOM     11  N   UNL     1       7.436   4.961  15.119  0.00  0.00    +0.000 NA
ATOM     12  C   UNL     1       7.562   5.873  16.105  0.00  0.00    +0.000 A 
ATOM     13  C   UNL     1       6.506   6.312  16.891  0.00  0.00    +0.000 A 
ENDBRANCH   6   8
BRANCH   4  14
ATOM     14  C   UNL     1       2.128   4.499  20.046  0.00  0.00    +0.000 A 
ATOM     15  C   UNL     1       2.309   4.288  21.405  0.00  0.00    +0.000 A 
ATOM     16  C   UNL     1       1.820   3.027  21.844  0.00  0.00    +0.000 A 
ATOM     17  C   UNL     1       1.223   2.328  20.822  0.00  0.00    +0.000 A 
ATOM     18  S   UNL     1       1.234   3.202  19.357  0.00  0.00    +0.000 S 
ENDBRANCH   4  14
ENDBRANCH   1   2
BRANCH   1  19
ATOM     19  C   UNL     1       1.120   9.546  19.299  0.00  0.00    +0.000 C 
BRANCH  19  24
ATOM     20  N   UNL     1       0.919  13.226  20.190  0.00  0.00    +0.000 NA
ATOM     21  C   UNL     1       0.759  12.265  21.287  0.00  0.00    +0.000 C 
ATOM     22  C   UNL     1      -0.515  11.430  21.349  0.00  0.00    +0.000 C 
ATOM     23  C   UNL     1      -0.977  10.638  20.134  0.00  0.00    +0.000 C 
ATOM     24  N   UNL     1      -0.070  10.370  19.030  0.00  0.00    +0.000 NA
ATOM     25  C   UNL     1       0.225  11.606  18.290  0.00  0.00    +0.000 C 
ATOM     26  C   UNL     1       1.246  12.593  18.896  0.00  0.00    +0.000 C 
BRANCH  20  27
ATOM     27  C   UNL     1       1.957  14.244  20.536  0.00  0.00    +0.000 C 
BRANCH  27  32
ATOM     28  F   UNL     1       2.714  17.699  16.139  0.00  0.00    +0.000 F 
ATOM     29  C   UNL     1       2.586  16.954  17.244  0.00  0.00    +0.000 A 
ATOM     30  C   UNL     1       1.471  17.119  18.057  0.00  0.00    +0.000 A 
ATOM     31  C   UNL     1       1.302  16.295  19.172  0.00  0.00    +0.000 A 
ATOM     32  C   UNL     1       2.240  15.291  19.463  0.00  0.00    +0.000 A 
ATOM     33  C   UNL     1       3.401  15.200  18.672  0.00  0.00    +0.000 A 
ATOM     34  C   UNL     1       3.563  16.017  17.553  0.00  0.00    +0.000 A 
ENDBRANCH  27  32
ENDBRANCH  20  27
ENDBRANCH  19  24
ENDBRANCH   1  19
TORSDOF 7
ENDMDL
MODEL 9
REMARK VINA RESULT:      -7.8      0.968      1.241
REMARK  Name = 
REMARK  7 active torsions:
REMARK  status: ('A' for Active; 'I' for Inactive)
REMARK    1  A    between atoms: C_5  and  C_6
REMARK    2  A    between atoms: C_6  and  N_7
REMARK    3  A    between atoms: N_11  and  C_12
REMARK    4  A    between atoms: C_12  and  C_13
REMARK    5  A    between atoms: C_13  and  C_14
REMARK    6  A    between atoms: C_16  and  C_17
REMARK    7  A    between atoms: C_23  and  C_24
REMARK                            x       y       z     vdW  Elec       q    Type
REMARK                         _______ _______ _______ _____ _____    ______ ____
ROOT
ATOM      1  C   UNL     1       2.057   9.017  17.776  0.00  0.00    +0.000 C 
ENDROOT
BRANCH   1   2
ATOM      2  C   UNL     1       2.694   7.682  18.076  0.00  0.00    +0.000 A 
ATOM      3  C   UNL     1       2.201   6.893  19.094  0.00  0.00    +0.000 A 
ATOM      4  C   UNL     1       2.720   5.622  19.205  0.00  0.00    +0.000 A 
ATOM      5  N   UNL     1       3.745   5.203  18.434  0.00  0.00    +0.000 NA
ATOM      6  C   UNL     1       4.215   6.058  17.515  0.00  0.00    +0.000 A 
ATOM      7  N   UNL     1       3.709   7.283  17.287  0.00  0.00    +0.000 NA
BRANCH   6   8
ATOM      8  C   UNL     1       5.392   5.621  16.742  0.00  0.00    +0.000 A 
ATOM      9  C   UNL     1       5.408   5.682  15.340  0.00  0.00    +0.000 A 
ATOM     10  C   UNL     1       6.506   5.202  14.645  0.00  0.00    +0.000 A 
ATOM     11  N   UNL     1       7.593   4.678  15.239  0.00  0.00    +0.000 NA
ATOM     12  C   UNL     1       7.583   4.637  16.588  0.00  0.00    +0.000 A 
ATOM     13  C   UNL     1       6.530   5.091  17.367  0.00  0.00    +0.000 A 
ENDBRANCH   6   8
BRANCH   4  14
ATOM     14  C   UNL     1       2.162   4.571  20.069  0.00  0.00    +0.000 A 
ATOM     15  C   UNL     1       2.427   4.354  21.413  0.00  0.00    +0.000 A 
ATOM     16  C   UNL     1       1.860   3.146  21.906  0.00  0.00    +0.000 A 
ATOM     17  C   UNL     1       1.126   2.497  20.943  0.00  0.00    +0.000 A 
ATOM     18  S   UNL     1       1.103   3.356  19.469  0.00  0.00    +0.000 S 
ENDBRANCH   4  14
ENDBRANCH   1   2
BRANCH   1  19
ATOM     19  C   UNL     1       1.537   9.736  19.035  0.00  0.00    +0.000 C 
BRANCH  19  24
ATOM     20  N   UNL     1      -0.358  12.720  20.409  0.00  0.00    +0.000 NA
ATOM     21  C   UNL     1       0.389  11.903  21.372  0.00  0.00    +0.000 C 
ATOM     22  C   UNL     1      -0.121  10.504  21.697  0.00  0.00    +0.000 C 
ATOM     23  C   UNL     1      -0.426   9.516  20.580  0.00  0.00    +0.000 C 
ATOM     24  N   UNL     1       0.078   9.735  19.234  0.00  0.00    +0.000 NA
ATOM     25  C   UNL     1      -0.603  10.877  18.605  0.00  0.00    +0.000 C 
ATOM     26  C   UNL     1      -0.163  12.300  19.006  0.00  0.00    +0.000 C 
BRANCH  20  27
ATOM     27  C   UNL     1      -0.003  14.164  20.563  0.00  0.00    +0.000 C 
BRANCH  27  32
ATOM     28  F   UNL     1       4.413  16.400  17.856  0.00  0.00    +0.000 F 
ATOM     29  C   UNL     1       3.347  15.808  18.409  0.00  0.00    +0.000 A 
ATOM     30  C   UNL     1       3.513  14.630  19.127  0.00  0.00    +0.000 A 
ATOM     31  C   UNL     1       2.413  14.049  19.762  0.00  0.00    +0.000 A 
ATOM     32  C   UNL     1       1.149  14.658  19.695  0.00  0.00    +0.000 A 
ATOM     33  C   UNL     1       0.993  15.805  18.894  0.00  0.00    +0.000 A 
ATOM     34  C   UNL     1       2.094  16.389  18.268  0.00  0.00    +0.000 A 
ENDBRANCH  27  32
ENDBRANCH  20  27
ENDBRANCH  19  24
ENDBRANCH   1  19
TORSDOF 7
ENDMDL
