MODEL 1
REMARK VINA RESULT:      -7.9      0.000      0.000
REMARK  Name = 
REMARK  7 active torsions:
REMARK  status: ('A' for Active; 'I' for Inactive)
REMARK    1  A    between atoms: C_7  and  C_8
REMARK    2  A    between atoms: C_8  and  N_9
REMARK    3  A    between atoms: C_11  and  C_12
REMARK    4  A    between atoms: C_12  and  O_13
REMARK    5  A    between atoms: O_13  and  C_14
REMARK    6  A    between atoms: C_14  and  C_15
REMARK    7  A    between atoms: C_16  and  C_17
REMARK                            x       y       z     vdW  Elec       q    Type
REMARK                         _______ _______ _______ _____ _____    ______ ____
ROOT
ATOM      1  C   UNL     1       1.279   9.467  19.937  0.00  0.00    +0.000 A 
ATOM      2  C   UNL     1       1.378  10.387  18.868  0.00  0.00    +0.000 A 
ATOM      3  N   UNL     1       1.939   9.804  17.753  0.00  0.00    +0.000 NA
ATOM      4  C   UNL     1       2.288   8.630  18.161  0.00  0.00    +0.000 A 
ATOM      5  S   UNL     1       3.337   7.468  17.433  0.00  0.00    +0.000 S 
ATOM      6  C   UNL     1       3.013   6.414  18.830  0.00  0.00    +0.000 A 
ATOM      7  C   UNL     1       3.562   5.156  19.008  0.00  0.00    +0.000 A 
ATOM      8  C   UNL     1       3.101   4.384  20.068  0.00  0.00    +0.000 A 
ATOM      9  C   UNL     1       2.094   4.876  20.915  0.00  0.00    +0.000 A 
ATOM     10  C   UNL     1       1.589   6.181  20.773  0.00  0.00    +0.000 A 
ATOM     11  C   UNL     1       2.095   6.962  19.751  0.00  0.00    +0.000 A 
ATOM     12  N   UNL     1       1.802   8.292  19.396  0.00  0.00    +0.000 N 
ENDROOT
BRANCH   2  13
ATOM     13  C   UNL     1       1.202  11.848  18.836  0.00  0.00    +0.000 A 
ATOM     14  C   UNL     1      -0.127  12.321  18.723  0.00  0.00    +0.000 A 
ATOM     15  C   UNL     1      -0.417  13.681  18.589  0.00  0.00    +0.000 A 
ATOM     16  C   UNL     1       0.618  14.604  18.572  0.00  0.00    +0.000 A 
ATOM     17  C   UNL     1       1.932  14.165  18.728  0.00  0.00    +0.000 A 
ATOM     18  C   UNL     1       2.224  12.797  18.874  0.00  0.00    +0.000 A 
ENDBRANCH   2  13
BRANCH   1  19
ATOM     19  C   UNL     1       0.942   9.777  21.357  0.00  0.00    +0.000 C 
BRANCH  19  20
ATOM     20  O   UNL     1      -0.450   9.926  21.580  0.00  0.00    +0.000 OA
BRANCH  20  21
ATOM     21  C   UNL     1      -0.735  10.764  22.723  0.00  0.00    +0.000 C 
BRANCH  21  24
ATOM     22  N   UNL     1      -3.619  12.811  21.879  0.00  0.00    +0.000 N 
ATOM     23  C   UNL     1      -2.380  12.372  21.503  0.00  0.00    +0.000 A 
ATOM     24  C   UNL     1      -1.948  11.622  22.579  0.00  0.00    +0.000 A 
ATOM     25  N   UNL     1      -2.892  11.690  23.573  0.00  0.00    +0.000 NA
ATOM     26  N   UNL     1      -3.911  12.415  23.131  0.00  0.00    +0.000 NA
BRANCH  22  27
ATOM     27  C   UNL     1      -4.648  13.395  21.036  0.00  0.00    +0.000 C 
BRANCH  27  34
ATOM     28  F   UNL     1      -3.830  12.319  18.561  0.00  0.00    +0.000 F 
ATOM     29  C   UNL     1      -4.983  11.863  19.071  0.00  0.00    +0.000 A 
ATOM     30  C   UNL     1      -5.691  10.890  18.373  0.00  0.00    +0.000 A 
ATOM     31  C   UNL     1      -6.887  10.400  18.896  0.00  0.00    +0.000 A 
ATOM     32  C   UNL     1      -7.365  10.889  20.111  0.00  0.00    +0.000 A 
ATOM     33  C   UNL     1      -6.648  11.866  20.807  0.00  0.00    +0.000 A 
ATOM     34  C   UNL     1      -5.441  12.361  20.294  0.00  0.00    +0.000 A 
ENDBRANCH  27  34
ENDBRANCH  22  27
ENDBRANCH  21  24
ENDBRANCH  20  21
ENDBRANCH  19  20
ENDBRANCH   1  19
TORSDOF 7
ENDMDL
MODEL 2
REMARK VINA RESULT:      -7.7      2.117      2.725
REMARK  Name = 
REMARK  7 active torsions:
REMARK  status: ('A' for Active; 'I' for Inactive)
REMARK    1  A    between atoms: C_7  and  C_8
REMARK    2  A    between atoms: C_8  and  N_9
REMARK    3  A    between atoms: C_11  and  C_12
REMARK    4  A    between atoms: C_12  and  O_13
REMARK    5  A    between atoms: O_13  and  C_14
REMARK    6  A    between atoms: C_14  and  C_15
REMARK    7  A    between atoms: C_16  and  C_17
REMARK                            x       y       z     vdW  Elec       q    Type
REMARK                         _______ _______ _______ _____ _____    ______ ____
ROOT
ATOM      1  C   UNL     1       1.756   7.936  19.491  0.00  0.00    +0.000 A 
ATOM      2  C   UNL     1       1.658   8.973  18.535  0.00  0.00    +0.000 A 
ATOM      3  N   UNL     1       2.432   8.707  17.426  0.00  0.00    +0.000 NA
ATOM      4  C   UNL     1       3.070   7.632  17.745  0.00  0.00    +0.000 A 
ATOM      5  S   UNL     1       4.449   6.900  17.008  0.00  0.00    +0.000 S 
ATOM      6  C   UNL     1       4.347   5.633  18.254  0.00  0.00    +0.000 A 
ATOM      7  C   UNL     1       5.216   4.560  18.356  0.00  0.00    +0.000 A 
ATOM      8  C   UNL     1       4.924   3.567  19.284  0.00  0.00    +0.000 A 
ATOM      9  C   UNL     1       3.767   3.658  20.075  0.00  0.00    +0.000 A 
ATOM     10  C   UNL     1       2.925   4.782  20.017  0.00  0.00    +0.000 A 
ATOM     11  C   UNL     1       3.255   5.792  19.133  0.00  0.00    +0.000 A 
ATOM     12  N   UNL     1       2.622   7.025  18.887  0.00  0.00    +0.000 N 
ENDROOT
BRANCH   2  13
ATOM     13  C   UNL     1       1.080  10.323  18.634  0.00  0.00    +0.000 A 
ATOM     14  C   UNL     1      -0.332  10.403  18.652  0.00  0.00    +0.000 A 
ATOM     15  C   UNL     1      -1.001  11.630  18.649  0.00  0.00    +0.000 A 
ATOM     16  C   UNL     1      -0.270  12.809  18.635  0.00  0.00    +0.000 A 
ATOM     17  C   UNL     1       1.123  12.753  18.662  0.00  0.00    +0.000 A 
ATOM     18  C   UNL     1       1.797  11.519  18.676  0.00  0.00    +0.000 A 
ENDBRANCH   2  13
BRANCH   1  19
ATOM     19  C   UNL     1       1.254   7.964  20.896  0.00  0.00    +0.000 C 
BRANCH  19  20
ATOM     20  O   UNL     1       1.235   9.267  21.455  0.00  0.00    +0.000 OA
BRANCH  20  21
ATOM     21  C   UNL     1       0.151   9.443  22.395  0.00  0.00    +0.000 C 
BRANCH  21  24
ATOM     22  N   UNL     1      -1.445  12.661  22.960  0.00  0.00    +0.000 N 
ATOM     23  C   UNL     1      -1.556  11.300  23.043  0.00  0.00    +0.000 A 
ATOM     24  C   UNL     1      -0.386  10.834  22.474  0.00  0.00    +0.000 A 
ATOM     25  N   UNL     1       0.340  11.904  22.016  0.00  0.00    +0.000 NA
ATOM     26  N   UNL     1      -0.315  13.015  22.324  0.00  0.00    +0.000 NA
BRANCH  22  27
ATOM     27  C   UNL     1      -2.240  13.659  23.654  0.00  0.00    +0.000 C 
BRANCH  27  34
ATOM     28  F   UNL     1      -3.789  14.524  21.461  0.00  0.00    +0.000 F 
ATOM     29  C   UNL     1      -4.428  13.854  22.430  0.00  0.00    +0.000 A 
ATOM     30  C   UNL     1      -5.792  13.613  22.296  0.00  0.00    +0.000 A 
ATOM     31  C   UNL     1      -6.468  12.910  23.292  0.00  0.00    +0.000 A 
ATOM     32  C   UNL     1      -5.775  12.457  24.414  0.00  0.00    +0.000 A 
ATOM     33  C   UNL     1      -4.405  12.703  24.543  0.00  0.00    +0.000 A 
ATOM     34  C   UNL     1      -3.714  13.403  23.544  0.00  0.00    +0.000 A 
ENDBRANCH  27  34
ENDBRANCH  22  27
ENDBRANCH  21  24
ENDBRANCH  20  21
ENDBRANCH  19  20
ENDBRANCH   1  19
TORSDOF 7
ENDMDL
MODEL 3
REMARK VINA RESULT:      -7.7      3.445      8.471
REMARK  Name = 
REMARK  7 active torsions:
REMARK  status: ('A' for Active; 'I' for Inactive)
REMARK    1  A    between atoms: C_7  and  C_8
REMARK    2  A    between atoms: C_8  and  N_9
REMARK    3  A    between atoms: C_11  and  C_12
REMARK    4  A    between atoms: C_12  and  O_13
REMARK    5  A    between atoms: O_13  and  C_14
REMARK    6  A    between atoms: C_14  and  C_15
REMARK    7  A    between atoms: C_16  and  C_17
REMARK                            x       y       z     vdW  Elec       q    Type
REMARK                         _______ _______ _______ _____ _____    ______ ____
ROOT
ATOM      1  C   UNL     1      -2.190  13.106  20.164  0.00  0.00    +0.000 A 
ATOM      2  C   UNL     1      -3.296  12.465  19.558  0.00  0.00    +0.000 A 
ATOM      3  N   UNL     1      -4.409  12.513  20.368  0.00  0.00    +0.000 NA
ATOM      4  C   UNL     1      -3.973  13.037  21.464  0.00  0.00    +0.000 A 
ATOM      5  S   UNL     1      -4.697  13.103  23.029  0.00  0.00    +0.000 S 
ATOM      6  C   UNL     1      -3.251  13.981  23.578  0.00  0.00    +0.000 A 
ATOM      7  C   UNL     1      -3.048  14.429  24.873  0.00  0.00    +0.000 A 
ATOM      8  C   UNL     1      -1.942  15.233  25.122  0.00  0.00    +0.000 A 
ATOM      9  C   UNL     1      -1.075  15.587  24.075  0.00  0.00    +0.000 A 
ATOM     10  C   UNL     1      -1.246  15.074  22.777  0.00  0.00    +0.000 A 
ATOM     11  C   UNL     1      -2.315  14.227  22.551  0.00  0.00    +0.000 A 
ATOM     12  N   UNL     1      -2.708  13.554  21.379  0.00  0.00    +0.000 N 
ENDROOT
BRANCH   2  13
ATOM     13  C   UNL     1      -3.375  11.600  18.370  0.00  0.00    +0.000 A 
ATOM     14  C   UNL     1      -2.487  10.500  18.332  0.00  0.00    +0.000 A 
ATOM     15  C   UNL     1      -2.400   9.661  17.218  0.00  0.00    +0.000 A 
ATOM     16  C   UNL     1      -3.209   9.898  16.116  0.00  0.00    +0.000 A 
ATOM     17  C   UNL     1      -4.125  10.949  16.151  0.00  0.00    +0.000 A 
ATOM     18  C   UNL     1      -4.219  11.788  17.275  0.00  0.00    +0.000 A 
ENDBRANCH   2  13
BRANCH   1  19
ATOM     19  C   UNL     1      -0.771  13.064  19.707  0.00  0.00    +0.000 C 
BRANCH  19  20
ATOM     20  O   UNL     1      -0.061  11.937  20.193  0.00  0.00    +0.000 OA
BRANCH  20  21
ATOM     21  C   UNL     1       0.637  11.233  19.142  0.00  0.00    +0.000 C 
BRANCH  21  24
ATOM     22  N   UNL     1       2.004   7.901  19.640  0.00  0.00    +0.000 N 
ATOM     23  C   UNL     1       1.800   8.934  18.767  0.00  0.00    +0.000 A 
ATOM     24  C   UNL     1       1.055   9.844  19.492  0.00  0.00    +0.000 A 
ATOM     25  N   UNL     1       0.784   9.310  20.726  0.00  0.00    +0.000 NA
ATOM     26  N   UNL     1       1.374   8.124  20.806  0.00  0.00    +0.000 NA
BRANCH  22  27
ATOM     27  C   UNL     1       2.957   6.811  19.518  0.00  0.00    +0.000 C 
BRANCH  27  34
ATOM     28  F   UNL     1       2.174   4.978  21.514  0.00  0.00    +0.000 F 
ATOM     29  C   UNL     1       1.929   4.634  20.242  0.00  0.00    +0.000 A 
ATOM     30  C   UNL     1       1.299   3.420  19.982  0.00  0.00    +0.000 A 
ATOM     31  C   UNL     1       1.029   3.053  18.664  0.00  0.00    +0.000 A 
ATOM     32  C   UNL     1       1.394   3.900  17.619  0.00  0.00    +0.000 A 
ATOM     33  C   UNL     1       2.027   5.117  17.887  0.00  0.00    +0.000 A 
ATOM     34  C   UNL     1       2.296   5.500  19.209  0.00  0.00    +0.000 A 
ENDBRANCH  27  34
ENDBRANCH  22  27
ENDBRANCH  21  24
ENDBRANCH  20  21
ENDBRANCH  19  20
ENDBRANCH   1  19
TORSDOF 7
ENDMDL
MODEL 4
REMARK VINA RESULT:      -7.7      1.821      2.604
REMARK  Name = 
REMARK  7 active torsions:
REMARK  status: ('A' for Active; 'I' for Inactive)
REMARK    1  A    between atoms: C_7  and  C_8
REMARK    2  A    between atoms: C_8  and  N_9
REMARK    3  A    between atoms: C_11  and  C_12
REMARK    4  A    between atoms: C_12  and  O_13
REMARK    5  A    between atoms: O_13  and  C_14
REMARK    6  A    between atoms: C_14  and  C_15
REMARK    7  A    between atoms: C_16  and  C_17
REMARK                            x       y       z     vdW  Elec       q    Type
REMARK                         _______ _______ _______ _____ _____    ______ ____
ROOT
ATOM      1  C   UNL     1       1.454   8.137  19.467  0.00  0.00    +0.000 A 
ATOM      2  C   UNL     1       1.504   9.165  18.498  0.00  0.00    +0.000 A 
ATOM      3  N   UNL     1       2.385   8.856  17.484  0.00  0.00    +0.000 NA
ATOM      4  C   UNL     1       2.942   7.761  17.880  0.00  0.00    +0.000 A 
ATOM      5  S   UNL     1       4.363   6.968  17.308  0.00  0.00    +0.000 S 
ATOM      6  C   UNL     1       4.075   5.722  18.545  0.00  0.00    +0.000 A 
ATOM      7  C   UNL     1       4.884   4.619  18.752  0.00  0.00    +0.000 A 
ATOM      8  C   UNL     1       4.453   3.649  19.651  0.00  0.00    +0.000 A 
ATOM      9  C   UNL     1       3.220   3.794  20.308  0.00  0.00    +0.000 A 
ATOM     10  C   UNL     1       2.435   4.949  20.147  0.00  0.00    +0.000 A 
ATOM     11  C   UNL     1       2.899   5.934  19.296  0.00  0.00    +0.000 A 
ATOM     12  N   UNL     1       2.346   7.186  18.971  0.00  0.00    +0.000 N 
ENDROOT
BRANCH   2  13
ATOM     13  C   UNL     1       0.972  10.537  18.520  0.00  0.00    +0.000 A 
ATOM     14  C   UNL     1       1.924  11.582  18.552  0.00  0.00    +0.000 A 
ATOM     15  C   UNL     1       1.545  12.921  18.670  0.00  0.00    +0.000 A 
ATOM     16  C   UNL     1       0.200  13.249  18.749  0.00  0.00    +0.000 A 
ATOM     17  C   UNL     1      -0.758  12.238  18.673  0.00  0.00    +0.000 A 
ATOM     18  C   UNL     1      -0.378  10.891  18.545  0.00  0.00    +0.000 A 
ENDBRANCH   2  13
BRANCH   1  19
ATOM     19  C   UNL     1       0.802   8.203  20.808  0.00  0.00    +0.000 C 
BRANCH  19  20
ATOM     20  O   UNL     1       1.441   9.105  21.695  0.00  0.00    +0.000 OA
BRANCH  20  21
ATOM     21  C   UNL     1       0.608   9.441  22.827  0.00  0.00    +0.000 C 
BRANCH  21  24
ATOM     22  N   UNL     1      -1.656  12.287  22.792  0.00  0.00    +0.000 N 
ATOM     23  C   UNL     1      -1.489  10.963  23.093  0.00  0.00    +0.000 A 
ATOM     24  C   UNL     1      -0.209  10.679  22.655  0.00  0.00    +0.000 A 
ATOM     25  N   UNL     1       0.312  11.797  22.056  0.00  0.00    +0.000 NA
ATOM     26  N   UNL     1      -0.579  12.775  22.151  0.00  0.00    +0.000 NA
BRANCH  22  27
ATOM     27  C   UNL     1      -2.688  13.184  23.280  0.00  0.00    +0.000 C 
BRANCH  27  34
ATOM     28  F   UNL     1      -5.167  12.939  24.603  0.00  0.00    +0.000 F 
ATOM     29  C   UNL     1      -5.187  12.904  23.263  0.00  0.00    +0.000 A 
ATOM     30  C   UNL     1      -6.408  12.768  22.610  0.00  0.00    +0.000 A 
ATOM     31  C   UNL     1      -6.445  12.740  21.217  0.00  0.00    +0.000 A 
ATOM     32  C   UNL     1      -5.260  12.845  20.489  0.00  0.00    +0.000 A 
ATOM     33  C   UNL     1      -4.037  12.981  21.151  0.00  0.00    +0.000 A 
ATOM     34  C   UNL     1      -3.990  13.018  22.551  0.00  0.00    +0.000 A 
ENDBRANCH  27  34
ENDBRANCH  22  27
ENDBRANCH  21  24
ENDBRANCH  20  21
ENDBRANCH  19  20
ENDBRANCH   1  19
TORSDOF 7
ENDMDL
MODEL 5
REMARK VINA RESULT:      -7.6      3.739      6.778
REMARK  Name = 
REMARK  7 active torsions:
REMARK  status: ('A' for Active; 'I' for Inactive)
REMARK    1  A    between atoms: C_7  and  C_8
REMARK    2  A    between atoms: C_8  and  N_9
REMARK    3  A    between atoms: C_11  and  C_12
REMARK    4  A    between atoms: C_12  and  O_13
REMARK    5  A    between atoms: O_13  and  C_14
REMARK    6  A    between atoms: C_14  and  C_15
REMARK    7  A    between atoms: C_16  and  C_17
REMARK                            x       y       z     vdW  Elec       q    Type
REMARK                         _______ _______ _______ _____ _____    ______ ____
ROOT
ATOM      1  C   UNL     1       4.278   5.012  17.053  0.00  0.00    +0.000 A 
ATOM      2  C   UNL     1       4.790   4.143  16.062  0.00  0.00    +0.000 A 
ATOM      3  N   UNL     1       4.550   2.823  16.379  0.00  0.00    +0.000 NA
ATOM      4  C   UNL     1       4.039   2.878  17.563  0.00  0.00    +0.000 A 
ATOM      5  S   UNL     1       3.799   1.627  18.728  0.00  0.00    +0.000 S 
ATOM      6  C   UNL     1       3.101   2.863  19.800  0.00  0.00    +0.000 A 
ATOM      7  C   UNL     1       2.623   2.617  21.076  0.00  0.00    +0.000 A 
ATOM      8  C   UNL     1       1.967   3.647  21.740  0.00  0.00    +0.000 A 
ATOM      9  C   UNL     1       1.787   4.891  21.111  0.00  0.00    +0.000 A 
ATOM     10  C   UNL     1       2.334   5.158  19.844  0.00  0.00    +0.000 A 
ATOM     11  C   UNL     1       3.036   4.146  19.216  0.00  0.00    +0.000 A 
ATOM     12  N   UNL     1       3.705   4.139  17.978  0.00  0.00    +0.000 N 
ENDROOT
BRANCH   2  13
ATOM     13  C   UNL     1       5.693   4.400  14.929  0.00  0.00    +0.000 A 
ATOM     14  C   UNL     1       5.376   3.753  13.712  0.00  0.00    +0.000 A 
ATOM     15  C   UNL     1       6.207   3.842  12.591  0.00  0.00    +0.000 A 
ATOM     16  C   UNL     1       7.373   4.589  12.660  0.00  0.00    +0.000 A 
ATOM     17  C   UNL     1       7.682   5.272  13.836  0.00  0.00    +0.000 A 
ATOM     18  C   UNL     1       6.842   5.191  14.961  0.00  0.00    +0.000 A 
ENDBRANCH   2  13
BRANCH   1  19
ATOM     19  C   UNL     1       4.537   6.476  17.179  0.00  0.00    +0.000 C 
BRANCH  19  20
ATOM     20  O   UNL     1       3.684   7.115  18.113  0.00  0.00    +0.000 OA
BRANCH  20  21
ATOM     21  C   UNL     1       2.779   8.047  17.479  0.00  0.00    +0.000 C 
BRANCH  21  24
ATOM     22  N   UNL     1       0.392  10.042  19.361  0.00  0.00    +0.000 N 
ATOM     23  C   UNL     1       1.079   9.888  18.189  0.00  0.00    +0.000 A 
ATOM     24  C   UNL     1       1.895   8.797  18.420  0.00  0.00    +0.000 A 
ATOM     25  N   UNL     1       1.724   8.383  19.717  0.00  0.00    +0.000 NA
ATOM     26  N   UNL     1       0.799   9.149  20.280  0.00  0.00    +0.000 NA
BRANCH  22  27
ATOM     27  C   UNL     1      -0.798  10.842  19.594  0.00  0.00    +0.000 C 
BRANCH  27  34
ATOM     28  F   UNL     1      -3.096  12.471  19.432  0.00  0.00    +0.000 F 
ATOM     29  C   UNL     1      -2.898  11.597  18.434  0.00  0.00    +0.000 A 
ATOM     30  C   UNL     1      -3.811  11.554  17.385  0.00  0.00    +0.000 A 
ATOM     31  C   UNL     1      -3.614  10.657  16.337  0.00  0.00    +0.000 A 
ATOM     32  C   UNL     1      -2.507   9.810  16.348  0.00  0.00    +0.000 A 
ATOM     33  C   UNL     1      -1.593   9.858  17.404  0.00  0.00    +0.000 A 
ATOM     34  C   UNL     1      -1.779  10.761  18.460  0.00  0.00    +0.000 A 
ENDBRANCH  27  34
ENDBRANCH  22  27
ENDBRANCH  21  24
ENDBRANCH  20  21
ENDBRANCH  19  20
ENDBRANCH   1  19
TORSDOF 7
ENDMDL
MODEL 6
REMARK VINA RESULT:      -7.6      3.407      8.277
REMARK  Name = 
REMARK  7 active torsions:
REMARK  status: ('A' for Active; 'I' for Inactive)
REMARK    1  A    between atoms: C_7  and  C_8
REMARK    2  A    between atoms: C_8  and  N_9
REMARK    3  A    between atoms: C_11  and  C_12
REMARK    4  A    between atoms: C_12  and  O_13
REMARK    5  A    between atoms: O_13  and  C_14
REMARK    6  A    between atoms: C_14  and  C_15
REMARK    7  A    between atoms: C_16  and  C_17
REMARK                            x       y       z     vdW  Elec       q    Type
REMARK                         _______ _______ _______ _____ _____    ______ ____
ROOT
ATOM      1  C   UNL     1      -2.688  11.983  19.940  0.00  0.00    +0.000 A 
ATOM      2  C   UNL     1      -3.678  12.647  20.701  0.00  0.00    +0.000 A 
ATOM      3  N   UNL     1      -4.885  12.678  20.036  0.00  0.00    +0.000 NA
ATOM      4  C   UNL     1      -4.612  12.180  18.877  0.00  0.00    +0.000 A 
ATOM      5  S   UNL     1      -5.527  12.208  17.414  0.00  0.00    +0.000 S 
ATOM      6  C   UNL     1      -4.203  11.290  16.658  0.00  0.00    +0.000 A 
ATOM      7  C   UNL     1      -4.183  10.886  15.334  0.00  0.00    +0.000 A 
ATOM      8  C   UNL     1      -3.156  10.045  14.921  0.00  0.00    +0.000 A 
ATOM      9  C   UNL     1      -2.184   9.614  15.839  0.00  0.00    +0.000 A 
ATOM     10  C   UNL     1      -2.169  10.082  17.164  0.00  0.00    +0.000 A 
ATOM     11  C   UNL     1      -3.160  10.964  17.551  0.00  0.00    +0.000 A 
ATOM     12  N   UNL     1      -3.373  11.606  18.785  0.00  0.00    +0.000 N 
ENDROOT
BRANCH   2  13
ATOM     13  C   UNL     1      -3.569  13.467  21.918  0.00  0.00    +0.000 A 
ATOM     14  C   UNL     1      -3.768  12.799  23.149  0.00  0.00    +0.000 A 
ATOM     15  C   UNL     1      -3.783  13.484  24.366  0.00  0.00    +0.000 A 
ATOM     16  C   UNL     1      -3.590  14.857  24.382  0.00  0.00    +0.000 A 
ATOM     17  C   UNL     1      -3.346  15.530  23.185  0.00  0.00    +0.000 A 
ATOM     18  C   UNL     1      -3.321  14.840  21.960  0.00  0.00    +0.000 A 
ENDBRANCH   2  13
BRANCH   1  19
ATOM     19  C   UNL     1      -1.222  11.947  20.217  0.00  0.00    +0.000 C 
BRANCH  19  20
ATOM     20  O   UNL     1      -0.761  10.667  20.613  0.00  0.00    +0.000 OA
BRANCH  20  21
ATOM     21  C   UNL     1       0.681  10.601  20.681  0.00  0.00    +0.000 C 
BRANCH  21  24
ATOM     22  N   UNL     1       1.856   7.191  20.219  0.00  0.00    +0.000 N 
ATOM     23  C   UNL     1       1.431   8.143  21.103  0.00  0.00    +0.000 A 
ATOM     24  C   UNL     1       1.263   9.273  20.325  0.00  0.00    +0.000 A 
ATOM     25  N   UNL     1       1.650   8.987  19.041  0.00  0.00    +0.000 NA
ATOM     26  N   UNL     1       2.006   7.710  18.987  0.00  0.00    +0.000 NA
BRANCH  22  27
ATOM     27  C   UNL     1       1.912   5.754  20.420  0.00  0.00    +0.000 C 
BRANCH  27  34
ATOM     28  F   UNL     1       4.681   5.689  19.889  0.00  0.00    +0.000 F 
ATOM     29  C   UNL     1       3.883   5.030  19.037  0.00  0.00    +0.000 A 
ATOM     30  C   UNL     1       4.455   4.350  17.966  0.00  0.00    +0.000 A 
ATOM     31  C   UNL     1       3.638   3.653  17.077  0.00  0.00    +0.000 A 
ATOM     32  C   UNL     1       2.256   3.645  17.265  0.00  0.00    +0.000 A 
ATOM     33  C   UNL     1       1.688   4.331  18.342  0.00  0.00    +0.000 A 
ATOM     34  C   UNL     1       2.501   5.029  19.246  0.00  0.00    +0.000 A 
ENDBRANCH  27  34
ENDBRANCH  22  27
ENDBRANCH  21  24
ENDBRANCH  20  21
ENDBRANCH  19  20
ENDBRANCH   1  19
TORSDOF 7
ENDMDL
MODEL 7
REMARK VINA RESULT:      -7.6      3.405      8.116
REMARK  Name = 
REMARK  7 active torsions:
REMARK  status: ('A' for Active; 'I' for Inactive)
REMARK    1  A    between atoms: C_7  and  C_8
REMARK    2  A    between atoms: C_8  and  N_9
REMARK    3  A    between atoms: C_11  and  C_12
REMARK    4  A    between atoms: C_12  and  O_13
REMARK    5  A    between atoms: O_13  and  C_14
REMARK    6  A    between atoms: C_14  and  C_15
REMARK    7  A    between atoms: C_16  and  C_17
REMARK                            x       y       z     vdW  Elec       q    Type
REMARK                         _______ _______ _______ _____ _____    ______ ____
ROOT
ATOM      1  C   UNL     1      -2.657  12.028  20.070  0.00  0.00    +0.000 A 
ATOM      2  C   UNL     1      -3.645  12.702  20.823  0.00  0.00    +0.000 A 
ATOM      3  N   UNL     1      -4.849  12.737  20.154  0.00  0.00    +0.000 NA
ATOM      4  C   UNL     1      -4.576  12.229  18.999  0.00  0.00    +0.000 A 
ATOM      5  S   UNL     1      -5.485  12.252  17.532  0.00  0.00    +0.000 S 
ATOM      6  C   UNL     1      -4.164  11.321  16.788  0.00  0.00    +0.000 A 
ATOM      7  C   UNL     1      -4.142  10.908  15.467  0.00  0.00    +0.000 A 
ATOM      8  C   UNL     1      -3.119  10.058  15.063  0.00  0.00    +0.000 A 
ATOM      9  C   UNL     1      -2.153   9.627  15.987  0.00  0.00    +0.000 A 
ATOM     10  C   UNL     1      -2.139  10.104  17.310  0.00  0.00    +0.000 A 
ATOM     11  C   UNL     1      -3.126  10.995  17.686  0.00  0.00    +0.000 A 
ATOM     12  N   UNL     1      -3.339  11.647  18.916  0.00  0.00    +0.000 N 
ENDROOT
BRANCH   2  13
ATOM     13  C   UNL     1      -3.535  13.531  22.035  0.00  0.00    +0.000 A 
ATOM     14  C   UNL     1      -3.803  12.886  23.265  0.00  0.00    +0.000 A 
ATOM     15  C   UNL     1      -3.823  13.585  24.475  0.00  0.00    +0.000 A 
ATOM     16  C   UNL     1      -3.567  14.948  24.483  0.00  0.00    +0.000 A 
ATOM     17  C   UNL     1      -3.256  15.595  23.288  0.00  0.00    +0.000 A 
ATOM     18  C   UNL     1      -3.226  14.891  22.071  0.00  0.00    +0.000 A 
ENDBRANCH   2  13
BRANCH   1  19
ATOM     19  C   UNL     1      -1.192  11.985  20.353  0.00  0.00    +0.000 C 
BRANCH  19  20
ATOM     20  O   UNL     1      -0.817  10.903  21.189  0.00  0.00    +0.000 OA
BRANCH  20  21
ATOM     21  C   UNL     1       0.616  10.715  21.231  0.00  0.00    +0.000 C 
BRANCH  21  24
ATOM     22  N   UNL     1       1.953   8.130  19.052  0.00  0.00    +0.000 N 
ATOM     23  C   UNL     1       1.377   9.368  19.137  0.00  0.00    +0.000 A 
ATOM     24  C   UNL     1       1.110   9.521  20.484  0.00  0.00    +0.000 A 
ATOM     25  N   UNL     1       1.463   8.369  21.139  0.00  0.00    +0.000 NA
ATOM     26  N   UNL     1       1.982   7.528  20.253  0.00  0.00    +0.000 NA
BRANCH  22  27
ATOM     27  C   UNL     1       2.690   7.570  17.933  0.00  0.00    +0.000 C 
BRANCH  27  34
ATOM     28  F   UNL     1       5.118   6.194  18.345  0.00  0.00    +0.000 F 
ATOM     29  C   UNL     1       4.013   5.449  18.202  0.00  0.00    +0.000 A 
ATOM     30  C   UNL     1       4.121   4.063  18.280  0.00  0.00    +0.000 A 
ATOM     31  C   UNL     1       2.979   3.276  18.143  0.00  0.00    +0.000 A 
ATOM     32  C   UNL     1       1.741   3.880  17.926  0.00  0.00    +0.000 A 
ATOM     33  C   UNL     1       1.640   5.271  17.849  0.00  0.00    +0.000 A 
ATOM     34  C   UNL     1       2.781   6.073  17.993  0.00  0.00    +0.000 A 
ENDBRANCH  27  34
ENDBRANCH  22  27
ENDBRANCH  21  24
ENDBRANCH  20  21
ENDBRANCH  19  20
ENDBRANCH   1  19
TORSDOF 7
ENDMDL
MODEL 8
REMARK VINA RESULT:      -7.6      2.622      5.750
REMARK  Name = 
REMARK  7 active torsions:
REMARK  status: ('A' for Active; 'I' for Inactive)
REMARK    1  A    between atoms: C_7  and  C_8
REMARK    2  A    between atoms: C_8  and  N_9
REMARK    3  A    between atoms: C_11  and  C_12
REMARK    4  A    between atoms: C_12  and  O_13
REMARK    5  A    between atoms: O_13  and  C_14
REMARK    6  A    between atoms: C_14  and  C_15
REMARK    7  A    between atoms: C_16  and  C_17
REMARK                            x       y       z     vdW  Elec       q    Type
REMARK                         _______ _______ _______ _____ _____    ______ ____
ROOT
ATOM      1  C   UNL     1       0.714   9.558  19.576  0.00  0.00    +0.000 A 
ATOM      2  C   UNL     1       1.274   8.325  19.982  0.00  0.00    +0.000 A 
ATOM      3  N   UNL     1       0.926   8.019  21.280  0.00  0.00    +0.000 NA
ATOM      4  C   UNL     1       0.298   9.070  21.688  0.00  0.00    +0.000 A 
ATOM      5  S   UNL     1      -0.134   9.555  23.287  0.00  0.00    +0.000 S 
ATOM      6  C   UNL     1      -0.866  11.008  22.567  0.00  0.00    +0.000 A 
ATOM      7  C   UNL     1      -1.488  12.014  23.287  0.00  0.00    +0.000 A 
ATOM      8  C   UNL     1      -2.148  13.012  22.582  0.00  0.00    +0.000 A 
ATOM      9  C   UNL     1      -2.189  12.977  21.178  0.00  0.00    +0.000 A 
ATOM     10  C   UNL     1      -1.498  11.993  20.449  0.00  0.00    +0.000 A 
ATOM     11  C   UNL     1      -0.795  11.038  21.158  0.00  0.00    +0.000 A 
ATOM     12  N   UNL     1      -0.003   9.969  20.699  0.00  0.00    +0.000 N 
ENDROOT
BRANCH   2  13
ATOM     13  C   UNL     1       2.304   7.481  19.354  0.00  0.00    +0.000 A 
ATOM     14  C   UNL     1       2.848   7.952  18.137  0.00  0.00    +0.000 A 
ATOM     15  C   UNL     1       3.763   7.198  17.397  0.00  0.00    +0.000 A 
ATOM     16  C   UNL     1       4.162   5.955  17.864  0.00  0.00    +0.000 A 
ATOM     17  C   UNL     1       3.673   5.490  19.085  0.00  0.00    +0.000 A 
ATOM     18  C   UNL     1       2.760   6.253  19.834  0.00  0.00    +0.000 A 
ENDBRANCH   2  13
BRANCH   1  19
ATOM     19  C   UNL     1       1.043  10.326  18.339  0.00  0.00    +0.000 C 
BRANCH  19  20
ATOM     20  O   UNL     1      -0.102  10.835  17.677  0.00  0.00    +0.000 OA
BRANCH  20  21
ATOM     21  C   UNL     1      -1.079   9.806  17.402  0.00  0.00    +0.000 C 
BRANCH  21  24
ATOM     22  N   UNL     1      -4.390  11.232  16.927  0.00  0.00    +0.000 N 
ATOM     23  C   UNL     1      -3.484  10.717  17.812  0.00  0.00    +0.000 A 
ATOM     24  C   UNL     1      -2.428  10.315  17.016  0.00  0.00    +0.000 A 
ATOM     25  N   UNL     1      -2.756  10.534  15.702  0.00  0.00    +0.000 NA
ATOM     26  N   UNL     1      -3.956  11.100  15.661  0.00  0.00    +0.000 NA
BRANCH  22  27
ATOM     27  C   UNL     1      -5.550  12.055  17.221  0.00  0.00    +0.000 C 
BRANCH  27  34
ATOM     28  F   UNL     1      -5.271  13.755  19.455  0.00  0.00    +0.000 F 
ATOM     29  C   UNL     1      -5.980  12.630  19.631  0.00  0.00    +0.000 A 
ATOM     30  C   UNL     1      -6.543  12.377  20.878  0.00  0.00    +0.000 A 
ATOM     31  C   UNL     1      -7.291  11.216  21.073  0.00  0.00    +0.000 A 
ATOM     32  C   UNL     1      -7.467  10.319  20.020  0.00  0.00    +0.000 A 
ATOM     33  C   UNL     1      -6.898  10.580  18.770  0.00  0.00    +0.000 A 
ATOM     34  C   UNL     1      -6.151  11.748  18.561  0.00  0.00    +0.000 A 
ENDBRANCH  27  34
ENDBRANCH  22  27
ENDBRANCH  21  24
ENDBRANCH  20  21
ENDBRANCH  19  20
ENDBRANCH   1  19
TORSDOF 7
ENDMDL
MODEL 9
REMARK VINA RESULT:      -7.6      3.509      9.016
REMARK  Name = 
REMARK  7 active torsions:
REMARK  status: ('A' for Active; 'I' for Inactive)
REMARK    1  A    between atoms: C_7  and  C_8
REMARK    2  A    between atoms: C_8  and  N_9
REMARK    3  A    between atoms: C_11  and  C_12
REMARK    4  A    between atoms: C_12  and  O_13
REMARK    5  A    between atoms: O_13  and  C_14
REMARK    6  A    between atoms: C_14  and  C_15
REMARK    7  A    between atoms: C_16  and  C_17
REMARK                            x       y       z     vdW  Elec       q    Type
REMARK                         _______ _______ _______ _____ _____    ______ ____
ROOT
ATOM      1  C   UNL     1      -2.396  12.107  19.503  0.00  0.00    +0.000 A 
ATOM      2  C   UNL     1      -3.385  11.846  18.527  0.00  0.00    +0.000 A 
ATOM      3  N   UNL     1      -4.643  12.169  18.988  0.00  0.00    +0.000 NA
ATOM      4  C   UNL     1      -4.448  12.484  20.224  0.00  0.00    +0.000 A 
ATOM      5  S   UNL     1      -5.579  12.670  21.515  0.00  0.00    +0.000 S 
ATOM      6  C   UNL     1      -4.198  13.064  22.567  0.00  0.00    +0.000 A 
ATOM      7  C   UNL     1      -4.298  13.362  23.915  0.00  0.00    +0.000 A 
ATOM      8  C   UNL     1      -3.156  13.799  24.575  0.00  0.00    +0.000 A 
ATOM      9  C   UNL     1      -1.947  13.945  23.874  0.00  0.00    +0.000 A 
ATOM     10  C   UNL     1      -1.833  13.574  22.523  0.00  0.00    +0.000 A 
ATOM     11  C   UNL     1      -2.960  13.085  21.890  0.00  0.00    +0.000 A 
ATOM     12  N   UNL     1      -3.130  12.618  20.573  0.00  0.00    +0.000 N 
ENDROOT
BRANCH   2  13
ATOM     13  C   UNL     1      -3.313  11.106  17.257  0.00  0.00    +0.000 A 
ATOM     14  C   UNL     1      -2.393  10.033  17.204  0.00  0.00    +0.000 A 
ATOM     15  C   UNL     1      -2.165   9.315  16.027  0.00  0.00    +0.000 A 
ATOM     16  C   UNL     1      -2.861   9.649  14.874  0.00  0.00    +0.000 A 
ATOM     17  C   UNL     1      -3.806  10.673  14.916  0.00  0.00    +0.000 A 
ATOM     18  C   UNL     1      -4.043  11.390  16.102  0.00  0.00    +0.000 A 
ENDBRANCH   2  13
BRANCH   1  19
ATOM     19  C   UNL     1      -0.966  11.682  19.463  0.00  0.00    +0.000 C 
BRANCH  19  20
ATOM     20  O   UNL     1      -0.742  10.422  20.072  0.00  0.00    +0.000 OA
BRANCH  20  21
ATOM     21  C   UNL     1       0.646  10.221  20.421  0.00  0.00    +0.000 C 
BRANCH  21  24
ATOM     22  N   UNL     1       2.364   7.713  18.427  0.00  0.00    +0.000 N 
ATOM     23  C   UNL     1       1.915   8.076  19.666  0.00  0.00    +0.000 A 
ATOM     24  C   UNL     1       1.406   9.347  19.479  0.00  0.00    +0.000 A 
ATOM     25  N   UNL     1       1.625   9.724  18.179  0.00  0.00    +0.000 NA
ATOM     26  N   UNL     1       2.207   8.715  17.544  0.00  0.00    +0.000 NA
BRANCH  22  27
ATOM     27  C   UNL     1       2.728   6.383  17.969  0.00  0.00    +0.000 C 
BRANCH  27  34
ATOM     28  F   UNL     1       4.557   7.135  15.957  0.00  0.00    +0.000 F 
ATOM     29  C   UNL     1       5.060   6.521  17.038  0.00  0.00    +0.000 A 
ATOM     30  C   UNL     1       6.433   6.308  17.113  0.00  0.00    +0.000 A 
ATOM     31  C   UNL     1       6.971   5.679  18.234  0.00  0.00    +0.000 A 
ATOM     32  C   UNL     1       6.132   5.267  19.269  0.00  0.00    +0.000 A 
ATOM     33  C   UNL     1       4.754   5.484  19.187  0.00  0.00    +0.000 A 
ATOM     34  C   UNL     1       4.203   6.122  18.067  0.00  0.00    +0.000 A 
ENDBRANCH  27  34
ENDBRANCH  22  27
ENDBRANCH  21  24
ENDBRANCH  20  21
ENDBRANCH  19  20
ENDBRANCH   1  19
TORSDOF 7
ENDMDL
