MODEL 1
REMARK VINA RESULT:      -8.0      0.000      0.000
REMARK  Name = 
REMARK  6 active torsions:
REMARK  status: ('A' for Active; 'I' for Inactive)
REMARK    1  A    between atoms: C_1  and  N_2
REMARK    2  A    between atoms: N_2  and  C_3
REMARK    3  A    between atoms: N_2  and  C_12
REMARK    4  A    between atoms: C_3  and  C_4
REMARK    5  A    between atoms: C_4  and  N_5
REMARK    6  A    between atoms: C_12  and  C_13
REMARK                            x       y       z     vdW  Elec       q    Type
REMARK                         _______ _______ _______ _____ _____    ______ ____
ROOT
ATOM      1  C   UNL     1       4.119   6.429  17.885  0.00  0.00    +0.000 A 
ATOM      2  C   UNL     1       3.313   7.395  17.423  0.00  0.00    +0.000 A 
ATOM      3  C   UNL     1       2.354   8.060  18.308  0.00  0.00    +0.000 A 
ATOM      4  C   UNL     1       1.610   9.161  17.881  0.00  0.00    +0.000 A 
ATOM      5  C   UNL     1       0.811   9.778  18.823  0.00  0.00    +0.000 A 
ATOM      6  C   UNL     1       0.664   9.276  20.101  0.00  0.00    +0.000 A 
ATOM      7  C   UNL     1       1.333   8.162  20.537  0.00  0.00    +0.000 A 
ATOM      8  C   UNL     1       2.233   7.592  19.637  0.00  0.00    +0.000 A 
ATOM      9  N   UNL     1       3.103   6.600  20.096  0.00  0.00    +0.000 N 
ATOM     10  C   UNL     1       4.101   6.059  19.335  0.00  0.00    +0.000 A 
ATOM     11  O   UNL     1       4.937   5.315  19.845  0.00  0.00    +0.000 OA
ATOM     12  O   UNL     1      -0.115  10.079  20.878  0.00  0.00    +0.000 OA
ATOM     13  C   UNL     1      -0.113  11.263  20.057  0.00  0.00    +0.000 C 
ATOM     14  O   UNL     1       0.162  10.965  18.671  0.00  0.00    +0.000 OA
ATOM     15  H   UNL     1       3.115   6.343  21.075  0.00  0.00    +0.000 HD
ENDROOT
BRANCH   1  16
ATOM     16  C   UNL     1       5.119   5.700  17.034  0.00  0.00    +0.000 C 
BRANCH  16  18
ATOM     17  C   UNL     1       5.244   4.215  15.115  0.00  0.00    +0.000 C 
ATOM     18  N   UNL     1       4.559   4.490  16.383  0.00  0.00    +0.000 NA
BRANCH  18  19
ATOM     19  C   UNL     1       4.672   3.307  17.267  0.00  0.00    +0.000 C 
BRANCH  19  20
ATOM     20  C   UNL     1       3.364   2.500  17.434  0.00  0.00    +0.000 C 
BRANCH  20  21
ATOM     21  N   UNL     1       2.660   2.789  18.688  0.00  0.00    +0.000 N 
ATOM     22  C   UNL     1       3.347   2.462  19.930  0.00  0.00    +0.000 C 
ATOM     23  C   UNL     1       2.407   2.418  21.121  0.00  0.00    +0.000 C 
ATOM     24  C   UNL     1       1.656   3.734  21.193  0.00  0.00    +0.000 C 
ATOM     25  C   UNL     1       0.831   3.925  19.933  0.00  0.00    +0.000 C 
ATOM     26  C   UNL     1       1.567   3.644  18.636  0.00  0.00    +0.000 C 
ATOM     27  O   UNL     1       1.132   4.100  17.576  0.00  0.00    +0.000 OA
ENDBRANCH  20  21
ENDBRANCH  19  20
ENDBRANCH  18  19
ENDBRANCH  16  18
ENDBRANCH   1  16
TORSDOF 5
ENDMDL
MODEL 2
REMARK VINA RESULT:      -7.8      2.004      5.983
REMARK  Name = 
REMARK  6 active torsions:
REMARK  status: ('A' for Active; 'I' for Inactive)
REMARK    1  A    between atoms: C_1  and  N_2
REMARK    2  A    between atoms: N_2  and  C_3
REMARK    3  A    between atoms: N_2  and  C_12
REMARK    4  A    between atoms: C_3  and  C_4
REMARK    5  A    between atoms: C_4  and  N_5
REMARK    6  A    between atoms: C_12  and  C_13
REMARK                            x       y       z     vdW  Elec       q    Type
REMARK                         _______ _______ _______ _____ _____    ______ ____
ROOT
ATOM      1  C   UNL     1       3.513   3.079  18.895  0.00  0.00    +0.000 A 
ATOM      2  C   UNL     1       4.558   3.700  19.461  0.00  0.00    +0.000 A 
ATOM      3  C   UNL     1       5.458   4.536  18.663  0.00  0.00    +0.000 A 
ATOM      4  C   UNL     1       6.462   5.300  19.257  0.00  0.00    +0.000 A 
ATOM      5  C   UNL     1       7.188   6.132  18.428  0.00  0.00    +0.000 A 
ATOM      6  C   UNL     1       7.011   6.137  17.059  0.00  0.00    +0.000 A 
ATOM      7  C   UNL     1       6.074   5.355  16.434  0.00  0.00    +0.000 A 
ATOM      8  C   UNL     1       5.252   4.595  17.265  0.00  0.00    +0.000 A 
ATOM      9  N   UNL     1       4.142   3.956  16.708  0.00  0.00    +0.000 N 
ATOM     10  C   UNL     1       3.206   3.285  17.445  0.00  0.00    +0.000 A 
ATOM     11  O   UNL     1       2.167   2.890  16.919  0.00  0.00    +0.000 OA
ATOM     12  O   UNL     1       7.782   7.079  16.449  0.00  0.00    +0.000 OA
ATOM     13  C   UNL     1       8.151   7.856  17.604  0.00  0.00    +0.000 C 
ATOM     14  O   UNL     1       8.070   7.090  18.826  0.00  0.00    +0.000 OA
ATOM     15  H   UNL     1       3.911   4.092  15.732  0.00  0.00    +0.000 HD
ENDROOT
BRANCH   1  16
ATOM     16  C   UNL     1       2.556   2.202  19.650  0.00  0.00    +0.000 C 
BRANCH  16  18
ATOM     17  C   UNL     1       2.152   3.168  21.842  0.00  0.00    +0.000 C 
ATOM     18  N   UNL     1       1.606   2.968  20.495  0.00  0.00    +0.000 NA
BRANCH  18  19
ATOM     19  C   UNL     1       1.295   4.284  19.892  0.00  0.00    +0.000 C 
BRANCH  19  20
ATOM     20  C   UNL     1       1.822   5.499  20.691  0.00  0.00    +0.000 C 
BRANCH  20  21
ATOM     21  N   UNL     1       1.976   6.707  19.874  0.00  0.00    +0.000 N 
ATOM     22  C   UNL     1       2.346   6.527  18.477  0.00  0.00    +0.000 C 
ATOM     23  C   UNL     1       2.864   7.804  17.842  0.00  0.00    +0.000 C 
ATOM     24  C   UNL     1       1.829   8.896  18.039  0.00  0.00    +0.000 C 
ATOM     25  C   UNL     1       1.620   9.144  19.522  0.00  0.00    +0.000 C 
ATOM     26  C   UNL     1       1.442   7.893  20.363  0.00  0.00    +0.000 C 
ATOM     27  O   UNL     1       0.919   7.974  21.476  0.00  0.00    +0.000 OA
ENDBRANCH  20  21
ENDBRANCH  19  20
ENDBRANCH  18  19
ENDBRANCH  16  18
ENDBRANCH   1  16
TORSDOF 5
ENDMDL
MODEL 3
REMARK VINA RESULT:      -7.8      0.933      1.380
REMARK  Name = 
REMARK  6 active torsions:
REMARK  status: ('A' for Active; 'I' for Inactive)
REMARK    1  A    between atoms: C_1  and  N_2
REMARK    2  A    between atoms: N_2  and  C_3
REMARK    3  A    between atoms: N_2  and  C_12
REMARK    4  A    between atoms: C_3  and  C_4
REMARK    5  A    between atoms: C_4  and  N_5
REMARK    6  A    between atoms: C_12  and  C_13
REMARK                            x       y       z     vdW  Elec       q    Type
REMARK                         _______ _______ _______ _____ _____    ______ ____
ROOT
ATOM      1  C   UNL     1       4.101   6.447  17.928  0.00  0.00    +0.000 A 
ATOM      2  C   UNL     1       3.301   7.426  17.483  0.00  0.00    +0.000 A 
ATOM      3  C   UNL     1       2.334   8.071  18.374  0.00  0.00    +0.000 A 
ATOM      4  C   UNL     1       1.596   9.183  17.968  0.00  0.00    +0.000 A 
ATOM      5  C   UNL     1       0.788   9.777  18.917  0.00  0.00    +0.000 A 
ATOM      6  C   UNL     1       0.627   9.243  20.180  0.00  0.00    +0.000 A 
ATOM      7  C   UNL     1       1.291   8.116  20.594  0.00  0.00    +0.000 A 
ATOM      8  C   UNL     1       2.199   7.569  19.690  0.00  0.00    +0.000 A 
ATOM      9  N   UNL     1       3.063   6.564  20.132  0.00  0.00    +0.000 N 
ATOM     10  C   UNL     1       4.068   6.040  19.368  0.00  0.00    +0.000 A 
ATOM     11  O   UNL     1       4.898   5.282  19.867  0.00  0.00    +0.000 OA
ATOM     12  O   UNL     1      -0.159  10.027  20.969  0.00  0.00    +0.000 OA
ATOM     13  C   UNL     1      -0.146  11.231  20.179  0.00  0.00    +0.000 C 
ATOM     14  O   UNL     1       0.142  10.969  18.788  0.00  0.00    +0.000 OA
ATOM     15  H   UNL     1       3.064   6.282  21.104  0.00  0.00    +0.000 HD
ENDROOT
BRANCH   1  16
ATOM     16  C   UNL     1       5.109   5.739  17.068  0.00  0.00    +0.000 C 
BRANCH  16  18
ATOM     17  C   UNL     1       5.168   4.280  15.127  0.00  0.00    +0.000 C 
ATOM     18  N   UNL     1       4.580   4.497  16.453  0.00  0.00    +0.000 NA
BRANCH  18  19
ATOM     19  C   UNL     1       4.853   3.318  17.308  0.00  0.00    +0.000 C 
BRANCH  19  20
ATOM     20  C   UNL     1       3.626   2.415  17.571  0.00  0.00    +0.000 C 
BRANCH  20  21
ATOM     21  N   UNL     1       2.919   2.745  18.813  0.00  0.00    +0.000 N 
ATOM     22  C   UNL     1       1.508   3.087  18.707  0.00  0.00    +0.000 C 
ATOM     23  C   UNL     1       0.983   3.787  19.948  0.00  0.00    +0.000 C 
ATOM     24  C   UNL     1       1.290   2.924  21.157  0.00  0.00    +0.000 C 
ATOM     25  C   UNL     1       2.791   2.750  21.297  0.00  0.00    +0.000 C 
ATOM     26  C   UNL     1       3.519   2.390  20.015  0.00  0.00    +0.000 C 
ATOM     27  O   UNL     1       4.640   1.883  20.071  0.00  0.00    +0.000 OA
ENDBRANCH  20  21
ENDBRANCH  19  20
ENDBRANCH  18  19
ENDBRANCH  16  18
ENDBRANCH   1  16
TORSDOF 5
ENDMDL
MODEL 4
REMARK VINA RESULT:      -7.7      2.064      3.721
REMARK  Name = 
REMARK  6 active torsions:
REMARK  status: ('A' for Active; 'I' for Inactive)
REMARK    1  A    between atoms: C_1  and  N_2
REMARK    2  A    between atoms: N_2  and  C_3
REMARK    3  A    between atoms: N_2  and  C_12
REMARK    4  A    between atoms: C_3  and  C_4
REMARK    5  A    between atoms: C_4  and  N_5
REMARK    6  A    between atoms: C_12  and  C_13
REMARK                            x       y       z     vdW  Elec       q    Type
REMARK                         _______ _______ _______ _____ _____    ______ ____
ROOT
ATOM      1  C   UNL     1       2.350   5.662  18.908  0.00  0.00    +0.000 A 
ATOM      2  C   UNL     1       2.336   6.741  18.112  0.00  0.00    +0.000 A 
ATOM      3  C   UNL     1       1.959   8.056  18.635  0.00  0.00    +0.000 A 
ATOM      4  C   UNL     1       2.077   9.210  17.860  0.00  0.00    +0.000 A 
ATOM      5  C   UNL     1       1.792  10.411  18.481  0.00  0.00    +0.000 A 
ATOM      6  C   UNL     1       1.312  10.472  19.774  0.00  0.00    +0.000 A 
ATOM      7  C   UNL     1       1.128   9.353  20.545  0.00  0.00    +0.000 A 
ATOM      8  C   UNL     1       1.519   8.142  19.977  0.00  0.00    +0.000 A 
ATOM      9  N   UNL     1       1.566   7.005  20.787  0.00  0.00    +0.000 N 
ATOM     10  C   UNL     1       2.045   5.796  20.367  0.00  0.00    +0.000 A 
ATOM     11  O   UNL     1       2.217   4.882  21.172  0.00  0.00    +0.000 OA
ATOM     12  O   UNL     1       1.167  11.756  20.203  0.00  0.00    +0.000 OA
ATOM     13  C   UNL     1       1.937  12.426  19.187  0.00  0.00    +0.000 C 
ATOM     14  O   UNL     1       2.027  11.652  17.971  0.00  0.00    +0.000 OA
ATOM     15  H   UNL     1       1.374   7.076  21.779  0.00  0.00    +0.000 HD
ENDROOT
BRANCH   1  16
ATOM     16  C   UNL     1       2.718   4.284  18.437  0.00  0.00    +0.000 C 
BRANCH  16  18
ATOM     17  C   UNL     1       4.671   3.256  19.451  0.00  0.00    +0.000 C 
ATOM     18  N   UNL     1       4.183   4.075  18.335  0.00  0.00    +0.000 NA
BRANCH  18  19
ATOM     19  C   UNL     1       4.542   3.422  17.055  0.00  0.00    +0.000 C 
BRANCH  19  20
ATOM     20  C   UNL     1       5.681   4.119  16.275  0.00  0.00    +0.000 C 
BRANCH  20  21
ATOM     21  N   UNL     1       6.325   5.199  17.029  0.00  0.00    +0.000 N 
ATOM     22  C   UNL     1       7.469   4.844  17.858  0.00  0.00    +0.000 C 
ATOM     23  C   UNL     1       7.800   5.914  18.882  0.00  0.00    +0.000 C 
ATOM     24  C   UNL     1       7.986   7.234  18.159  0.00  0.00    +0.000 C 
ATOM     25  C   UNL     1       6.697   7.621  17.456  0.00  0.00    +0.000 C 
ATOM     26  C   UNL     1       6.042   6.507  16.660  0.00  0.00    +0.000 C 
ATOM     27  O   UNL     1       5.223   6.785  15.782  0.00  0.00    +0.000 OA
ENDBRANCH  20  21
ENDBRANCH  19  20
ENDBRANCH  18  19
ENDBRANCH  16  18
ENDBRANCH   1  16
TORSDOF 5
ENDMDL
MODEL 5
REMARK VINA RESULT:      -7.5      2.255      6.351
REMARK  Name = 
REMARK  6 active torsions:
REMARK  status: ('A' for Active; 'I' for Inactive)
REMARK    1  A    between atoms: C_1  and  N_2
REMARK    2  A    between atoms: N_2  and  C_3
REMARK    3  A    between atoms: N_2  and  C_12
REMARK    4  A    between atoms: C_3  and  C_4
REMARK    5  A    between atoms: C_4  and  N_5
REMARK    6  A    between atoms: C_12  and  C_13
REMARK                            x       y       z     vdW  Elec       q    Type
REMARK                         _______ _______ _______ _____ _____    ______ ____
ROOT
ATOM      1  C   UNL     1       3.584   2.732  18.850  0.00  0.00    +0.000 A 
ATOM      2  C   UNL     1       3.490   3.084  17.560  0.00  0.00    +0.000 A 
ATOM      3  C   UNL     1       4.593   3.773  16.886  0.00  0.00    +0.000 A 
ATOM      4  C   UNL     1       4.570   4.018  15.513  0.00  0.00    +0.000 A 
ATOM      5  C   UNL     1       5.703   4.583  14.960  0.00  0.00    +0.000 A 
ATOM      6  C   UNL     1       6.772   4.987  15.734  0.00  0.00    +0.000 A 
ATOM      7  C   UNL     1       6.804   4.817  17.095  0.00  0.00    +0.000 A 
ATOM      8  C   UNL     1       5.720   4.144  17.657  0.00  0.00    +0.000 A 
ATOM      9  N   UNL     1       5.798   3.744  18.992  0.00  0.00    +0.000 N 
ATOM     10  C   UNL     1       4.849   2.979  19.610  0.00  0.00    +0.000 A 
ATOM     11  O   UNL     1       5.054   2.519  20.732  0.00  0.00    +0.000 OA
ATOM     12  O   UNL     1       7.804   5.452  14.976  0.00  0.00    +0.000 OA
ATOM     13  C   UNL     1       7.386   4.952  13.691  0.00  0.00    +0.000 C 
ATOM     14  O   UNL     1       5.961   4.724  13.631  0.00  0.00    +0.000 OA
ATOM     15  H   UNL     1       6.649   3.891  19.521  0.00  0.00    +0.000 HD
ENDROOT
BRANCH   1  16
ATOM     16  C   UNL     1       2.490   2.031  19.604  0.00  0.00    +0.000 C 
BRANCH  16  18
ATOM     17  C   UNL     1       2.002   3.168  21.694  0.00  0.00    +0.000 C 
ATOM     18  N   UNL     1       1.575   2.964  20.306  0.00  0.00    +0.000 NA
BRANCH  18  19
ATOM     19  C   UNL     1       1.513   4.273  19.615  0.00  0.00    +0.000 C 
BRANCH  19  20
ATOM     20  C   UNL     1       2.030   5.467  20.451  0.00  0.00    +0.000 C 
BRANCH  20  21
ATOM     21  N   UNL     1       2.153   6.707  19.677  0.00  0.00    +0.000 N 
ATOM     22  C   UNL     1       2.546   6.585  18.280  0.00  0.00    +0.000 C 
ATOM     23  C   UNL     1       3.029   7.899  17.695  0.00  0.00    +0.000 C 
ATOM     24  C   UNL     1       1.956   8.949  17.914  0.00  0.00    +0.000 C 
ATOM     25  C   UNL     1       1.720   9.140  19.401  0.00  0.00    +0.000 C 
ATOM     26  C   UNL     1       1.574   7.856  20.198  0.00  0.00    +0.000 C 
ATOM     27  O   UNL     1       1.035   7.883  21.305  0.00  0.00    +0.000 OA
ENDBRANCH  20  21
ENDBRANCH  19  20
ENDBRANCH  18  19
ENDBRANCH  16  18
ENDBRANCH   1  16
TORSDOF 5
ENDMDL
MODEL 6
REMARK VINA RESULT:      -7.3      2.577      6.782
REMARK  Name = 
REMARK  6 active torsions:
REMARK  status: ('A' for Active; 'I' for Inactive)
REMARK    1  A    between atoms: C_1  and  N_2
REMARK    2  A    between atoms: N_2  and  C_3
REMARK    3  A    between atoms: N_2  and  C_12
REMARK    4  A    between atoms: C_3  and  C_4
REMARK    5  A    between atoms: C_4  and  N_5
REMARK    6  A    between atoms: C_12  and  C_13
REMARK                            x       y       z     vdW  Elec       q    Type
REMARK                         _______ _______ _______ _____ _____    ______ ____
ROOT
ATOM      1  C   UNL     1       4.889   4.444  18.463  0.00  0.00    +0.000 A 
ATOM      2  C   UNL     1       4.460   4.099  17.241  0.00  0.00    +0.000 A 
ATOM      3  C   UNL     1       5.281   4.356  16.055  0.00  0.00    +0.000 A 
ATOM      4  C   UNL     1       4.916   3.877  14.797  0.00  0.00    +0.000 A 
ATOM      5  C   UNL     1       5.810   4.086  13.765  0.00  0.00    +0.000 A 
ATOM      6  C   UNL     1       6.964   4.824  13.934  0.00  0.00    +0.000 A 
ATOM      7  C   UNL     1       7.325   5.361  15.143  0.00  0.00    +0.000 A 
ATOM      8  C   UNL     1       6.495   5.063  16.223  0.00  0.00    +0.000 A 
ATOM      9  N   UNL     1       6.926   5.389  17.511  0.00  0.00    +0.000 N 
ATOM     10  C   UNL     1       6.250   5.039  18.646  0.00  0.00    +0.000 A 
ATOM     11  O   UNL     1       6.762   5.206  19.751  0.00  0.00    +0.000 OA
ATOM     12  O   UNL     1       7.727   4.844  12.806  0.00  0.00    +0.000 OA
ATOM     13  C   UNL     1       7.098   3.766  12.087  0.00  0.00    +0.000 C 
ATOM     14  O   UNL     1       5.739   3.539  12.520  0.00  0.00    +0.000 OA
ATOM     15  H   UNL     1       7.848   5.781  17.657  0.00  0.00    +0.000 HD
ENDROOT
BRANCH   1  16
ATOM     16  C   UNL     1       4.097   4.218  19.718  0.00  0.00    +0.000 C 
BRANCH  16  18
ATOM     17  C   UNL     1       2.413   2.516  20.133  0.00  0.00    +0.000 C 
ATOM     18  N   UNL     1       2.701   3.786  19.457  0.00  0.00    +0.000 NA
BRANCH  18  19
ATOM     19  C   UNL     1       1.731   4.811  19.908  0.00  0.00    +0.000 C 
BRANCH  19  20
ATOM     20  C   UNL     1       2.371   6.073  20.531  0.00  0.00    +0.000 C 
BRANCH  20  21
ATOM     21  N   UNL     1       2.121   7.293  19.756  0.00  0.00    +0.000 N 
ATOM     22  C   UNL     1       2.327   7.222  18.316  0.00  0.00    +0.000 C 
ATOM     23  C   UNL     1       2.437   8.593  17.675  0.00  0.00    +0.000 C 
ATOM     24  C   UNL     1       1.212   9.404  18.055  0.00  0.00    +0.000 C 
ATOM     25  C   UNL     1       1.157   9.577  19.562  0.00  0.00    +0.000 C 
ATOM     26  C   UNL     1       1.397   8.310  20.363  0.00  0.00    +0.000 C 
ATOM     27  O   UNL     1       1.028   8.251  21.537  0.00  0.00    +0.000 OA
ENDBRANCH  20  21
ENDBRANCH  19  20
ENDBRANCH  18  19
ENDBRANCH  16  18
ENDBRANCH   1  16
TORSDOF 5
ENDMDL
MODEL 7
REMARK VINA RESULT:      -7.2      2.112      4.653
REMARK  Name = 
REMARK  6 active torsions:
REMARK  status: ('A' for Active; 'I' for Inactive)
REMARK    1  A    between atoms: C_1  and  N_2
REMARK    2  A    between atoms: N_2  and  C_3
REMARK    3  A    between atoms: N_2  and  C_12
REMARK    4  A    between atoms: C_3  and  C_4
REMARK    5  A    between atoms: C_4  and  N_5
REMARK    6  A    between atoms: C_12  and  C_13
REMARK                            x       y       z     vdW  Elec       q    Type
REMARK                         _______ _______ _______ _____ _____    ______ ____
ROOT
ATOM      1  C   UNL     1       2.172   7.697  19.187  0.00  0.00    +0.000 A 
ATOM      2  C   UNL     1       1.705   7.786  20.440  0.00  0.00    +0.000 A 
ATOM      3  C   UNL     1       1.063   9.013  20.918  0.00  0.00    +0.000 A 
ATOM      4  C   UNL     1       0.446   9.074  22.167  0.00  0.00    +0.000 A 
ATOM      5  C   UNL     1      -0.219  10.244  22.480  0.00  0.00    +0.000 A 
ATOM      6  C   UNL     1      -0.192  11.346  21.649  0.00  0.00    +0.000 A 
ATOM      7  C   UNL     1       0.455  11.341  20.439  0.00  0.00    +0.000 A 
ATOM      8  C   UNL     1       1.033  10.133  20.055  0.00  0.00    +0.000 A 
ATOM      9  N   UNL     1       1.507  10.002  18.747  0.00  0.00    +0.000 N 
ATOM     10  C   UNL     1       1.983   8.831  18.228  0.00  0.00    +0.000 A 
ATOM     11  O   UNL     1       2.227   8.737  17.027  0.00  0.00    +0.000 OA
ATOM     12  O   UNL     1      -0.968  12.360  22.121  0.00  0.00    +0.000 OA
ATOM     13  C   UNL     1      -1.725  11.628  23.104  0.00  0.00    +0.000 C 
ATOM     14  O   UNL     1      -1.038  10.439  23.550  0.00  0.00    +0.000 OA
ATOM     15  H   UNL     1       1.379  10.753  18.080  0.00  0.00    +0.000 HD
ENDROOT
BRANCH   1  16
ATOM     16  C   UNL     1       2.847   6.475  18.634  0.00  0.00    +0.000 C 
BRANCH  16  18
ATOM     17  C   UNL     1       2.597   4.415  19.898  0.00  0.00    +0.000 C 
ATOM     18  N   UNL     1       3.429   5.605  19.685  0.00  0.00    +0.000 NA
BRANCH  18  19
ATOM     19  C   UNL     1       4.804   5.182  19.330  0.00  0.00    +0.000 C 
BRANCH  19  20
ATOM     20  C   UNL     1       5.475   6.035  18.228  0.00  0.00    +0.000 C 
BRANCH  20  21
ATOM     21  N   UNL     1       5.824   5.265  17.030  0.00  0.00    +0.000 N 
ATOM     22  C   UNL     1       4.849   4.295  16.552  0.00  0.00    +0.000 C 
ATOM     23  C   UNL     1       5.450   3.293  15.585  0.00  0.00    +0.000 C 
ATOM     24  C   UNL     1       6.125   4.052  14.458  0.00  0.00    +0.000 C 
ATOM     25  C   UNL     1       7.241   4.915  15.017  0.00  0.00    +0.000 C 
ATOM     26  C   UNL     1       6.872   5.727  16.245  0.00  0.00    +0.000 C 
ATOM     27  O   UNL     1       7.554   6.705  16.558  0.00  0.00    +0.000 OA
ENDBRANCH  20  21
ENDBRANCH  19  20
ENDBRANCH  18  19
ENDBRANCH  16  18
ENDBRANCH   1  16
TORSDOF 5
ENDMDL
MODEL 8
REMARK VINA RESULT:      -7.2      5.021      7.935
REMARK  Name = 
REMARK  6 active torsions:
REMARK  status: ('A' for Active; 'I' for Inactive)
REMARK    1  A    between atoms: C_1  and  N_2
REMARK    2  A    between atoms: N_2  and  C_3
REMARK    3  A    between atoms: N_2  and  C_12
REMARK    4  A    between atoms: C_3  and  C_4
REMARK    5  A    between atoms: C_4  and  N_5
REMARK    6  A    between atoms: C_12  and  C_13
REMARK                            x       y       z     vdW  Elec       q    Type
REMARK                         _______ _______ _______ _____ _____    ______ ____
ROOT
ATOM      1  C   UNL     1       6.798   5.569  18.592  0.00  0.00    +0.000 A 
ATOM      2  C   UNL     1       5.631   5.709  19.237  0.00  0.00    +0.000 A 
ATOM      3  C   UNL     1       4.469   4.894  18.872  0.00  0.00    +0.000 A 
ATOM      4  C   UNL     1       3.293   4.924  19.622  0.00  0.00    +0.000 A 
ATOM      5  C   UNL     1       2.295   4.043  19.254  0.00  0.00    +0.000 A 
ATOM      6  C   UNL     1       2.401   3.242  18.135  0.00  0.00    +0.000 A 
ATOM      7  C   UNL     1       3.518   3.230  17.340  0.00  0.00    +0.000 A 
ATOM      8  C   UNL     1       4.582   4.027  17.761  0.00  0.00    +0.000 A 
ATOM      9  N   UNL     1       5.817   3.887  17.124  0.00  0.00    +0.000 N 
ATOM     10  C   UNL     1       6.954   4.528  17.529  0.00  0.00    +0.000 A 
ATOM     11  O   UNL     1       8.042   4.236  17.036  0.00  0.00    +0.000 OA
ATOM     12  O   UNL     1       1.333   2.407  18.003  0.00  0.00    +0.000 OA
ATOM     13  C   UNL     1       0.775   2.538  19.325  0.00  0.00    +0.000 C 
ATOM     14  O   UNL     1       1.161   3.776  19.960  0.00  0.00    +0.000 OA
ATOM     15  H   UNL     1       5.947   3.180  16.411  0.00  0.00    +0.000 HD
ENDROOT
BRANCH   1  16
ATOM     16  C   UNL     1       8.025   6.375  18.908  0.00  0.00    +0.000 C 
BRANCH  16  18
ATOM     17  C   UNL     1       6.947   7.849  17.305  0.00  0.00    +0.000 C 
ATOM     18  N   UNL     1       8.193   7.554  18.022  0.00  0.00    +0.000 NA
BRANCH  18  19
ATOM     19  C   UNL     1       8.608   8.748  18.793  0.00  0.00    +0.000 C 
BRANCH  19  20
ATOM     20  C   UNL     1       8.714  10.047  17.962  0.00  0.00    +0.000 C 
BRANCH  20  21
ATOM     21  N   UNL     1       9.217  11.189  18.732  0.00  0.00    +0.000 N 
ATOM     22  C   UNL     1      10.274  10.929  19.699  0.00  0.00    +0.000 C 
ATOM     23  C   UNL     1      10.437  12.056  20.702  0.00  0.00    +0.000 C 
ATOM     24  C   UNL     1      10.641  13.354  19.942  0.00  0.00    +0.000 C 
ATOM     25  C   UNL     1       9.425  13.643  19.082  0.00  0.00    +0.000 C 
ATOM     26  C   UNL     1       8.916  12.465  18.271  0.00  0.00    +0.000 C 
ATOM     27  O   UNL     1       8.191  12.663  17.295  0.00  0.00    +0.000 OA
ENDBRANCH  20  21
ENDBRANCH  19  20
ENDBRANCH  18  19
ENDBRANCH  16  18
ENDBRANCH   1  16
TORSDOF 5
ENDMDL
MODEL 9
REMARK VINA RESULT:      -7.2      2.637      6.906
REMARK  Name = 
REMARK  6 active torsions:
REMARK  status: ('A' for Active; 'I' for Inactive)
REMARK    1  A    between atoms: C_1  and  N_2
REMARK    2  A    between atoms: N_2  and  C_3
REMARK    3  A    between atoms: N_2  and  C_12
REMARK    4  A    between atoms: C_3  and  C_4
REMARK    5  A    between atoms: C_4  and  N_5
REMARK    6  A    between atoms: C_12  and  C_13
REMARK                            x       y       z     vdW  Elec       q    Type
REMARK                         _______ _______ _______ _____ _____    ______ ____
ROOT
ATOM      1  C   UNL     1       4.907   4.141  18.425  0.00  0.00    +0.000 A 
ATOM      2  C   UNL     1       4.528   3.797  17.186  0.00  0.00    +0.000 A 
ATOM      3  C   UNL     1       5.333   4.174  16.022  0.00  0.00    +0.000 A 
ATOM      4  C   UNL     1       5.031   3.704  14.743  0.00  0.00    +0.000 A 
ATOM      5  C   UNL     1       5.912   4.035  13.732  0.00  0.00    +0.000 A 
ATOM      6  C   UNL     1       6.985   4.878  13.942  0.00  0.00    +0.000 A 
ATOM      7  C   UNL     1       7.278   5.406  15.173  0.00  0.00    +0.000 A 
ATOM      8  C   UNL     1       6.469   4.991  16.230  0.00  0.00    +0.000 A 
ATOM      9  N   UNL     1       6.851   5.314  17.534  0.00  0.00    +0.000 N 
ATOM     10  C   UNL     1       6.200   4.860  18.647  0.00  0.00    +0.000 A 
ATOM     11  O   UNL     1       6.681   5.040  19.765  0.00  0.00    +0.000 OA
ATOM     12  O   UNL     1       7.755   5.011  12.826  0.00  0.00    +0.000 OA
ATOM     13  C   UNL     1       7.244   3.901  12.063  0.00  0.00    +0.000 C 
ATOM     14  O   UNL     1       5.910   3.527  12.469  0.00  0.00    +0.000 OA
ATOM     15  H   UNL     1       7.727   5.790  17.706  0.00  0.00    +0.000 HD
ENDROOT
BRANCH   1  16
ATOM     16  C   UNL     1       4.127   3.795  19.661  0.00  0.00    +0.000 C 
BRANCH  16  18
ATOM     17  C   UNL     1       1.960   3.867  20.756  0.00  0.00    +0.000 C 
ATOM     18  N   UNL     1       2.812   4.480  19.732  0.00  0.00    +0.000 NA
BRANCH  18  19
ATOM     19  C   UNL     1       2.976   5.922  20.029  0.00  0.00    +0.000 C 
BRANCH  19  20
ATOM     20  C   UNL     1       2.591   6.867  18.868  0.00  0.00    +0.000 C 
BRANCH  20  21
ATOM     21  N   UNL     1       1.807   8.028  19.300  0.00  0.00    +0.000 N 
ATOM     22  C   UNL     1       1.488   8.127  20.718  0.00  0.00    +0.000 C 
ATOM     23  C   UNL     1       0.365   9.110  20.995  0.00  0.00    +0.000 C 
ATOM     24  C   UNL     1       0.730  10.448  20.379  0.00  0.00    +0.000 C 
ATOM     25  C   UNL     1       0.882  10.297  18.876  0.00  0.00    +0.000 C 
ATOM     26  C   UNL     1       1.710   9.106  18.431  0.00  0.00    +0.000 C 
ATOM     27  O   UNL     1       2.193   9.088  17.297  0.00  0.00    +0.000 OA
ENDBRANCH  20  21
ENDBRANCH  19  20
ENDBRANCH  18  19
ENDBRANCH  16  18
ENDBRANCH   1  16
TORSDOF 5
ENDMDL
