MODEL 1
REMARK VINA RESULT:      -7.0      0.000      0.000
REMARK  Name = 
REMARK  3 active torsions:
REMARK  status: ('A' for Active; 'I' for Inactive)
REMARK    1  A    between atoms: C_2  and  C_3
REMARK    2  A    between atoms: C_4  and  S_5
REMARK    3  A    between atoms: S_5  and  C_6
REMARK                            x       y       z     vdW  Elec       q    Type
REMARK                         _______ _______ _______ _____ _____    ______ ____
ROOT
ATOM      1  C   UNL     1       4.496   5.592  17.254  0.00  0.00    +0.000 A 
ATOM      2  C   UNL     1       5.211   4.451  17.156  0.00  0.00    +0.000 A 
ATOM      3  N   UNL     1       4.715   3.225  17.557  0.00  0.00    +0.000 NA
ATOM      4  C   UNL     1       3.544   3.160  18.100  0.00  0.00    +0.000 A 
ATOM      5  C   UNL     1       3.053   1.845  18.597  0.00  0.00    +0.000 A 
ATOM      6  C   UNL     1       1.846   1.757  19.169  0.00  0.00    +0.000 A 
ATOM      7  C   UNL     1       1.016   2.924  19.298  0.00  0.00    +0.000 A 
ATOM      8  C   UNL     1       1.455   4.106  18.847  0.00  0.00    +0.000 A 
ATOM      9  N   UNL     1       2.705   4.245  18.252  0.00  0.00    +0.000 N 
ATOM     10  C   UNL     1       3.113   5.482  17.789  0.00  0.00    +0.000 A 
ATOM     11  O   UNL     1       2.397   6.487  17.817  0.00  0.00    +0.000 OA
ENDROOT
BRANCH   1  13
ATOM     12  O   UNL     1       5.210   7.370  15.767  0.00  0.00    +0.000 OA
ATOM     13  C   UNL     1       4.957   6.965  16.894  0.00  0.00    +0.000 C 
ENDBRANCH   1  13
BRANCH   2  14
ATOM     14  S   UNL     1       6.895   4.457  16.632  0.00  0.00    +0.000 S 
BRANCH  14  15
ATOM     15  C   UNL     1       6.735   4.424  14.855  0.00  0.00    +0.000 A 
ATOM     16  C   UNL     1       7.671   5.129  14.087  0.00  0.00    +0.000 A 
ATOM     17  C   UNL     1       7.676   5.024  12.693  0.00  0.00    +0.000 A 
ATOM     18  C   UNL     1       6.743   4.212  12.053  0.00  0.00    +0.000 A 
ATOM     19  C   UNL     1       5.803   3.511  12.807  0.00  0.00    +0.000 A 
ATOM     20  C   UNL     1       5.799   3.613  14.203  0.00  0.00    +0.000 A 
ENDBRANCH  14  15
ENDBRANCH   2  14
TORSDOF 3
ENDMDL
MODEL 2
REMARK VINA RESULT:      -7.0      1.197      1.641
REMARK  Name = 
REMARK  3 active torsions:
REMARK  status: ('A' for Active; 'I' for Inactive)
REMARK    1  A    between atoms: C_2  and  C_3
REMARK    2  A    between atoms: C_4  and  S_5
REMARK    3  A    between atoms: S_5  and  C_6
REMARK                            x       y       z     vdW  Elec       q    Type
REMARK                         _______ _______ _______ _____ _____    ______ ____
ROOT
ATOM      1  C   UNL     1       4.634   5.796  17.843  0.00  0.00    +0.000 A 
ATOM      2  C   UNL     1       5.441   4.758  18.150  0.00  0.00    +0.000 A 
ATOM      3  N   UNL     1       5.047   3.728  18.983  0.00  0.00    +0.000 NA
ATOM      4  C   UNL     1       3.882   3.773  19.541  0.00  0.00    +0.000 A 
ATOM      5  C   UNL     1       3.499   2.697  20.496  0.00  0.00    +0.000 A 
ATOM      6  C   UNL     1       2.300   2.729  21.092  0.00  0.00    +0.000 A 
ATOM      7  C   UNL     1       1.376   3.794  20.807  0.00  0.00    +0.000 A 
ATOM      8  C   UNL     1       1.718   4.760  19.945  0.00  0.00    +0.000 A 
ATOM      9  N   UNL     1       2.956   4.770  19.309  0.00  0.00    +0.000 N 
ATOM     10  C   UNL     1       3.262   5.780  18.417  0.00  0.00    +0.000 A 
ATOM     11  O   UNL     1       2.465   6.666  18.095  0.00  0.00    +0.000 OA
ENDROOT
BRANCH   1  13
ATOM     12  O   UNL     1       4.929   7.025  15.773  0.00  0.00    +0.000 OA
ATOM     13  C   UNL     1       4.981   6.974  16.995  0.00  0.00    +0.000 C 
ENDBRANCH   1  13
BRANCH   2  14
ATOM     14  S   UNL     1       7.121   4.704  17.616  0.00  0.00    +0.000 S 
BRANCH  14  15
ATOM     15  C   UNL     1       6.949   4.451  15.858  0.00  0.00    +0.000 A 
ATOM     16  C   UNL     1       5.907   3.634  15.400  0.00  0.00    +0.000 A 
ATOM     17  C   UNL     1       5.641   3.514  14.034  0.00  0.00    +0.000 A 
ATOM     18  C   UNL     1       6.417   4.209  13.110  0.00  0.00    +0.000 A 
ATOM     19  C   UNL     1       7.462   5.019  13.554  0.00  0.00    +0.000 A 
ATOM     20  C   UNL     1       7.726   5.143  14.922  0.00  0.00    +0.000 A 
ENDBRANCH  14  15
ENDBRANCH   2  14
TORSDOF 3
ENDMDL
MODEL 3
REMARK VINA RESULT:      -6.9      1.245      1.254
REMARK  Name = 
REMARK  3 active torsions:
REMARK  status: ('A' for Active; 'I' for Inactive)
REMARK    1  A    between atoms: C_2  and  C_3
REMARK    2  A    between atoms: C_4  and  S_5
REMARK    3  A    between atoms: S_5  and  C_6
REMARK                            x       y       z     vdW  Elec       q    Type
REMARK                         _______ _______ _______ _____ _____    ______ ____
ROOT
ATOM      1  C   UNL     1       4.804   5.839  17.853  0.00  0.00    +0.000 A 
ATOM      2  C   UNL     1       5.577   4.746  18.026  0.00  0.00    +0.000 A 
ATOM      3  N   UNL     1       5.210   3.696  18.846  0.00  0.00    +0.000 NA
ATOM      4  C   UNL     1       4.112   3.773  19.524  0.00  0.00    +0.000 A 
ATOM      5  C   UNL     1       3.766   2.670  20.462  0.00  0.00    +0.000 A 
ATOM      6  C   UNL     1       2.638   2.734  21.179  0.00  0.00    +0.000 A 
ATOM      7  C   UNL     1       1.752   3.859  21.042  0.00  0.00    +0.000 A 
ATOM      8  C   UNL     1       2.060   4.849  20.195  0.00  0.00    +0.000 A 
ATOM      9  N   UNL     1       3.226   4.828  19.435  0.00  0.00    +0.000 N 
ATOM     10  C   UNL     1       3.498   5.865  18.564  0.00  0.00    +0.000 A 
ATOM     11  O   UNL     1       2.725   6.807  18.368  0.00  0.00    +0.000 OA
ENDROOT
BRANCH   1  13
ATOM     12  O   UNL     1       4.981   7.149  15.819  0.00  0.00    +0.000 OA
ATOM     13  C   UNL     1       5.131   7.040  17.029  0.00  0.00    +0.000 C 
ENDBRANCH   1  13
BRANCH   2  14
ATOM     14  S   UNL     1       7.189   4.632  17.319  0.00  0.00    +0.000 S 
BRANCH  14  15
ATOM     15  C   UNL     1       6.827   4.504  15.576  0.00  0.00    +0.000 A 
ATOM     16  C   UNL     1       7.661   5.172  14.670  0.00  0.00    +0.000 A 
ATOM     17  C   UNL     1       7.508   4.993  13.293  0.00  0.00    +0.000 A 
ATOM     18  C   UNL     1       6.517   4.143  12.807  0.00  0.00    +0.000 A 
ATOM     19  C   UNL     1       5.677   3.479  13.699  0.00  0.00    +0.000 A 
ATOM     20  C   UNL     1       5.832   3.655  15.079  0.00  0.00    +0.000 A 
ENDBRANCH  14  15
ENDBRANCH   2  14
TORSDOF 3
ENDMDL
MODEL 4
REMARK VINA RESULT:      -6.9      2.809      3.450
REMARK  Name = 
REMARK  3 active torsions:
REMARK  status: ('A' for Active; 'I' for Inactive)
REMARK    1  A    between atoms: C_2  and  C_3
REMARK    2  A    between atoms: C_4  and  S_5
REMARK    3  A    between atoms: S_5  and  C_6
REMARK                            x       y       z     vdW  Elec       q    Type
REMARK                         _______ _______ _______ _____ _____    ______ ____
ROOT
ATOM      1  C   UNL     1       3.176   6.374  18.211  0.00  0.00    +0.000 A 
ATOM      2  C   UNL     1       3.778   5.357  17.557  0.00  0.00    +0.000 A 
ATOM      3  N   UNL     1       3.591   4.033  17.905  0.00  0.00    +0.000 NA
ATOM      4  C   UNL     1       2.856   3.743  18.928  0.00  0.00    +0.000 A 
ATOM      5  C   UNL     1       2.724   2.317  19.338  0.00  0.00    +0.000 A 
ATOM      6  C   UNL     1       1.975   1.995  20.400  0.00  0.00    +0.000 A 
ATOM      7  C   UNL     1       1.288   3.019  21.141  0.00  0.00    +0.000 A 
ATOM      8  C   UNL     1       1.402   4.300  20.770  0.00  0.00    +0.000 A 
ATOM      9  N   UNL     1       2.177   4.680  19.678  0.00  0.00    +0.000 N 
ATOM     10  C   UNL     1       2.256   6.014  19.323  0.00  0.00    +0.000 A 
ATOM     11  O   UNL     1       1.622   6.907  19.892  0.00  0.00    +0.000 OA
ENDROOT
BRANCH   1  13
ATOM     12  O   UNL     1       2.606   8.536  17.272  0.00  0.00    +0.000 OA
ATOM     13  C   UNL     1       3.349   7.831  17.943  0.00  0.00    +0.000 C 
ENDBRANCH   1  13
BRANCH   2  14
ATOM     14  S   UNL     1       4.966   5.650  16.286  0.00  0.00    +0.000 S 
BRANCH  14  15
ATOM     15  C   UNL     1       6.382   6.206  17.218  0.00  0.00    +0.000 A 
ATOM     16  C   UNL     1       6.874   7.496  16.979  0.00  0.00    +0.000 A 
ATOM     17  C   UNL     1       7.890   8.032  17.775  0.00  0.00    +0.000 A 
ATOM     18  C   UNL     1       8.426   7.282  18.818  0.00  0.00    +0.000 A 
ATOM     19  C   UNL     1       7.950   5.994  19.061  0.00  0.00    +0.000 A 
ATOM     20  C   UNL     1       6.930   5.458  18.266  0.00  0.00    +0.000 A 
ENDBRANCH  14  15
ENDBRANCH   2  14
TORSDOF 3
ENDMDL
MODEL 5
REMARK VINA RESULT:      -6.8      1.965      2.549
REMARK  Name = 
REMARK  3 active torsions:
REMARK  status: ('A' for Active; 'I' for Inactive)
REMARK    1  A    between atoms: C_2  and  C_3
REMARK    2  A    between atoms: C_4  and  S_5
REMARK    3  A    between atoms: S_5  and  C_6
REMARK                            x       y       z     vdW  Elec       q    Type
REMARK                         _______ _______ _______ _____ _____    ______ ____
ROOT
ATOM      1  C   UNL     1       5.449   4.703  18.323  0.00  0.00    +0.000 A 
ATOM      2  C   UNL     1       4.639   5.350  17.458  0.00  0.00    +0.000 A 
ATOM      3  N   UNL     1       3.284   5.093  17.372  0.00  0.00    +0.000 NA
ATOM      4  C   UNL     1       2.767   4.162  18.104  0.00  0.00    +0.000 A 
ATOM      5  C   UNL     1       1.321   3.842  17.946  0.00  0.00    +0.000 A 
ATOM      6  C   UNL     1       0.766   2.876  18.689  0.00  0.00    +0.000 A 
ATOM      7  C   UNL     1       1.558   2.150  19.645  0.00  0.00    +0.000 A 
ATOM      8  C   UNL     1       2.858   2.439  19.790  0.00  0.00    +0.000 A 
ATOM      9  N   UNL     1       3.476   3.430  19.034  0.00  0.00    +0.000 N 
ATOM     10  C   UNL     1       4.817   3.705  19.226  0.00  0.00    +0.000 A 
ATOM     11  O   UNL     1       5.507   3.152  20.087  0.00  0.00    +0.000 OA
ENDROOT
BRANCH   1  13
ATOM     12  O   UNL     1       7.785   4.269  17.832  0.00  0.00    +0.000 OA
ATOM     13  C   UNL     1       6.925   4.875  18.459  0.00  0.00    +0.000 C 
ENDBRANCH   1  13
BRANCH   2  14
ATOM     14  S   UNL     1       5.276   6.485  16.267  0.00  0.00    +0.000 S 
BRANCH  14  15
ATOM     15  C   UNL     1       5.883   5.392  14.994  0.00  0.00    +0.000 A 
ATOM     16  C   UNL     1       4.997   4.462  14.434  0.00  0.00    +0.000 A 
ATOM     17  C   UNL     1       5.379   3.679  13.342  0.00  0.00    +0.000 A 
ATOM     18  C   UNL     1       6.654   3.818  12.798  0.00  0.00    +0.000 A 
ATOM     19  C   UNL     1       7.546   4.735  13.352  0.00  0.00    +0.000 A 
ATOM     20  C   UNL     1       7.163   5.521  14.444  0.00  0.00    +0.000 A 
ENDBRANCH  14  15
ENDBRANCH   2  14
TORSDOF 3
ENDMDL
MODEL 6
REMARK VINA RESULT:      -6.7      3.413      6.639
REMARK  Name = 
REMARK  3 active torsions:
REMARK  status: ('A' for Active; 'I' for Inactive)
REMARK    1  A    between atoms: C_2  and  C_3
REMARK    2  A    between atoms: C_4  and  S_5
REMARK    3  A    between atoms: S_5  and  C_6
REMARK                            x       y       z     vdW  Elec       q    Type
REMARK                         _______ _______ _______ _____ _____    ______ ____
ROOT
ATOM      1  C   UNL     1       2.880   4.632  18.208  0.00  0.00    +0.000 A 
ATOM      2  C   UNL     1       3.197   5.313  19.330  0.00  0.00    +0.000 A 
ATOM      3  N   UNL     1       4.494   5.677  19.639  0.00  0.00    +0.000 NA
ATOM      4  C   UNL     1       5.459   5.312  18.861  0.00  0.00    +0.000 A 
ATOM      5  C   UNL     1       6.858   5.645  19.245  0.00  0.00    +0.000 A 
ATOM      6  C   UNL     1       7.874   5.270  18.457  0.00  0.00    +0.000 A 
ATOM      7  C   UNL     1       7.619   4.554  17.236  0.00  0.00    +0.000 A 
ATOM      8  C   UNL     1       6.360   4.258  16.887  0.00  0.00    +0.000 A 
ATOM      9  N   UNL     1       5.276   4.622  17.680  0.00  0.00    +0.000 N 
ATOM     10  C   UNL     1       3.992   4.308  17.276  0.00  0.00    +0.000 A 
ATOM     11  O   UNL     1       3.735   3.760  16.200  0.00  0.00    +0.000 OA
ENDROOT
BRANCH   1  13
ATOM     12  O   UNL     1       1.041   3.058  18.061  0.00  0.00    +0.000 OA
ATOM     13  C   UNL     1       1.524   4.154  17.809  0.00  0.00    +0.000 C 
ENDBRANCH   1  13
BRANCH   2  14
ATOM     14  S   UNL     1       1.990   5.673  20.565  0.00  0.00    +0.000 S 
BRANCH  14  15
ATOM     15  C   UNL     1       1.675   7.407  20.286  0.00  0.00    +0.000 A 
ATOM     16  C   UNL     1       1.941   7.940  19.018  0.00  0.00    +0.000 A 
ATOM     17  C   UNL     1       1.583   9.253  18.705  0.00  0.00    +0.000 A 
ATOM     18  C   UNL     1       0.956  10.050  19.659  0.00  0.00    +0.000 A 
ATOM     19  C   UNL     1       0.693   9.534  20.927  0.00  0.00    +0.000 A 
ATOM     20  C   UNL     1       1.048   8.217  21.241  0.00  0.00    +0.000 A 
ENDBRANCH  14  15
ENDBRANCH   2  14
TORSDOF 3
ENDMDL
MODEL 7
REMARK VINA RESULT:      -6.7      3.213      6.047
REMARK  Name = 
REMARK  3 active torsions:
REMARK  status: ('A' for Active; 'I' for Inactive)
REMARK    1  A    between atoms: C_2  and  C_3
REMARK    2  A    between atoms: C_4  and  S_5
REMARK    3  A    between atoms: S_5  and  C_6
REMARK                            x       y       z     vdW  Elec       q    Type
REMARK                         _______ _______ _______ _____ _____    ______ ____
ROOT
ATOM      1  C   UNL     1       4.467   6.093  17.821  0.00  0.00    +0.000 A 
ATOM      2  C   UNL     1       3.202   6.540  17.965  0.00  0.00    +0.000 A 
ATOM      3  N   UNL     1       2.144   5.702  18.264  0.00  0.00    +0.000 NA
ATOM      4  C   UNL     1       2.350   4.430  18.359  0.00  0.00    +0.000 A 
ATOM      5  C   UNL     1       1.189   3.530  18.605  0.00  0.00    +0.000 A 
ATOM      6  C   UNL     1       1.379   2.208  18.700  0.00  0.00    +0.000 A 
ATOM      7  C   UNL     1       2.699   1.652  18.574  0.00  0.00    +0.000 A 
ATOM      8  C   UNL     1       3.744   2.462  18.357  0.00  0.00    +0.000 A 
ATOM      9  N   UNL     1       3.592   3.840  18.244  0.00  0.00    +0.000 N 
ATOM     10  C   UNL     1       4.700   4.639  18.033  0.00  0.00    +0.000 A 
ATOM     11  O   UNL     1       5.854   4.202  17.993  0.00  0.00    +0.000 OA
ENDROOT
BRANCH   1  13
ATOM     12  O   UNL     1       6.128   7.043  16.331  0.00  0.00    +0.000 OA
ATOM     13  C   UNL     1       5.664   6.906  17.455  0.00  0.00    +0.000 C 
ENDBRANCH   1  13
BRANCH   2  14
ATOM     14  S   UNL     1       2.774   8.222  17.645  0.00  0.00    +0.000 S 
BRANCH  14  15
ATOM     15  C   UNL     1       1.794   8.639  19.077  0.00  0.00    +0.000 A 
ATOM     16  C   UNL     1       0.825   9.643  18.954  0.00  0.00    +0.000 A 
ATOM     17  C   UNL     1      -0.062   9.913  19.999  0.00  0.00    +0.000 A 
ATOM     18  C   UNL     1       0.013   9.180  21.181  0.00  0.00    +0.000 A 
ATOM     19  C   UNL     1       0.977   8.183  21.318  0.00  0.00    +0.000 A 
ATOM     20  C   UNL     1       1.864   7.910  20.270  0.00  0.00    +0.000 A 
ENDBRANCH  14  15
ENDBRANCH   2  14
TORSDOF 3
ENDMDL
MODEL 8
REMARK VINA RESULT:      -6.7      2.547      4.010
REMARK  Name = 
REMARK  3 active torsions:
REMARK  status: ('A' for Active; 'I' for Inactive)
REMARK    1  A    between atoms: C_2  and  C_3
REMARK    2  A    between atoms: C_4  and  S_5
REMARK    3  A    between atoms: S_5  and  C_6
REMARK                            x       y       z     vdW  Elec       q    Type
REMARK                         _______ _______ _______ _____ _____    ______ ____
ROOT
ATOM      1  C   UNL     1       4.389   3.919  16.953  0.00  0.00    +0.000 A 
ATOM      2  C   UNL     1       4.202   5.208  17.306  0.00  0.00    +0.000 A 
ATOM      3  N   UNL     1       3.378   5.584  18.350  0.00  0.00    +0.000 NA
ATOM      4  C   UNL     1       2.711   4.680  18.989  0.00  0.00    +0.000 A 
ATOM      5  C   UNL     1       1.769   5.105  20.061  0.00  0.00    +0.000 A 
ATOM      6  C   UNL     1       1.062   4.185  20.731  0.00  0.00    +0.000 A 
ATOM      7  C   UNL     1       1.215   2.788  20.426  0.00  0.00    +0.000 A 
ATOM      8  C   UNL     1       2.066   2.405  19.465  0.00  0.00    +0.000 A 
ATOM      9  N   UNL     1       2.814   3.327  18.739  0.00  0.00    +0.000 N 
ATOM     10  C   UNL     1       3.690   2.887  17.765  0.00  0.00    +0.000 A 
ATOM     11  O   UNL     1       3.899   1.693  17.530  0.00  0.00    +0.000 OA
ENDROOT
BRANCH   1  13
ATOM     12  O   UNL     1       6.384   3.708  15.591  0.00  0.00    +0.000 OA
ATOM     13  C   UNL     1       5.217   3.417  15.818  0.00  0.00    +0.000 C 
ENDBRANCH   1  13
BRANCH   2  14
ATOM     14  S   UNL     1       4.893   6.533  16.367  0.00  0.00    +0.000 S 
BRANCH  14  15
ATOM     15  C   UNL     1       6.392   6.888  17.267  0.00  0.00    +0.000 A 
ATOM     16  C   UNL     1       6.957   8.165  17.146  0.00  0.00    +0.000 A 
ATOM     17  C   UNL     1       8.048   8.541  17.933  0.00  0.00    +0.000 A 
ATOM     18  C   UNL     1       8.588   7.642  18.850  0.00  0.00    +0.000 A 
ATOM     19  C   UNL     1       8.039   6.366  18.974  0.00  0.00    +0.000 A 
ATOM     20  C   UNL     1       6.944   5.990  18.188  0.00  0.00    +0.000 A 
ENDBRANCH  14  15
ENDBRANCH   2  14
TORSDOF 3
ENDMDL
MODEL 9
REMARK VINA RESULT:      -6.7      3.836      5.668
REMARK  Name = 
REMARK  3 active torsions:
REMARK  status: ('A' for Active; 'I' for Inactive)
REMARK    1  A    between atoms: C_2  and  C_3
REMARK    2  A    between atoms: C_4  and  S_5
REMARK    3  A    between atoms: S_5  and  C_6
REMARK                            x       y       z     vdW  Elec       q    Type
REMARK                         _______ _______ _______ _____ _____    ______ ____
ROOT
ATOM      1  C   UNL     1       2.444   6.323  19.646  0.00  0.00    +0.000 A 
ATOM      2  C   UNL     1       3.016   6.690  18.479  0.00  0.00    +0.000 A 
ATOM      3  N   UNL     1       2.862   7.951  17.937  0.00  0.00    +0.000 NA
ATOM      4  C   UNL     1       2.098   8.808  18.531  0.00  0.00    +0.000 A 
ATOM      5  C   UNL     1       1.878  10.137  17.897  0.00  0.00    +0.000 A 
ATOM      6  C   UNL     1       1.085  11.037  18.491  0.00  0.00    +0.000 A 
ATOM      7  C   UNL     1       0.450  10.730  19.744  0.00  0.00    +0.000 A 
ATOM      8  C   UNL     1       0.650   9.536  20.317  0.00  0.00    +0.000 A 
ATOM      9  N   UNL     1       1.461   8.569  19.731  0.00  0.00    +0.000 N 
ATOM     10  C   UNL     1       1.650   7.355  20.364  0.00  0.00    +0.000 A 
ATOM     11  O   UNL     1       1.180   7.088  21.474  0.00  0.00    +0.000 OA
ENDROOT
BRANCH   1  13
ATOM     12  O   UNL     1       1.737   4.049  20.104  0.00  0.00    +0.000 OA
ATOM     13  C   UNL     1       2.513   4.978  20.288  0.00  0.00    +0.000 C 
ENDBRANCH   1  13
BRANCH   2  14
ATOM     14  S   UNL     1       3.900   5.535  17.481  0.00  0.00    +0.000 S 
BRANCH  14  15
ATOM     15  C   UNL     1       5.597   5.912  17.883  0.00  0.00    +0.000 A 
ATOM     16  C   UNL     1       6.240   6.936  17.175  0.00  0.00    +0.000 A 
ATOM     17  C   UNL     1       7.518   7.366  17.542  0.00  0.00    +0.000 A 
ATOM     18  C   UNL     1       8.167   6.774  18.623  0.00  0.00    +0.000 A 
ATOM     19  C   UNL     1       7.540   5.750  19.331  0.00  0.00    +0.000 A 
ATOM     20  C   UNL     1       6.259   5.321  18.966  0.00  0.00    +0.000 A 
ENDBRANCH  14  15
ENDBRANCH   2  14
TORSDOF 3
ENDMDL
