MODEL 1
REMARK VINA RESULT:      -6.8      0.000      0.000
REMARK  Name = 
REMARK  3 active torsions:
REMARK  status: ('A' for Active; 'I' for Inactive)
REMARK    1  A    between atoms: C_1  and  C_2
REMARK    2  A    between atoms: C_2  and  C_4
REMARK    3  A    between atoms: C_5  and  C_6
REMARK                            x       y       z     vdW  Elec       q    Type
REMARK                         _______ _______ _______ _____ _____    ______ ____
ROOT
ATOM      1  C   UNL     1       2.542   7.428  18.654  0.00  0.00    +0.000 A 
ATOM      2  C   UNL     1       2.088   7.043  19.934  0.00  0.00    +0.000 A 
ATOM      3  N   UNL     1       2.491   5.721  20.100  0.00  0.00    +0.000 N 
ATOM      4  C   UNL     1       3.119   5.249  18.955  0.00  0.00    +0.000 A 
ATOM      5  C   UNL     1       3.628   3.967  18.652  0.00  0.00    +0.000 A 
ATOM      6  C   UNL     1       4.366   3.782  17.486  0.00  0.00    +0.000 A 
ATOM      7  C   UNL     1       4.554   4.845  16.614  0.00  0.00    +0.000 A 
ATOM      8  C   UNL     1       3.993   6.101  16.889  0.00  0.00    +0.000 A 
ATOM      9  C   UNL     1       3.248   6.317  18.075  0.00  0.00    +0.000 A 
ATOM     10  C   UNL     1       3.354   2.826  19.549  0.00  0.00    +0.000 C 
ATOM     11  O   UNL     1       4.222   2.032  19.875  0.00  0.00    +0.000 OA
ATOM     12  N   UNL     1       2.032   2.754  19.962  0.00  0.00    +0.000 N 
ATOM     13  C   UNL     1       1.637   3.580  21.100  0.00  0.00    +0.000 C 
ATOM     14  C   UNL     1       2.427   4.877  21.289  0.00  0.00    +0.000 C 
ATOM     15  H   UNL     1       1.410   2.934  19.190  0.00  0.00    +0.000 HD
ENDROOT
BRANCH   2  16
ATOM     16  C   UNL     1       1.266   7.805  20.914  0.00  0.00    +0.000 A 
ATOM     17  C   UNL     1       1.875   8.712  21.799  0.00  0.00    +0.000 A 
ATOM     18  C   UNL     1       1.118   9.483  22.690  0.00  0.00    +0.000 A 
ATOM     19  C   UNL     1      -0.264   9.393  22.669  0.00  0.00    +0.000 A 
ATOM     20  F   UNL     1      -0.994  10.170  23.480  0.00  0.00    +0.000 F 
ATOM     21  C   UNL     1      -0.898   8.498  21.823  0.00  0.00    +0.000 A 
ATOM     22  C   UNL     1      -0.131   7.672  20.992  0.00  0.00    +0.000 A 
ENDBRANCH   2  16
BRANCH   1  24
ATOM     23  C   UNL     1       0.942   9.301  17.925  0.00  0.00    +0.000 C 
ATOM     24  C   UNL     1       2.343   8.748  18.032  0.00  0.00    +0.000 C 
ATOM     25  O   UNL     1       3.292   9.417  17.617  0.00  0.00    +0.000 OA
ENDBRANCH   1  24
TORSDOF 2
ENDMDL
MODEL 2
REMARK VINA RESULT:      -6.7      7.323     10.266
REMARK  Name = 
REMARK  3 active torsions:
REMARK  status: ('A' for Active; 'I' for Inactive)
REMARK    1  A    between atoms: C_1  and  C_2
REMARK    2  A    between atoms: C_2  and  C_4
REMARK    3  A    between atoms: C_5  and  C_6
REMARK                            x       y       z     vdW  Elec       q    Type
REMARK                         _______ _______ _______ _____ _____    ______ ____
ROOT
ATOM      1  C   UNL     1      -2.575  12.477  20.165  0.00  0.00    +0.000 A 
ATOM      2  C   UNL     1      -3.538  11.969  19.267  0.00  0.00    +0.000 A 
ATOM      3  N   UNL     1      -4.771  12.152  19.887  0.00  0.00    +0.000 N 
ATOM      4  C   UNL     1      -4.610  12.692  21.156  0.00  0.00    +0.000 A 
ATOM      5  C   UNL     1      -5.566  12.985  22.154  0.00  0.00    +0.000 A 
ATOM      6  C   UNL     1      -5.172  13.682  23.294  0.00  0.00    +0.000 A 
ATOM      7  C   UNL     1      -3.841  14.038  23.457  0.00  0.00    +0.000 A 
ATOM      8  C   UNL     1      -2.885  13.690  22.492  0.00  0.00    +0.000 A 
ATOM      9  C   UNL     1      -3.263  12.992  21.318  0.00  0.00    +0.000 A 
ATOM     10  C   UNL     1      -6.963  12.531  22.003  0.00  0.00    +0.000 C 
ATOM     11  O   UNL     1      -7.913  13.259  22.244  0.00  0.00    +0.000 OA
ATOM     12  N   UNL     1      -7.073  11.216  21.577  0.00  0.00    +0.000 N 
ATOM     13  C   UNL     1      -6.969  10.963  20.143  0.00  0.00    +0.000 C 
ATOM     14  C   UNL     1      -6.114  11.953  19.350  0.00  0.00    +0.000 C 
ATOM     15  H   UNL     1      -6.414  10.630  22.066  0.00  0.00    +0.000 HD
ENDROOT
BRANCH   2  16
ATOM     16  C   UNL     1      -3.342  11.283  17.960  0.00  0.00    +0.000 A 
ATOM     17  C   UNL     1      -4.124  11.639  16.847  0.00  0.00    +0.000 A 
ATOM     18  C   UNL     1      -3.920  11.050  15.592  0.00  0.00    +0.000 A 
ATOM     19  C   UNL     1      -2.894  10.134  15.425  0.00  0.00    +0.000 A 
ATOM     20  F   UNL     1      -2.659   9.611  14.215  0.00  0.00    +0.000 F 
ATOM     21  C   UNL     1      -2.115   9.746  16.503  0.00  0.00    +0.000 A 
ATOM     22  C   UNL     1      -2.376  10.279  17.772  0.00  0.00    +0.000 A 
ENDBRANCH   2  16
BRANCH   1  24
ATOM     23  C   UNL     1      -0.536  13.517  18.997  0.00  0.00    +0.000 C 
ATOM     24  C   UNL     1      -1.118  12.495  19.945  0.00  0.00    +0.000 C 
ATOM     25  O   UNL     1      -0.366  11.713  20.530  0.00  0.00    +0.000 OA
ENDBRANCH   1  24
TORSDOF 2
ENDMDL
MODEL 3
REMARK VINA RESULT:      -6.6      5.916      8.418
REMARK  Name = 
REMARK  3 active torsions:
REMARK  status: ('A' for Active; 'I' for Inactive)
REMARK    1  A    between atoms: C_1  and  C_2
REMARK    2  A    between atoms: C_2  and  C_4
REMARK    3  A    between atoms: C_5  and  C_6
REMARK                            x       y       z     vdW  Elec       q    Type
REMARK                         _______ _______ _______ _____ _____    ______ ____
ROOT
ATOM      1  C   UNL     1      -4.656  12.196  18.984  0.00  0.00    +0.000 A 
ATOM      2  C   UNL     1      -3.856  12.659  20.050  0.00  0.00    +0.000 A 
ATOM      3  N   UNL     1      -2.589  12.120  19.839  0.00  0.00    +0.000 N 
ATOM      4  C   UNL     1      -2.585  11.292  18.725  0.00  0.00    +0.000 A 
ATOM      5  C   UNL     1      -1.553  10.497  18.179  0.00  0.00    +0.000 A 
ATOM      6  C   UNL     1      -1.748   9.873  16.949  0.00  0.00    +0.000 A 
ATOM      7  C   UNL     1      -2.966  10.001  16.298  0.00  0.00    +0.000 A 
ATOM      8  C   UNL     1      -4.010  10.740  16.875  0.00  0.00    +0.000 A 
ATOM      9  C   UNL     1      -3.832  11.394  18.120  0.00  0.00    +0.000 A 
ATOM     10  C   UNL     1      -0.290  10.306  18.920  0.00  0.00    +0.000 C 
ATOM     11  O   UNL     1       0.801  10.383  18.377  0.00  0.00    +0.000 OA
ATOM     12  N   UNL     1      -0.476  10.027  20.265  0.00  0.00    +0.000 N 
ATOM     13  C   UNL     1      -0.683  11.159  21.164  0.00  0.00    +0.000 C 
ATOM     14  C   UNL     1      -1.340  12.394  20.543  0.00  0.00    +0.000 C 
ATOM     15  H   UNL     1      -1.225   9.364  20.389  0.00  0.00    +0.000 HD
ENDROOT
BRANCH   2  16
ATOM     16  C   UNL     1      -4.240  13.477  21.234  0.00  0.00    +0.000 A 
ATOM     17  C   UNL     1      -4.277  14.879  21.147  0.00  0.00    +0.000 A 
ATOM     18  C   UNL     1      -4.691  15.668  22.229  0.00  0.00    +0.000 A 
ATOM     19  C   UNL     1      -5.123  15.057  23.395  0.00  0.00    +0.000 A 
ATOM     20  F   UNL     1      -5.572  15.805  24.411  0.00  0.00    +0.000 F 
ATOM     21  C   UNL     1      -5.084  13.678  23.523  0.00  0.00    +0.000 A 
ATOM     22  C   UNL     1      -4.593  12.900  22.467  0.00  0.00    +0.000 A 
ENDBRANCH   2  16
BRANCH   1  24
ATOM     23  C   UNL     1      -7.115  11.684  19.524  0.00  0.00    +0.000 C 
ATOM     24  C   UNL     1      -6.083  12.500  18.783  0.00  0.00    +0.000 C 
ATOM     25  O   UNL     1      -6.451  13.415  18.043  0.00  0.00    +0.000 OA
ENDBRANCH   1  24
TORSDOF 2
ENDMDL
MODEL 4
REMARK VINA RESULT:      -6.6      5.430      8.080
REMARK  Name = 
REMARK  3 active torsions:
REMARK  status: ('A' for Active; 'I' for Inactive)
REMARK    1  A    between atoms: C_1  and  C_2
REMARK    2  A    between atoms: C_2  and  C_4
REMARK    3  A    between atoms: C_5  and  C_6
REMARK                            x       y       z     vdW  Elec       q    Type
REMARK                         _______ _______ _______ _____ _____    ______ ____
ROOT
ATOM      1  C   UNL     1      -4.165  12.385  19.623  0.00  0.00    +0.000 A 
ATOM      2  C   UNL     1      -3.175  12.682  20.584  0.00  0.00    +0.000 A 
ATOM      3  N   UNL     1      -2.013  12.056  20.143  0.00  0.00    +0.000 N 
ATOM      4  C   UNL     1      -2.254  11.330  18.984  0.00  0.00    +0.000 A 
ATOM      5  C   UNL     1      -1.396  10.500  18.229  0.00  0.00    +0.000 A 
ATOM      6  C   UNL     1      -1.829  10.005  17.002  0.00  0.00    +0.000 A 
ATOM      7  C   UNL     1      -3.111  10.294  16.557  0.00  0.00    +0.000 A 
ATOM      8  C   UNL     1      -3.981  11.067  17.339  0.00  0.00    +0.000 A 
ATOM      9  C   UNL     1      -3.559  11.593  18.586  0.00  0.00    +0.000 A 
ATOM     10  C   UNL     1      -0.063  10.135  18.752  0.00  0.00    +0.000 C 
ATOM     11  O   UNL     1       0.938  10.164  18.054  0.00  0.00    +0.000 OA
ATOM     12  N   UNL     1      -0.078   9.758  20.085  0.00  0.00    +0.000 N 
ATOM     13  C   UNL     1      -0.039  10.821  21.086  0.00  0.00    +0.000 C 
ATOM     14  C   UNL     1      -0.654  12.157  20.664  0.00  0.00    +0.000 C 
ATOM     15  H   UNL     1      -0.863   9.154  20.273  0.00  0.00    +0.000 HD
ENDROOT
BRANCH   2  16
ATOM     16  C   UNL     1      -3.300  13.424  21.870  0.00  0.00    +0.000 A 
ATOM     17  C   UNL     1      -3.616  12.740  23.057  0.00  0.00    +0.000 A 
ATOM     18  C   UNL     1      -3.683  13.406  24.288  0.00  0.00    +0.000 A 
ATOM     19  C   UNL     1      -3.382  14.757  24.352  0.00  0.00    +0.000 A 
ATOM     20  F   UNL     1      -3.389  15.385  25.535  0.00  0.00    +0.000 F 
ATOM     21  C   UNL     1      -3.083  15.467  23.200  0.00  0.00    +0.000 A 
ATOM     22  C   UNL     1      -3.097  14.812  21.962  0.00  0.00    +0.000 A 
ENDBRANCH   2  16
BRANCH   1  24
ATOM     23  C   UNL     1      -6.555  12.049  20.503  0.00  0.00    +0.000 C 
ATOM     24  C   UNL     1      -5.568  12.829  19.666  0.00  0.00    +0.000 C 
ATOM     25  O   UNL     1      -5.950  13.828  19.054  0.00  0.00    +0.000 OA
ENDBRANCH   1  24
TORSDOF 2
ENDMDL
MODEL 5
REMARK VINA RESULT:      -6.5      6.273      8.729
REMARK  Name = 
REMARK  3 active torsions:
REMARK  status: ('A' for Active; 'I' for Inactive)
REMARK    1  A    between atoms: C_1  and  C_2
REMARK    2  A    between atoms: C_2  and  C_4
REMARK    3  A    between atoms: C_5  and  C_6
REMARK                            x       y       z     vdW  Elec       q    Type
REMARK                         _______ _______ _______ _____ _____    ______ ____
ROOT
ATOM      1  C   UNL     1      -4.983  12.053  18.749  0.00  0.00    +0.000 A 
ATOM      2  C   UNL     1      -4.324  12.648  19.846  0.00  0.00    +0.000 A 
ATOM      3  N   UNL     1      -2.990  12.261  19.745  0.00  0.00    +0.000 N 
ATOM      4  C   UNL     1      -2.805  11.401  18.671  0.00  0.00    +0.000 A 
ATOM      5  C   UNL     1      -1.648  10.721  18.233  0.00  0.00    +0.000 A 
ATOM      6  C   UNL     1      -1.676  10.035  17.021  0.00  0.00    +0.000 A 
ATOM      7  C   UNL     1      -2.851   9.989  16.283  0.00  0.00    +0.000 A 
ATOM      8  C   UNL     1      -4.015  10.614  16.754  0.00  0.00    +0.000 A 
ATOM      9  C   UNL     1      -4.008  11.328  17.979  0.00  0.00    +0.000 A 
ATOM     10  C   UNL     1      -0.428  10.712  19.066  0.00  0.00    +0.000 C 
ATOM     11  O   UNL     1       0.682  10.903  18.595  0.00  0.00    +0.000 OA
ATOM     12  N   UNL     1      -0.678  10.460  20.406  0.00  0.00    +0.000 N 
ATOM     13  C   UNL     1      -1.085  11.589  21.238  0.00  0.00    +0.000 C 
ATOM     14  C   UNL     1      -1.837  12.711  20.520  0.00  0.00    +0.000 C 
ATOM     15  H   UNL     1      -1.349   9.715  20.506  0.00  0.00    +0.000 HD
ENDROOT
BRANCH   2  16
ATOM     16  C   UNL     1      -4.889  13.453  20.964  0.00  0.00    +0.000 A 
ATOM     17  C   UNL     1      -5.211  12.841  22.188  0.00  0.00    +0.000 A 
ATOM     18  C   UNL     1      -5.691  13.587  23.273  0.00  0.00    +0.000 A 
ATOM     19  C   UNL     1      -5.803  14.963  23.161  0.00  0.00    +0.000 A 
ATOM     20  F   UNL     1      -6.206  15.685  24.214  0.00  0.00    +0.000 F 
ATOM     21  C   UNL     1      -5.511  15.598  21.965  0.00  0.00    +0.000 A 
ATOM     22  C   UNL     1      -5.110  14.837  20.859  0.00  0.00    +0.000 A 
ENDBRANCH   2  16
BRANCH   1  24
ATOM     23  C   UNL     1      -6.845  13.069  17.300  0.00  0.00    +0.000 C 
ATOM     24  C   UNL     1      -6.417  12.172  18.438  0.00  0.00    +0.000 C 
ATOM     25  O   UNL     1      -7.271  11.546  19.068  0.00  0.00    +0.000 OA
ENDBRANCH   1  24
TORSDOF 2
ENDMDL
MODEL 6
REMARK VINA RESULT:      -6.5      6.748      9.502
REMARK  Name = 
REMARK  3 active torsions:
REMARK  status: ('A' for Active; 'I' for Inactive)
REMARK    1  A    between atoms: C_1  and  C_2
REMARK    2  A    between atoms: C_2  and  C_4
REMARK    3  A    between atoms: C_5  and  C_6
REMARK                            x       y       z     vdW  Elec       q    Type
REMARK                         _______ _______ _______ _____ _____    ______ ____
ROOT
ATOM      1  C   UNL     1      -3.356  11.445  17.797  0.00  0.00    +0.000 A 
ATOM      2  C   UNL     1      -2.425  11.903  18.754  0.00  0.00    +0.000 A 
ATOM      3  N   UNL     1      -3.169  12.227  19.885  0.00  0.00    +0.000 N 
ATOM      4  C   UNL     1      -4.526  12.052  19.650  0.00  0.00    +0.000 A 
ATOM      5  C   UNL     1      -5.639  12.313  20.479  0.00  0.00    +0.000 A 
ATOM      6  C   UNL     1      -6.906  11.897  20.074  0.00  0.00    +0.000 A 
ATOM      7  C   UNL     1      -7.065  11.275  18.844  0.00  0.00    +0.000 A 
ATOM      8  C   UNL     1      -5.965  11.075  17.997  0.00  0.00    +0.000 A 
ATOM      9  C   UNL     1      -4.664  11.478  18.392  0.00  0.00    +0.000 A 
ATOM     10  C   UNL     1      -5.466  13.046  21.749  0.00  0.00    +0.000 C 
ATOM     11  O   UNL     1      -6.002  12.686  22.786  0.00  0.00    +0.000 OA
ATOM     12  N   UNL     1      -4.656  14.165  21.635  0.00  0.00    +0.000 N 
ATOM     13  C   UNL     1      -3.212  13.960  21.704  0.00  0.00    +0.000 C 
ATOM     14  C   UNL     1      -2.707  12.599  21.219  0.00  0.00    +0.000 C 
ATOM     15  H   UNL     1      -4.878  14.678  20.796  0.00  0.00    +0.000 HD
ENDROOT
BRANCH   2  16
ATOM     16  C   UNL     1      -0.956  12.109  18.620  0.00  0.00    +0.000 A 
ATOM     17  C   UNL     1      -0.437  13.394  18.385  0.00  0.00    +0.000 A 
ATOM     18  C   UNL     1       0.943  13.623  18.312  0.00  0.00    +0.000 A 
ATOM     19  C   UNL     1       1.823  12.574  18.526  0.00  0.00    +0.000 A 
ATOM     20  F   UNL     1       3.142  12.800  18.514  0.00  0.00    +0.000 F 
ATOM     21  C   UNL     1       1.348  11.291  18.742  0.00  0.00    +0.000 A 
ATOM     22  C   UNL     1      -0.033  11.055  18.734  0.00  0.00    +0.000 A 
ENDBRANCH   2  16
BRANCH   1  24
ATOM     23  C   UNL     1      -2.379   9.646  16.245  0.00  0.00    +0.000 C 
ATOM     24  C   UNL     1      -3.036  10.994  16.432  0.00  0.00    +0.000 C 
ATOM     25  O   UNL     1      -3.309  11.676  15.443  0.00  0.00    +0.000 OA
ENDBRANCH   1  24
TORSDOF 2
ENDMDL
MODEL 7
REMARK VINA RESULT:      -6.4      7.714     10.491
REMARK  Name = 
REMARK  3 active torsions:
REMARK  status: ('A' for Active; 'I' for Inactive)
REMARK    1  A    between atoms: C_1  and  C_2
REMARK    2  A    between atoms: C_2  and  C_4
REMARK    3  A    between atoms: C_5  and  C_6
REMARK                            x       y       z     vdW  Elec       q    Type
REMARK                         _______ _______ _______ _____ _____    ______ ____
ROOT
ATOM      1  C   UNL     1      -5.421  11.915  19.753  0.00  0.00    +0.000 A 
ATOM      2  C   UNL     1      -4.139  11.795  19.176  0.00  0.00    +0.000 A 
ATOM      3  N   UNL     1      -3.266  12.440  20.047  0.00  0.00    +0.000 N 
ATOM      4  C   UNL     1      -3.958  13.011  21.106  0.00  0.00    +0.000 A 
ATOM      5  C   UNL     1      -3.496  13.803  22.181  0.00  0.00    +0.000 A 
ATOM      6  C   UNL     1      -4.369  14.125  23.217  0.00  0.00    +0.000 A 
ATOM      7  C   UNL     1      -5.690  13.705  23.160  0.00  0.00    +0.000 A 
ATOM      8  C   UNL     1      -6.159  12.972  22.061  0.00  0.00    +0.000 A 
ATOM      9  C   UNL     1      -5.288  12.621  20.999  0.00  0.00    +0.000 A 
ATOM     10  C   UNL     1      -2.109  14.310  22.189  0.00  0.00    +0.000 C 
ATOM     11  O   UNL     1      -1.407  14.266  23.187  0.00  0.00    +0.000 OA
ATOM     12  N   UNL     1      -1.706  14.837  20.972  0.00  0.00    +0.000 N 
ATOM     13  C   UNL     1      -1.222  13.900  19.961  0.00  0.00    +0.000 C 
ATOM     14  C   UNL     1      -1.807  12.487  20.026  0.00  0.00    +0.000 C 
ATOM     15  H   UNL     1      -2.436  15.406  20.574  0.00  0.00    +0.000 HD
ENDROOT
BRANCH   2  16
ATOM     16  C   UNL     1      -3.743  11.199  17.870  0.00  0.00    +0.000 A 
ATOM     17  C   UNL     1      -4.350  11.633  16.678  0.00  0.00    +0.000 A 
ATOM     18  C   UNL     1      -3.955  11.128  15.432  0.00  0.00    +0.000 A 
ATOM     19  C   UNL     1      -2.910  10.221  15.360  0.00  0.00    +0.000 A 
ATOM     20  F   UNL     1      -2.492   9.780  14.167  0.00  0.00    +0.000 F 
ATOM     21  C   UNL     1      -2.301   9.758  16.515  0.00  0.00    +0.000 A 
ATOM     22  C   UNL     1      -2.755  10.205  17.763  0.00  0.00    +0.000 A 
ENDBRANCH   2  16
BRANCH   1  24
ATOM     23  C   UNL     1      -6.946   9.906  19.267  0.00  0.00    +0.000 C 
ATOM     24  C   UNL     1      -6.674  11.390  19.185  0.00  0.00    +0.000 C 
ATOM     25  O   UNL     1      -7.510  12.131  18.666  0.00  0.00    +0.000 OA
ENDBRANCH   1  24
TORSDOF 2
ENDMDL
MODEL 8
REMARK VINA RESULT:      -6.4      6.735      9.561
REMARK  Name = 
REMARK  3 active torsions:
REMARK  status: ('A' for Active; 'I' for Inactive)
REMARK    1  A    between atoms: C_1  and  C_2
REMARK    2  A    between atoms: C_2  and  C_4
REMARK    3  A    between atoms: C_5  and  C_6
REMARK                            x       y       z     vdW  Elec       q    Type
REMARK                         _______ _______ _______ _____ _____    ______ ____
ROOT
ATOM      1  C   UNL     1      -3.386  11.479  17.997  0.00  0.00    +0.000 A 
ATOM      2  C   UNL     1      -2.470  11.947  18.963  0.00  0.00    +0.000 A 
ATOM      3  N   UNL     1      -3.230  12.270  20.084  0.00  0.00    +0.000 N 
ATOM      4  C   UNL     1      -4.583  12.082  19.834  0.00  0.00    +0.000 A 
ATOM      5  C   UNL     1      -5.708  12.337  20.648  0.00  0.00    +0.000 A 
ATOM      6  C   UNL     1      -6.966  11.910  20.230  0.00  0.00    +0.000 A 
ATOM      7  C   UNL     1      -7.106  11.282  19.001  0.00  0.00    +0.000 A 
ATOM      8  C   UNL     1      -5.994  11.087  18.168  0.00  0.00    +0.000 A 
ATOM      9  C   UNL     1      -4.702  11.502  18.576  0.00  0.00    +0.000 A 
ATOM     10  C   UNL     1      -5.557  13.077  21.918  0.00  0.00    +0.000 C 
ATOM     11  O   UNL     1      -6.101  12.716  22.949  0.00  0.00    +0.000 OA
ATOM     12  N   UNL     1      -4.755  14.202  21.808  0.00  0.00    +0.000 N 
ATOM     13  C   UNL     1      -3.309  14.009  21.896  0.00  0.00    +0.000 C 
ATOM     14  C   UNL     1      -2.788  12.651  21.422  0.00  0.00    +0.000 C 
ATOM     15  H   UNL     1      -4.971  14.710  20.965  0.00  0.00    +0.000 HD
ENDROOT
BRANCH   2  16
ATOM     16  C   UNL     1      -1.002  12.165  18.846  0.00  0.00    +0.000 A 
ATOM     17  C   UNL     1      -0.110  11.089  18.994  0.00  0.00    +0.000 A 
ATOM     18  C   UNL     1       1.272  11.257  18.831  0.00  0.00    +0.000 A 
ATOM     19  C   UNL     1       1.772  12.497  18.466  0.00  0.00    +0.000 A 
ATOM     20  F   UNL     1       3.085  12.648  18.254  0.00  0.00    +0.000 F 
ATOM     21  C   UNL     1       0.924  13.584  18.328  0.00  0.00    +0.000 A 
ATOM     22  C   UNL     1      -0.446  13.427  18.571  0.00  0.00    +0.000 A 
ENDBRANCH   2  16
BRANCH   1  24
ATOM     23  C   UNL     1      -2.283   9.732  16.470  0.00  0.00    +0.000 C 
ATOM     24  C   UNL     1      -3.046  11.025  16.638  0.00  0.00    +0.000 C 
ATOM     25  O   UNL     1      -3.386  11.661  15.639  0.00  0.00    +0.000 OA
ENDBRANCH   1  24
TORSDOF 2
ENDMDL
MODEL 9
REMARK VINA RESULT:      -6.4      7.752     10.577
REMARK  Name = 
REMARK  3 active torsions:
REMARK  status: ('A' for Active; 'I' for Inactive)
REMARK    1  A    between atoms: C_1  and  C_2
REMARK    2  A    between atoms: C_2  and  C_4
REMARK    3  A    between atoms: C_5  and  C_6
REMARK                            x       y       z     vdW  Elec       q    Type
REMARK                         _______ _______ _______ _____ _____    ______ ____
ROOT
ATOM      1  C   UNL     1      -5.514  11.910  19.797  0.00  0.00    +0.000 A 
ATOM      2  C   UNL     1      -4.205  11.876  19.271  0.00  0.00    +0.000 A 
ATOM      3  N   UNL     1      -3.405  12.544  20.195  0.00  0.00    +0.000 N 
ATOM      4  C   UNL     1      -4.171  13.046  21.238  0.00  0.00    +0.000 A 
ATOM      5  C   UNL     1      -3.799  13.832  22.351  0.00  0.00    +0.000 A 
ATOM      6  C   UNL     1      -4.730  14.077  23.358  0.00  0.00    +0.000 A 
ATOM      7  C   UNL     1      -6.022  13.586  23.234  0.00  0.00    +0.000 A 
ATOM      8  C   UNL     1      -6.404  12.859  22.097  0.00  0.00    +0.000 A 
ATOM      9  C   UNL     1      -5.471  12.587  21.065  0.00  0.00    +0.000 A 
ATOM     10  C   UNL     1      -2.444  14.414  22.432  0.00  0.00    +0.000 C 
ATOM     11  O   UNL     1      -1.782  14.381  23.457  0.00  0.00    +0.000 OA
ATOM     12  N   UNL     1      -2.022  14.996  21.246  0.00  0.00    +0.000 N 
ATOM     13  C   UNL     1      -1.445  14.115  20.233  0.00  0.00    +0.000 C 
ATOM     14  C   UNL     1      -1.952  12.672  20.237  0.00  0.00    +0.000 C 
ATOM     15  H   UNL     1      -2.766  15.535  20.832  0.00  0.00    +0.000 HD
ENDROOT
BRANCH   2  16
ATOM     16  C   UNL     1      -3.723  11.339  17.968  0.00  0.00    +0.000 A 
ATOM     17  C   UNL     1      -2.630  10.456  17.924  0.00  0.00    +0.000 A 
ATOM     18  C   UNL     1      -2.195   9.893  16.717  0.00  0.00    +0.000 A 
ATOM     19  C   UNL     1      -2.883  10.168  15.546  0.00  0.00    +0.000 A 
ATOM     20  F   UNL     1      -2.505   9.587  14.401  0.00  0.00    +0.000 F 
ATOM     21  C   UNL     1      -3.954  11.047  15.549  0.00  0.00    +0.000 A 
ATOM     22  C   UNL     1      -4.333  11.669  16.745  0.00  0.00    +0.000 A 
ENDBRANCH   2  16
BRANCH   1  24
ATOM     23  C   UNL     1      -6.945   9.843  19.266  0.00  0.00    +0.000 C 
ATOM     24  C   UNL     1      -6.711  11.332  19.163  0.00  0.00    +0.000 C 
ATOM     25  O   UNL     1      -7.533  12.034  18.571  0.00  0.00    +0.000 OA
ENDBRANCH   1  24
TORSDOF 2
ENDMDL
