MODEL 1
REMARK VINA RESULT:      -7.8      0.000      0.000
REMARK  Name = 
REMARK  10 active torsions:
REMARK  status: ('A' for Active; 'I' for Inactive)
REMARK    1  A    between atoms: C_1  and  C_2
REMARK    2  A    between atoms: C_2  and  N_3
REMARK    3  A    between atoms: N_3  and  C_4
REMARK    4  A    between atoms: N_3  and  C_6
REMARK    5  A    between atoms: C_4  and  C_5
REMARK    6  A    between atoms: C_11  and  C_12
REMARK    7  A    between atoms: C_15  and  C_16
REMARK    8  A    between atoms: C_19  and  N_20
REMARK    9  A    between atoms: N_20  and  C_21
REMARK   10  A    between atoms: N_20  and  C_22
REMARK                            x       y       z     vdW  Elec       q    Type
REMARK                         _______ _______ _______ _____ _____    ______ ____
ROOT
ATOM      1  C   UNL     1      -1.096  11.758  22.499  0.00  0.00    +0.000 A 
ATOM      2  C   UNL     1      -1.051  10.611  23.324  0.00  0.00    +0.000 A 
ATOM      3  C   UNL     1      -0.403   9.425  22.951  0.00  0.00    +0.000 A 
ATOM      4  C   UNL     1       0.224   9.340  21.716  0.00  0.00    +0.000 A 
ATOM      5  C   UNL     1       0.952   8.162  21.285  0.00  0.00    +0.000 A 
ATOM      6  C   UNL     1       1.553   8.110  20.079  0.00  0.00    +0.000 A 
ATOM      7  C   UNL     1       1.418   9.271  19.141  0.00  0.00    +0.000 A 
ATOM      8  O   UNL     1       1.866   9.259  18.001  0.00  0.00    +0.000 OA
ATOM      9  O   UNL     1       0.768  10.406  19.614  0.00  0.00    +0.000 OA
ATOM     10  C   UNL     1       0.172  10.441  20.882  0.00  0.00    +0.000 A 
ATOM     11  C   UNL     1      -0.473  11.627  21.252  0.00  0.00    +0.000 A 
ENDROOT
BRANCH   6  12
ATOM     12  C   UNL     1       2.313   6.962  19.670  0.00  0.00    +0.000 A 
ATOM     13  C   UNL     1       2.470   5.799  20.393  0.00  0.00    +0.000 A 
ATOM     14  S   UNL     1       3.433   4.692  19.518  0.00  0.00    +0.000 S 
ATOM     15  C   UNL     1       3.558   5.823  18.220  0.00  0.00    +0.000 A 
ATOM     16  N   UNL     1       2.924   6.965  18.425  0.00  0.00    +0.000 NA
BRANCH  15  17
ATOM     17  C   UNL     1       4.353   5.518  17.020  0.00  0.00    +0.000 A 
ATOM     18  C   UNL     1       4.912   6.507  16.206  0.00  0.00    +0.000 A 
ATOM     19  C   UNL     1       5.651   6.168  15.060  0.00  0.00    +0.000 A 
ATOM     20  C   UNL     1       5.888   4.838  14.675  0.00  0.00    +0.000 A 
ATOM     21  C   UNL     1       5.322   3.861  15.508  0.00  0.00    +0.000 A 
ATOM     22  C   UNL     1       4.575   4.188  16.655  0.00  0.00    +0.000 A 
BRANCH  20  23
ATOM     23  N   UNL     1       6.584   4.533  13.513  0.00  0.00    +0.000 N 
ATOM     24  C   UNL     1       7.926   5.068  13.276  0.00  0.00    +0.000 C 
ATOM     25  C   UNL     1       6.263   3.360  12.701  0.00  0.00    +0.000 C 
ENDBRANCH  20  23
ENDBRANCH  15  17
ENDBRANCH   6  12
BRANCH   1  26
ATOM     26  N   UNL     1      -1.707  12.952  22.918  0.00  0.00    +0.000 N 
BRANCH  26  28
ATOM     27  C   UNL     1      -1.269  15.223  22.030  0.00  0.00    +0.000 C 
ATOM     28  C   UNL     1      -0.911  14.176  23.080  0.00  0.00    +0.000 C 
ENDBRANCH  26  28
BRANCH  26  29
ATOM     29  C   UNL     1      -3.180  12.981  22.974  0.00  0.00    +0.000 C 
ATOM     30  C   UNL     1      -3.825  13.432  24.272  0.00  0.00    +0.000 C 
ENDBRANCH  26  29
ENDBRANCH   1  26
TORSDOF 6
ENDMDL
MODEL 2
REMARK VINA RESULT:      -7.7      0.460      1.590
REMARK  Name = 
REMARK  10 active torsions:
REMARK  status: ('A' for Active; 'I' for Inactive)
REMARK    1  A    between atoms: C_1  and  C_2
REMARK    2  A    between atoms: C_2  and  N_3
REMARK    3  A    between atoms: N_3  and  C_4
REMARK    4  A    between atoms: N_3  and  C_6
REMARK    5  A    between atoms: C_4  and  C_5
REMARK    6  A    between atoms: C_11  and  C_12
REMARK    7  A    between atoms: C_15  and  C_16
REMARK    8  A    between atoms: C_19  and  N_20
REMARK    9  A    between atoms: N_20  and  C_21
REMARK   10  A    between atoms: N_20  and  C_22
REMARK                            x       y       z     vdW  Elec       q    Type
REMARK                         _______ _______ _______ _____ _____    ______ ____
ROOT
ATOM      1  C   UNL     1      -1.155  11.586  22.177  0.00  0.00    +0.000 A 
ATOM      2  C   UNL     1      -1.006  10.510  23.082  0.00  0.00    +0.000 A 
ATOM      3  C   UNL     1      -0.306   9.336  22.766  0.00  0.00    +0.000 A 
ATOM      4  C   UNL     1       0.270   9.192  21.511  0.00  0.00    +0.000 A 
ATOM      5  C   UNL     1       1.046   8.027  21.134  0.00  0.00    +0.000 A 
ATOM      6  C   UNL     1       1.593   7.915  19.908  0.00  0.00    +0.000 A 
ATOM      7  C   UNL     1       1.349   8.991  18.893  0.00  0.00    +0.000 A 
ATOM      8  O   UNL     1       1.745   8.917  17.737  0.00  0.00    +0.000 OA
ATOM      9  O   UNL     1       0.655  10.121  19.312  0.00  0.00    +0.000 OA
ATOM     10  C   UNL     1       0.115  10.221  20.602  0.00  0.00    +0.000 A 
ATOM     11  C   UNL     1      -0.581  11.394  20.915  0.00  0.00    +0.000 A 
ENDROOT
BRANCH   6  12
ATOM     12  C   UNL     1       2.401   6.783  19.548  0.00  0.00    +0.000 A 
ATOM     13  C   UNL     1       2.630   5.674  20.334  0.00  0.00    +0.000 A 
ATOM     14  S   UNL     1       3.629   4.565  19.501  0.00  0.00    +0.000 S 
ATOM     15  C   UNL     1       3.671   5.622  18.138  0.00  0.00    +0.000 A 
ATOM     16  N   UNL     1       2.985   6.742  18.291  0.00  0.00    +0.000 NA
BRANCH  15  17
ATOM     17  C   UNL     1       4.456   5.285  16.939  0.00  0.00    +0.000 A 
ATOM     18  C   UNL     1       4.546   3.988  16.428  0.00  0.00    +0.000 A 
ATOM     19  C   UNL     1       5.322   3.712  15.289  0.00  0.00    +0.000 A 
ATOM     20  C   UNL     1       6.027   4.706  14.591  0.00  0.00    +0.000 A 
ATOM     21  C   UNL     1       5.919   6.003  15.119  0.00  0.00    +0.000 A 
ATOM     22  C   UNL     1       5.151   6.290  16.262  0.00  0.00    +0.000 A 
BRANCH  20  23
ATOM     23  N   UNL     1       6.822   4.397  13.495  0.00  0.00    +0.000 N 
ATOM     24  C   UNL     1       6.360   3.458  12.472  0.00  0.00    +0.000 C 
ATOM     25  C   UNL     1       7.904   5.273  13.049  0.00  0.00    +0.000 C 
ENDBRANCH  20  23
ENDBRANCH  15  17
ENDBRANCH   6  12
BRANCH   1  26
ATOM     26  N   UNL     1      -1.816  12.773  22.535  0.00  0.00    +0.000 N 
BRANCH  26  28
ATOM     27  C   UNL     1      -3.865  13.862  23.404  0.00  0.00    +0.000 C 
ATOM     28  C   UNL     1      -2.821  12.769  23.608  0.00  0.00    +0.000 C 
ENDBRANCH  26  28
BRANCH  26  29
ATOM     29  C   UNL     1      -1.314  14.033  21.958  0.00  0.00    +0.000 C 
ATOM     30  C   UNL     1      -0.249  14.787  22.733  0.00  0.00    +0.000 C 
ENDBRANCH  26  29
ENDBRANCH   1  26
TORSDOF 6
ENDMDL
MODEL 3
REMARK VINA RESULT:      -7.7      3.189     11.274
REMARK  Name = 
REMARK  10 active torsions:
REMARK  status: ('A' for Active; 'I' for Inactive)
REMARK    1  A    between atoms: C_1  and  C_2
REMARK    2  A    between atoms: C_2  and  N_3
REMARK    3  A    between atoms: N_3  and  C_4
REMARK    4  A    between atoms: N_3  and  C_6
REMARK    5  A    between atoms: C_4  and  C_5
REMARK    6  A    between atoms: C_11  and  C_12
REMARK    7  A    between atoms: C_15  and  C_16
REMARK    8  A    between atoms: C_19  and  N_20
REMARK    9  A    between atoms: N_20  and  C_21
REMARK   10  A    between atoms: N_20  and  C_22
REMARK                            x       y       z     vdW  Elec       q    Type
REMARK                         _______ _______ _______ _____ _____    ______ ____
ROOT
ATOM      1  C   UNL     1       3.323   5.635  18.589  0.00  0.00    +0.000 A 
ATOM      2  C   UNL     1       3.311   6.638  17.592  0.00  0.00    +0.000 A 
ATOM      3  C   UNL     1       2.695   7.886  17.769  0.00  0.00    +0.000 A 
ATOM      4  C   UNL     1       2.052   8.175  18.964  0.00  0.00    +0.000 A 
ATOM      5  C   UNL     1       1.436   9.460  19.231  0.00  0.00    +0.000 A 
ATOM      6  C   UNL     1       0.819   9.712  20.402  0.00  0.00    +0.000 A 
ATOM      7  C   UNL     1       0.717   8.624  21.428  0.00  0.00    +0.000 A 
ATOM      8  O   UNL     1       0.100   8.757  22.478  0.00  0.00    +0.000 OA
ATOM      9  O   UNL     1       1.375   7.429  21.162  0.00  0.00    +0.000 OA
ATOM     10  C   UNL     1       2.029   7.201  19.944  0.00  0.00    +0.000 A 
ATOM     11  C   UNL     1       2.644   5.955  19.771  0.00  0.00    +0.000 A 
ENDROOT
BRANCH   6  12
ATOM     12  C   UNL     1       0.248  11.000  20.686  0.00  0.00    +0.000 A 
ATOM     13  C   UNL     1       0.847  12.218  20.446  0.00  0.00    +0.000 A 
ATOM     14  S   UNL     1      -0.198  13.486  20.917  0.00  0.00    +0.000 S 
ATOM     15  C   UNL     1      -1.392  12.330  21.385  0.00  0.00    +0.000 A 
ATOM     16  N   UNL     1      -1.034  11.070  21.209  0.00  0.00    +0.000 NA
BRANCH  15  17
ATOM     17  C   UNL     1      -2.673  12.756  21.972  0.00  0.00    +0.000 A 
ATOM     18  C   UNL     1      -3.652  13.439  21.247  0.00  0.00    +0.000 A 
ATOM     19  C   UNL     1      -4.854  13.841  21.854  0.00  0.00    +0.000 A 
ATOM     20  C   UNL     1      -5.152  13.569  23.200  0.00  0.00    +0.000 A 
ATOM     21  C   UNL     1      -4.157  12.879  23.909  0.00  0.00    +0.000 A 
ATOM     22  C   UNL     1      -2.947  12.478  23.313  0.00  0.00    +0.000 A 
BRANCH  20  23
ATOM     23  N   UNL     1      -6.329  14.017  23.787  0.00  0.00    +0.000 N 
ATOM     24  C   UNL     1      -6.694  15.434  23.753  0.00  0.00    +0.000 C 
ATOM     25  C   UNL     1      -7.454  13.122  24.051  0.00  0.00    +0.000 C 
ENDBRANCH  20  23
ENDBRANCH  15  17
ENDBRANCH   6  12
BRANCH   1  26
ATOM     26  N   UNL     1       3.992   4.413  18.408  0.00  0.00    +0.000 N 
BRANCH  26  28
ATOM     27  C   UNL     1       3.487   2.040  17.907  0.00  0.00    +0.000 C 
ATOM     28  C   UNL     1       3.544   3.468  17.376  0.00  0.00    +0.000 C 
ENDBRANCH  26  28
BRANCH  26  29
ATOM     29  C   UNL     1       5.264   4.219  19.127  0.00  0.00    +0.000 C 
ATOM     30  C   UNL     1       6.240   5.381  19.155  0.00  0.00    +0.000 C 
ENDBRANCH  26  29
ENDBRANCH   1  26
TORSDOF 6
ENDMDL
MODEL 4
REMARK VINA RESULT:      -7.7      2.915     10.959
REMARK  Name = 
REMARK  10 active torsions:
REMARK  status: ('A' for Active; 'I' for Inactive)
REMARK    1  A    between atoms: C_1  and  C_2
REMARK    2  A    between atoms: C_2  and  N_3
REMARK    3  A    between atoms: N_3  and  C_4
REMARK    4  A    between atoms: N_3  and  C_6
REMARK    5  A    between atoms: C_4  and  C_5
REMARK    6  A    between atoms: C_11  and  C_12
REMARK    7  A    between atoms: C_15  and  C_16
REMARK    8  A    between atoms: C_19  and  N_20
REMARK    9  A    between atoms: N_20  and  C_21
REMARK   10  A    between atoms: N_20  and  C_22
REMARK                            x       y       z     vdW  Elec       q    Type
REMARK                         _______ _______ _______ _____ _____    ______ ____
ROOT
ATOM      1  C   UNL     1       2.704   4.796  18.944  0.00  0.00    +0.000 A 
ATOM      2  C   UNL     1       2.376   4.875  20.317  0.00  0.00    +0.000 A 
ATOM      3  C   UNL     1       1.919   6.052  20.928  0.00  0.00    +0.000 A 
ATOM      4  C   UNL     1       1.781   7.211  20.177  0.00  0.00    +0.000 A 
ATOM      5  C   UNL     1       1.271   8.449  20.734  0.00  0.00    +0.000 A 
ATOM      6  C   UNL     1       1.148   9.559  19.979  0.00  0.00    +0.000 A 
ATOM      7  C   UNL     1       1.600   9.530  18.550  0.00  0.00    +0.000 A 
ATOM      8  O   UNL     1       1.594  10.521  17.832  0.00  0.00    +0.000 OA
ATOM      9  O   UNL     1       2.023   8.309  18.036  0.00  0.00    +0.000 OA
ATOM     10  C   UNL     1       2.120   7.164  18.838  0.00  0.00    +0.000 A 
ATOM     11  C   UNL     1       2.574   5.991  18.225  0.00  0.00    +0.000 A 
ENDROOT
BRANCH   6  12
ATOM     12  C   UNL     1       0.599  10.773  20.517  0.00  0.00    +0.000 A 
ATOM     13  C   UNL     1       1.262  11.976  20.632  0.00  0.00    +0.000 A 
ATOM     14  S   UNL     1       0.222  13.154  21.305  0.00  0.00    +0.000 S 
ATOM     15  C   UNL     1      -1.052  11.992  21.375  0.00  0.00    +0.000 A 
ATOM     16  N   UNL     1      -0.725  10.791  20.929  0.00  0.00    +0.000 NA
BRANCH  15  17
ATOM     17  C   UNL     1      -2.368  12.340  21.935  0.00  0.00    +0.000 A 
ATOM     18  C   UNL     1      -3.414  12.848  21.161  0.00  0.00    +0.000 A 
ATOM     19  C   UNL     1      -4.649  13.182  21.744  0.00  0.00    +0.000 A 
ATOM     20  C   UNL     1      -4.913  13.012  23.113  0.00  0.00    +0.000 A 
ATOM     21  C   UNL     1      -3.850  12.497  23.871  0.00  0.00    +0.000 A 
ATOM     22  C   UNL     1      -2.608  12.165  23.300  0.00  0.00    +0.000 A 
BRANCH  20  23
ATOM     23  N   UNL     1      -6.127  13.392  23.670  0.00  0.00    +0.000 N 
ATOM     24  C   UNL     1      -6.517  14.802  23.734  0.00  0.00    +0.000 C 
ATOM     25  C   UNL     1      -7.248  12.462  23.797  0.00  0.00    +0.000 C 
ENDBRANCH  20  23
ENDBRANCH  15  17
ENDBRANCH   6  12
BRANCH   1  26
ATOM     26  N   UNL     1       3.109   3.592  18.344  0.00  0.00    +0.000 N 
BRANCH  26  28
ATOM     27  C   UNL     1       0.934   2.467  18.724  0.00  0.00    +0.000 C 
ATOM     28  C   UNL     1       2.113   2.672  17.778  0.00  0.00    +0.000 C 
ENDBRANCH  26  28
BRANCH  26  29
ATOM     29  C   UNL     1       4.552   3.397  18.113  0.00  0.00    +0.000 C 
ATOM     30  C   UNL     1       5.166   4.072  16.899  0.00  0.00    +0.000 C 
ENDBRANCH  26  29
ENDBRANCH   1  26
TORSDOF 6
ENDMDL
MODEL 5
REMARK VINA RESULT:      -7.7      3.212     11.019
REMARK  Name = 
REMARK  10 active torsions:
REMARK  status: ('A' for Active; 'I' for Inactive)
REMARK    1  A    between atoms: C_1  and  C_2
REMARK    2  A    between atoms: C_2  and  N_3
REMARK    3  A    between atoms: N_3  and  C_4
REMARK    4  A    between atoms: N_3  and  C_6
REMARK    5  A    between atoms: C_4  and  C_5
REMARK    6  A    between atoms: C_11  and  C_12
REMARK    7  A    between atoms: C_15  and  C_16
REMARK    8  A    between atoms: C_19  and  N_20
REMARK    9  A    between atoms: N_20  and  C_21
REMARK   10  A    between atoms: N_20  and  C_22
REMARK                            x       y       z     vdW  Elec       q    Type
REMARK                         _______ _______ _______ _____ _____    ______ ____
ROOT
ATOM      1  C   UNL     1       4.027   5.602  18.513  0.00  0.00    +0.000 A 
ATOM      2  C   UNL     1       3.970   6.409  17.354  0.00  0.00    +0.000 A 
ATOM      3  C   UNL     1       3.206   7.582  17.275  0.00  0.00    +0.000 A 
ATOM      4  C   UNL     1       2.452   7.989  18.367  0.00  0.00    +0.000 A 
ATOM      5  C   UNL     1       1.676   9.214  18.371  0.00  0.00    +0.000 A 
ATOM      6  C   UNL     1       0.954   9.585  19.447  0.00  0.00    +0.000 A 
ATOM      7  C   UNL     1       0.906   8.684  20.644  0.00  0.00    +0.000 A 
ATOM      8  O   UNL     1       0.207   8.916  21.622  0.00  0.00    +0.000 OA
ATOM      9  O   UNL     1       1.713   7.552  20.628  0.00  0.00    +0.000 OA
ATOM     10  C   UNL     1       2.472   7.202  19.503  0.00  0.00    +0.000 A 
ATOM     11  C   UNL     1       3.236   6.032  19.585  0.00  0.00    +0.000 A 
ENDROOT
BRANCH   6  12
ATOM     12  C   UNL     1       0.222  10.821  19.469  0.00  0.00    +0.000 A 
ATOM     13  C   UNL     1       0.645  12.018  18.934  0.00  0.00    +0.000 A 
ATOM     14  S   UNL     1      -0.551  13.217  19.167  0.00  0.00    +0.000 S 
ATOM     15  C   UNL     1      -1.566  12.057  19.942  0.00  0.00    +0.000 A 
ATOM     16  N   UNL     1      -1.046  10.844  20.030  0.00  0.00    +0.000 NA
BRANCH  15  17
ATOM     17  C   UNL     1      -2.879  12.439  20.487  0.00  0.00    +0.000 A 
ATOM     18  C   UNL     1      -3.072  12.804  21.822  0.00  0.00    +0.000 A 
ATOM     19  C   UNL     1      -4.348  13.146  22.302  0.00  0.00    +0.000 A 
ATOM     20  C   UNL     1      -5.488  13.162  21.481  0.00  0.00    +0.000 A 
ATOM     21  C   UNL     1      -5.271  12.797  20.143  0.00  0.00    +0.000 A 
ATOM     22  C   UNL     1      -4.000  12.446  19.654  0.00  0.00    +0.000 A 
BRANCH  20  23
ATOM     23  N   UNL     1      -6.744  13.461  21.992  0.00  0.00    +0.000 N 
ATOM     24  C   UNL     1      -7.915  12.662  21.626  0.00  0.00    +0.000 C 
ATOM     25  C   UNL     1      -6.919  14.241  23.216  0.00  0.00    +0.000 C 
ENDBRANCH  20  23
ENDBRANCH  15  17
ENDBRANCH   6  12
BRANCH   1  26
ATOM     26  N   UNL     1       4.842   4.460  18.585  0.00  0.00    +0.000 N 
BRANCH  26  28
ATOM     27  C   UNL     1       3.253   2.709  17.844  0.00  0.00    +0.000 C 
ATOM     28  C   UNL     1       4.258   3.149  18.903  0.00  0.00    +0.000 C 
ENDBRANCH  26  28
BRANCH  26  29
ATOM     29  C   UNL     1       6.237   4.587  18.124  0.00  0.00    +0.000 C 
ATOM     30  C   UNL     1       7.149   5.526  18.893  0.00  0.00    +0.000 C 
ENDBRANCH  26  29
ENDBRANCH   1  26
TORSDOF 6
ENDMDL
MODEL 6
REMARK VINA RESULT:      -7.6      2.957     10.911
REMARK  Name = 
REMARK  10 active torsions:
REMARK  status: ('A' for Active; 'I' for Inactive)
REMARK    1  A    between atoms: C_1  and  C_2
REMARK    2  A    between atoms: C_2  and  N_3
REMARK    3  A    between atoms: N_3  and  C_4
REMARK    4  A    between atoms: N_3  and  C_6
REMARK    5  A    between atoms: C_4  and  C_5
REMARK    6  A    between atoms: C_11  and  C_12
REMARK    7  A    between atoms: C_15  and  C_16
REMARK    8  A    between atoms: C_19  and  N_20
REMARK    9  A    between atoms: N_20  and  C_21
REMARK   10  A    between atoms: N_20  and  C_22
REMARK                            x       y       z     vdW  Elec       q    Type
REMARK                         _______ _______ _______ _____ _____    ______ ____
ROOT
ATOM      1  C   UNL     1       2.871   5.238  18.413  0.00  0.00    +0.000 A 
ATOM      2  C   UNL     1       2.390   5.167  19.741  0.00  0.00    +0.000 A 
ATOM      3  C   UNL     1       1.861   6.272  20.423  0.00  0.00    +0.000 A 
ATOM      4  C   UNL     1       1.803   7.508  19.795  0.00  0.00    +0.000 A 
ATOM      5  C   UNL     1       1.227   8.681  20.425  0.00  0.00    +0.000 A 
ATOM      6  C   UNL     1       1.183   9.869  19.789  0.00  0.00    +0.000 A 
ATOM      7  C   UNL     1       1.793   9.995  18.426  0.00  0.00    +0.000 A 
ATOM      8  O   UNL     1       1.864  11.060  17.826  0.00  0.00    +0.000 OA
ATOM      9  O   UNL     1       2.278   8.835  17.830  0.00  0.00    +0.000 OA
ATOM     10  C   UNL     1       2.290   7.607  18.506  0.00  0.00    +0.000 A 
ATOM     11  C   UNL     1       2.816   6.506  17.821  0.00  0.00    +0.000 A 
ENDROOT
BRANCH   6  12
ATOM     12  C   UNL     1       0.571  11.019  20.393  0.00  0.00    +0.000 A 
ATOM     13  C   UNL     1       1.220  12.180  20.757  0.00  0.00    +0.000 A 
ATOM     14  S   UNL     1       0.102  13.291  21.418  0.00  0.00    +0.000 S 
ATOM     15  C   UNL     1      -1.178  12.165  21.152  0.00  0.00    +0.000 A 
ATOM     16  N   UNL     1      -0.798  11.021  20.608  0.00  0.00    +0.000 NA
BRANCH  15  17
ATOM     17  C   UNL     1      -2.559  12.475  21.556  0.00  0.00    +0.000 A 
ATOM     18  C   UNL     1      -2.973  12.507  22.890  0.00  0.00    +0.000 A 
ATOM     19  C   UNL     1      -4.307  12.792  23.227  0.00  0.00    +0.000 A 
ATOM     20  C   UNL     1      -5.289  13.077  22.264  0.00  0.00    +0.000 A 
ATOM     21  C   UNL     1      -4.852  13.044  20.930  0.00  0.00    +0.000 A 
ATOM     22  C   UNL     1      -3.520  12.753  20.581  0.00  0.00    +0.000 A 
BRANCH  20  23
ATOM     23  N   UNL     1      -6.610  13.311  22.623  0.00  0.00    +0.000 N 
ATOM     24  C   UNL     1      -7.625  13.605  21.610  0.00  0.00    +0.000 C 
ATOM     25  C   UNL     1      -7.161  12.851  23.897  0.00  0.00    +0.000 C 
ENDBRANCH  20  23
ENDBRANCH  15  17
ENDBRANCH   6  12
BRANCH   1  26
ATOM     26  N   UNL     1       3.347   4.105  17.732  0.00  0.00    +0.000 N 
BRANCH  26  28
ATOM     27  C   UNL     1       5.788   4.486  17.925  0.00  0.00    +0.000 C 
ATOM     28  C   UNL     1       4.620   4.159  17.000  0.00  0.00    +0.000 C 
ENDBRANCH  26  28
BRANCH  26  29
ATOM     29  C   UNL     1       2.646   2.829  17.959  0.00  0.00    +0.000 C 
ATOM     30  C   UNL     1       3.426   1.706  18.620  0.00  0.00    +0.000 C 
ENDBRANCH  26  29
ENDBRANCH   1  26
TORSDOF 6
ENDMDL
MODEL 7
REMARK VINA RESULT:      -7.6      3.121     11.230
REMARK  Name = 
REMARK  10 active torsions:
REMARK  status: ('A' for Active; 'I' for Inactive)
REMARK    1  A    between atoms: C_1  and  C_2
REMARK    2  A    between atoms: C_2  and  N_3
REMARK    3  A    between atoms: N_3  and  C_4
REMARK    4  A    between atoms: N_3  and  C_6
REMARK    5  A    between atoms: C_4  and  C_5
REMARK    6  A    between atoms: C_11  and  C_12
REMARK    7  A    between atoms: C_15  and  C_16
REMARK    8  A    between atoms: C_19  and  N_20
REMARK    9  A    between atoms: N_20  and  C_21
REMARK   10  A    between atoms: N_20  and  C_22
REMARK                            x       y       z     vdW  Elec       q    Type
REMARK                         _______ _______ _______ _____ _____    ______ ____
ROOT
ATOM      1  C   UNL     1       3.429   5.740  18.514  0.00  0.00    +0.000 A 
ATOM      2  C   UNL     1       3.426   6.768  17.544  0.00  0.00    +0.000 A 
ATOM      3  C   UNL     1       2.785   8.001  17.737  0.00  0.00    +0.000 A 
ATOM      4  C   UNL     1       2.106   8.248  18.922  0.00  0.00    +0.000 A 
ATOM      5  C   UNL     1       1.462   9.515  19.206  0.00  0.00    +0.000 A 
ATOM      6  C   UNL     1       0.811   9.727  20.368  0.00  0.00    +0.000 A 
ATOM      7  C   UNL     1       0.702   8.610  21.362  0.00  0.00    +0.000 A 
ATOM      8  O   UNL     1       0.056   8.705  22.398  0.00  0.00    +0.000 OA
ATOM      9  O   UNL     1       1.386   7.433  21.082  0.00  0.00    +0.000 OA
ATOM     10  C   UNL     1       2.075   7.248  19.875  0.00  0.00    +0.000 A 
ATOM     11  C   UNL     1       2.715   6.018  19.687  0.00  0.00    +0.000 A 
ENDROOT
BRANCH   6  12
ATOM     12  C   UNL     1       0.212  10.997  20.670  0.00  0.00    +0.000 A 
ATOM     13  C   UNL     1       0.824  12.226  20.551  0.00  0.00    +0.000 A 
ATOM     14  S   UNL     1      -0.265  13.466  20.996  0.00  0.00    +0.000 S 
ATOM     15  C   UNL     1      -1.489  12.287  21.293  0.00  0.00    +0.000 A 
ATOM     16  N   UNL     1      -1.112  11.038  21.080  0.00  0.00    +0.000 NA
BRANCH  15  17
ATOM     17  C   UNL     1      -2.819  12.681  21.786  0.00  0.00    +0.000 A 
ATOM     18  C   UNL     1      -3.831  13.157  20.949  0.00  0.00    +0.000 A 
ATOM     19  C   UNL     1      -5.081  13.537  21.468  0.00  0.00    +0.000 A 
ATOM     20  C   UNL     1      -5.395  13.445  22.834  0.00  0.00    +0.000 A 
ATOM     21  C   UNL     1      -4.366  12.961  23.657  0.00  0.00    +0.000 A 
ATOM     22  C   UNL     1      -3.109  12.584  23.149  0.00  0.00    +0.000 A 
BRANCH  20  23
ATOM     23  N   UNL     1      -6.623  13.870  23.325  0.00  0.00    +0.000 N 
ATOM     24  C   UNL     1      -7.623  12.906  23.788  0.00  0.00    +0.000 C 
ATOM     25  C   UNL     1      -6.829  15.226  23.832  0.00  0.00    +0.000 C 
ENDBRANCH  20  23
ENDBRANCH  15  17
ENDBRANCH   6  12
BRANCH   1  26
ATOM     26  N   UNL     1       4.123   4.534  18.319  0.00  0.00    +0.000 N 
BRANCH  26  28
ATOM     27  C   UNL     1       4.483   2.678  19.921  0.00  0.00    +0.000 C 
ATOM     28  C   UNL     1       5.000   4.003  19.371  0.00  0.00    +0.000 C 
ENDBRANCH  26  28
BRANCH  26  29
ATOM     29  C   UNL     1       3.772   3.731  17.133  0.00  0.00    +0.000 C 
ATOM     30  C   UNL     1       2.370   3.152  17.066  0.00  0.00    +0.000 C 
ENDBRANCH  26  29
ENDBRANCH   1  26
TORSDOF 6
ENDMDL
MODEL 8
REMARK VINA RESULT:      -7.5      3.207      4.461
REMARK  Name = 
REMARK  10 active torsions:
REMARK  status: ('A' for Active; 'I' for Inactive)
REMARK    1  A    between atoms: C_1  and  C_2
REMARK    2  A    between atoms: C_2  and  N_3
REMARK    3  A    between atoms: N_3  and  C_4
REMARK    4  A    between atoms: N_3  and  C_6
REMARK    5  A    between atoms: C_4  and  C_5
REMARK    6  A    between atoms: C_11  and  C_12
REMARK    7  A    between atoms: C_15  and  C_16
REMARK    8  A    between atoms: C_19  and  N_20
REMARK    9  A    between atoms: N_20  and  C_21
REMARK   10  A    between atoms: N_20  and  C_22
REMARK                            x       y       z     vdW  Elec       q    Type
REMARK                         _______ _______ _______ _____ _____    ______ ____
ROOT
ATOM      1  C   UNL     1      -3.682  13.701  22.769  0.00  0.00    +0.000 A 
ATOM      2  C   UNL     1      -3.704  13.891  21.368  0.00  0.00    +0.000 A 
ATOM      3  C   UNL     1      -2.847  13.213  20.490  0.00  0.00    +0.000 A 
ATOM      4  C   UNL     1      -1.916  12.313  20.991  0.00  0.00    +0.000 A 
ATOM      5  C   UNL     1      -1.032  11.544  20.137  0.00  0.00    +0.000 A 
ATOM      6  C   UNL     1      -0.138  10.676  20.653  0.00  0.00    +0.000 A 
ATOM      7  C   UNL     1      -0.017  10.545  22.141  0.00  0.00    +0.000 A 
ATOM      8  O   UNL     1       0.827   9.840  22.679  0.00  0.00    +0.000 OA
ATOM      9  O   UNL     1      -0.925  11.250  22.923  0.00  0.00    +0.000 OA
ATOM     10  C   UNL     1      -1.859  12.129  22.359  0.00  0.00    +0.000 A 
ATOM     11  C   UNL     1      -2.715  12.803  23.238  0.00  0.00    +0.000 A 
ENDROOT
BRANCH   6  12
ATOM     12  C   UNL     1       0.706   9.879  19.807  0.00  0.00    +0.000 A 
ATOM     13  C   UNL     1       1.338  10.312  18.661  0.00  0.00    +0.000 A 
ATOM     14  S   UNL     1       2.257   9.040  17.985  0.00  0.00    +0.000 S 
ATOM     15  C   UNL     1       1.775   8.002  19.276  0.00  0.00    +0.000 A 
ATOM     16  N   UNL     1       0.970   8.565  20.161  0.00  0.00    +0.000 NA
BRANCH  15  17
ATOM     17  C   UNL     1       2.211   6.597  19.326  0.00  0.00    +0.000 A 
ATOM     18  C   UNL     1       1.985   5.768  20.428  0.00  0.00    +0.000 A 
ATOM     19  C   UNL     1       2.435   4.437  20.437  0.00  0.00    +0.000 A 
ATOM     20  C   UNL     1       3.112   3.857  19.351  0.00  0.00    +0.000 A 
ATOM     21  C   UNL     1       3.325   4.706  18.253  0.00  0.00    +0.000 A 
ATOM     22  C   UNL     1       2.885   6.042  18.236  0.00  0.00    +0.000 A 
BRANCH  20  23
ATOM     23  N   UNL     1       3.585   2.553  19.404  0.00  0.00    +0.000 N 
ATOM     24  C   UNL     1       3.425   1.646  18.266  0.00  0.00    +0.000 C 
ATOM     25  C   UNL     1       4.625   2.142  20.346  0.00  0.00    +0.000 C 
ENDBRANCH  20  23
ENDBRANCH  15  17
ENDBRANCH   6  12
BRANCH   1  26
ATOM     26  N   UNL     1      -4.586  14.353  23.623  0.00  0.00    +0.000 N 
BRANCH  26  28
ATOM     27  C   UNL     1      -3.425  16.528  23.862  0.00  0.00    +0.000 C 
ATOM     28  C   UNL     1      -4.111  15.368  24.574  0.00  0.00    +0.000 C 
ENDBRANCH  26  28
BRANCH  26  29
ATOM     29  C   UNL     1      -6.025  14.143  23.381  0.00  0.00    +0.000 C 
ATOM     30  C   UNL     1      -6.678  12.935  24.029  0.00  0.00    +0.000 C 
ENDBRANCH  26  29
ENDBRANCH   1  26
TORSDOF 6
ENDMDL
MODEL 9
REMARK VINA RESULT:      -7.5      3.390     10.779
REMARK  Name = 
REMARK  10 active torsions:
REMARK  status: ('A' for Active; 'I' for Inactive)
REMARK    1  A    between atoms: C_1  and  C_2
REMARK    2  A    between atoms: C_2  and  N_3
REMARK    3  A    between atoms: N_3  and  C_4
REMARK    4  A    between atoms: N_3  and  C_6
REMARK    5  A    between atoms: C_4  and  C_5
REMARK    6  A    between atoms: C_11  and  C_12
REMARK    7  A    between atoms: C_15  and  C_16
REMARK    8  A    between atoms: C_19  and  N_20
REMARK    9  A    between atoms: N_20  and  C_21
REMARK   10  A    between atoms: N_20  and  C_22
REMARK                            x       y       z     vdW  Elec       q    Type
REMARK                         _______ _______ _______ _____ _____    ______ ____
ROOT
ATOM      1  C   UNL     1       3.359   5.318  18.617  0.00  0.00    +0.000 A 
ATOM      2  C   UNL     1       2.649   5.220  19.836  0.00  0.00    +0.000 A 
ATOM      3  C   UNL     1       1.909   6.281  20.378  0.00  0.00    +0.000 A 
ATOM      4  C   UNL     1       1.860   7.499  19.714  0.00  0.00    +0.000 A 
ATOM      5  C   UNL     1       1.078   8.622  20.193  0.00  0.00    +0.000 A 
ATOM      6  C   UNL     1       1.049   9.793  19.526  0.00  0.00    +0.000 A 
ATOM      7  C   UNL     1       1.888   9.957  18.294  0.00  0.00    +0.000 A 
ATOM      8  O   UNL     1       1.975  11.016  17.687  0.00  0.00    +0.000 OA
ATOM      9  O   UNL     1       2.573   8.839  17.832  0.00  0.00    +0.000 OA
ATOM     10  C   UNL     1       2.567   7.626  18.534  0.00  0.00    +0.000 A 
ATOM     11  C   UNL     1       3.305   6.569  17.989  0.00  0.00    +0.000 A 
ENDROOT
BRANCH   6  12
ATOM     12  C   UNL     1       0.238  10.891  19.975  0.00  0.00    +0.000 A 
ATOM     13  C   UNL     1       0.674  11.960  20.726  0.00  0.00    +0.000 A 
ATOM     14  S   UNL     1      -0.620  13.040  21.012  0.00  0.00    +0.000 S 
ATOM     15  C   UNL     1      -1.671  12.025  20.093  0.00  0.00    +0.000 A 
ATOM     16  N   UNL     1      -1.097  10.939  19.604  0.00  0.00    +0.000 NA
BRANCH  15  17
ATOM     17  C   UNL     1      -3.096  12.356  19.931  0.00  0.00    +0.000 A 
ATOM     18  C   UNL     1      -3.881  11.850  18.891  0.00  0.00    +0.000 A 
ATOM     19  C   UNL     1      -5.235  12.208  18.766  0.00  0.00    +0.000 A 
ATOM     20  C   UNL     1      -5.880  13.064  19.674  0.00  0.00    +0.000 A 
ATOM     21  C   UNL     1      -5.075  13.557  20.713  0.00  0.00    +0.000 A 
ATOM     22  C   UNL     1      -3.718  13.212  20.843  0.00  0.00    +0.000 A 
BRANCH  20  23
ATOM     23  N   UNL     1      -7.207  13.436  19.501  0.00  0.00    +0.000 N 
ATOM     24  C   UNL     1      -7.917  14.196  20.531  0.00  0.00    +0.000 C 
ATOM     25  C   UNL     1      -7.826  13.512  18.178  0.00  0.00    +0.000 C 
ENDBRANCH  20  23
ENDBRANCH  15  17
ENDBRANCH   6  12
BRANCH   1  26
ATOM     26  N   UNL     1       4.050   4.225  18.068  0.00  0.00    +0.000 N 
BRANCH  26  28
ATOM     27  C   UNL     1       3.384   1.849  18.293  0.00  0.00    +0.000 C 
ATOM     28  C   UNL     1       3.312   3.116  17.447  0.00  0.00    +0.000 C 
ENDBRANCH  26  28
BRANCH  26  29
ATOM     29  C   UNL     1       5.515   4.336  17.946  0.00  0.00    +0.000 C 
ATOM     30  C   UNL     1       6.115   4.220  16.556  0.00  0.00    +0.000 C 
ENDBRANCH  26  29
ENDBRANCH   1  26
TORSDOF 6
ENDMDL
