MODEL 1
REMARK VINA RESULT:      -8.6      0.000      0.000
REMARK  Name = 
REMARK  3 active torsions:
REMARK  status: ('A' for Active; 'I' for Inactive)
REMARK    1  A    between atoms: N_3  and  C_4
REMARK    2  A    between atoms: C_7  and  C_8
REMARK    3  A    between atoms: C_12  and  C_14
REMARK                            x       y       z     vdW  Elec       q    Type
REMARK                         _______ _______ _______ _____ _____    ______ ____
ROOT
ATOM      1  C   UNL     1      -0.622  10.911  22.034  0.00  0.00    +0.000 A 
ATOM      2  C   UNL     1       0.057   9.832  22.592  0.00  0.00    +0.000 A 
ATOM      3  C   UNL     1       0.812   8.998  21.759  0.00  0.00    +0.000 A 
ATOM      4  C   UNL     1       0.876   9.263  20.392  0.00  0.00    +0.000 A 
ATOM      5  N   UNL     1       0.247  10.323  19.829  0.00  0.00    +0.000 NA
ATOM      6  C   UNL     1      -0.496  11.093  20.658  0.00  0.00    +0.000 A 
ENDROOT
BRANCH   1   9
ATOM      7  O   UNL     1      -0.094  13.716  22.878  0.00  0.00    +0.000 OA
ATOM      8  C   UNL     1      -1.141  13.124  23.123  0.00  0.00    +0.000 C 
ATOM      9  N   UNL     1      -1.418  11.823  22.761  0.00  0.00    +0.000 N 
ATOM     10  N   UNL     1      -2.163  13.741  23.806  0.00  0.00    +0.000 N 
ATOM     11  C   UNL     1      -3.540  13.272  23.948  0.00  0.00    +0.000 C 
ATOM     12  C   UNL     1      -4.278  14.540  24.195  0.00  0.00    +0.000 A 
ATOM     13  C   UNL     1      -5.526  14.942  23.779  0.00  0.00    +0.000 A 
ATOM     14  C   UNL     1      -5.864  16.255  24.065  0.00  0.00    +0.000 A 
ATOM     15  N   UNL     1      -5.113  17.101  24.819  0.00  0.00    +0.000 NA
ATOM     16  C   UNL     1      -3.869  16.698  25.148  0.00  0.00    +0.000 A 
ATOM     17  C   UNL     1      -3.400  15.484  24.720  0.00  0.00    +0.000 A 
ATOM     18  C   UNL     1      -2.019  15.127  24.261  0.00  0.00    +0.000 C 
ATOM     19  H   UNL     1      -2.271  11.440  23.127  0.00  0.00    +0.000 HD
ENDBRANCH   1   9
BRANCH   4  20
ATOM     20  C   UNL     1       1.650   8.422  19.458  0.00  0.00    +0.000 C 
ATOM     21  C   UNL     1       2.062   8.840  18.256  0.00  0.00    +0.000 C 
ATOM     22  C   UNL     1       2.892   8.034  17.291  0.00  0.00    +0.000 C 
ATOM     23  N   UNL     1       3.344   6.782  17.890  0.00  0.00    +0.000 N 
ATOM     24  C   UNL     1       4.519   6.216  17.398  0.00  0.00    +0.000 C 
ATOM     25  O   UNL     1       5.135   6.769  16.481  0.00  0.00    +0.000 OA
ATOM     26  C   UNL     1       2.376   6.121  18.761  0.00  0.00    +0.000 C 
ATOM     27  C   UNL     1       1.993   7.031  19.935  0.00  0.00    +0.000 C 
BRANCH  24  28
ATOM     28  C   UNL     1       5.108   4.963  18.115  0.00  0.00    +0.000 C 
ATOM     29  C   UNL     1       5.946   5.379  19.340  0.00  0.00    +0.000 C 
ATOM     30  O   UNL     1       7.244   5.871  18.964  0.00  0.00    +0.000 OA
ATOM     31  C   UNL     1       7.947   4.898  18.191  0.00  0.00    +0.000 C 
ATOM     32  C   UNL     1       7.131   4.477  16.973  0.00  0.00    +0.000 C 
ATOM     33  O   UNL     1       5.836   3.999  17.351  0.00  0.00    +0.000 OA
ENDBRANCH  24  28
ENDBRANCH   4  20
TORSDOF 3
ENDMDL
MODEL 2
REMARK VINA RESULT:      -8.3      2.519     12.318
REMARK  Name = 
REMARK  3 active torsions:
REMARK  status: ('A' for Active; 'I' for Inactive)
REMARK    1  A    between atoms: N_3  and  C_4
REMARK    2  A    between atoms: C_7  and  C_8
REMARK    3  A    between atoms: C_12  and  C_14
REMARK                            x       y       z     vdW  Elec       q    Type
REMARK                         _______ _______ _______ _____ _____    ______ ____
ROOT
ATOM      1  C   UNL     1       1.427   8.532  20.078  0.00  0.00    +0.000 A 
ATOM      2  C   UNL     1       0.784   8.459  21.310  0.00  0.00    +0.000 A 
ATOM      3  C   UNL     1      -0.110   9.472  21.671  0.00  0.00    +0.000 A 
ATOM      4  C   UNL     1      -0.346  10.530  20.795  0.00  0.00    +0.000 A 
ATOM      5  N   UNL     1       0.246  10.610  19.579  0.00  0.00    +0.000 NA
ATOM      6  C   UNL     1       1.125   9.628  19.272  0.00  0.00    +0.000 A 
ENDROOT
BRANCH   1   9
ATOM      7  O   UNL     1       2.510   8.078  17.342  0.00  0.00    +0.000 OA
ATOM      8  C   UNL     1       2.839   7.408  18.318  0.00  0.00    +0.000 C 
ATOM      9  N   UNL     1       2.351   7.580  19.596  0.00  0.00    +0.000 N 
ATOM     10  N   UNL     1       3.761   6.393  18.205  0.00  0.00    +0.000 N 
ATOM     11  C   UNL     1       4.436   5.689  19.292  0.00  0.00    +0.000 C 
ATOM     12  C   UNL     1       5.680   5.212  18.630  0.00  0.00    +0.000 A 
ATOM     13  C   UNL     1       6.963   5.102  19.112  0.00  0.00    +0.000 A 
ATOM     14  C   UNL     1       7.930   4.752  18.184  0.00  0.00    +0.000 A 
ATOM     15  N   UNL     1       7.675   4.398  16.897  0.00  0.00    +0.000 NA
ATOM     16  C   UNL     1       6.420   4.586  16.440  0.00  0.00    +0.000 A 
ATOM     17  C   UNL     1       5.461   5.121  17.258  0.00  0.00    +0.000 A 
ATOM     18  C   UNL     1       4.370   6.086  16.907  0.00  0.00    +0.000 C 
ATOM     19  H   UNL     1       2.630   6.886  20.266  0.00  0.00    +0.000 HD
ENDBRANCH   1   9
BRANCH   4  20
ATOM     20  C   UNL     1      -1.273  11.633  21.116  0.00  0.00    +0.000 C 
ATOM     21  C   UNL     1      -1.922  12.346  20.189  0.00  0.00    +0.000 C 
ATOM     22  C   UNL     1      -2.911  13.447  20.472  0.00  0.00    +0.000 C 
ATOM     23  N   UNL     1      -3.212  13.543  21.896  0.00  0.00    +0.000 N 
ATOM     24  C   UNL     1      -4.451  14.068  22.262  0.00  0.00    +0.000 C 
ATOM     25  O   UNL     1      -5.246  14.441  21.393  0.00  0.00    +0.000 OA
ATOM     26  C   UNL     1      -2.079  13.323  22.791  0.00  0.00    +0.000 C 
ATOM     27  C   UNL     1      -1.489  11.923  22.583  0.00  0.00    +0.000 C 
BRANCH  24  28
ATOM     28  C   UNL     1      -4.863  14.046  23.766  0.00  0.00    +0.000 C 
ATOM     29  C   UNL     1      -5.291  12.628  24.192  0.00  0.00    +0.000 C 
ATOM     30  O   UNL     1      -6.620  12.307  23.743  0.00  0.00    +0.000 OA
ATOM     31  C   UNL     1      -7.559  13.272  24.217  0.00  0.00    +0.000 C 
ATOM     32  C   UNL     1      -7.149  14.682  23.802  0.00  0.00    +0.000 C 
ATOM     33  O   UNL     1      -5.824  14.992  24.241  0.00  0.00    +0.000 OA
ENDBRANCH  24  28
ENDBRANCH   4  20
TORSDOF 3
ENDMDL
MODEL 3
REMARK VINA RESULT:      -8.0      2.877     12.445
REMARK  Name = 
REMARK  3 active torsions:
REMARK  status: ('A' for Active; 'I' for Inactive)
REMARK    1  A    between atoms: N_3  and  C_4
REMARK    2  A    between atoms: C_7  and  C_8
REMARK    3  A    between atoms: C_12  and  C_14
REMARK                            x       y       z     vdW  Elec       q    Type
REMARK                         _______ _______ _______ _____ _____    ______ ____
ROOT
ATOM      1  C   UNL     1       1.470   8.958  19.092  0.00  0.00    +0.000 A 
ATOM      2  C   UNL     1       1.107   9.037  20.434  0.00  0.00    +0.000 A 
ATOM      3  C   UNL     1       0.074   9.903  20.810  0.00  0.00    +0.000 A 
ATOM      4  C   UNL     1      -0.575  10.664  19.840  0.00  0.00    +0.000 A 
ATOM      5  N   UNL     1      -0.260  10.585  18.525  0.00  0.00    +0.000 NA
ATOM      6  C   UNL     1       0.761   9.758  18.199  0.00  0.00    +0.000 A 
ENDROOT
BRANCH   1   9
ATOM      7  O   UNL     1       1.858   6.012  19.265  0.00  0.00    +0.000 OA
ATOM      8  C   UNL     1       2.632   6.761  18.675  0.00  0.00    +0.000 C 
ATOM      9  N   UNL     1       2.493   8.129  18.584  0.00  0.00    +0.000 N 
ATOM     10  N   UNL     1       3.743   6.269  18.030  0.00  0.00    +0.000 N 
ATOM     11  C   UNL     1       4.602   6.980  17.085  0.00  0.00    +0.000 C 
ATOM     12  C   UNL     1       5.182   5.864  16.290  0.00  0.00    +0.000 A 
ATOM     13  C   UNL     1       5.485   5.784  14.951  0.00  0.00    +0.000 A 
ATOM     14  C   UNL     1       5.885   4.539  14.495  0.00  0.00    +0.000 A 
ATOM     15  N   UNL     1       6.112   3.460  15.289  0.00  0.00    +0.000 NA
ATOM     16  C   UNL     1       5.737   3.553  16.581  0.00  0.00    +0.000 A 
ATOM     17  C   UNL     1       5.146   4.697  17.048  0.00  0.00    +0.000 A 
ATOM     18  C   UNL     1       4.029   4.831  18.039  0.00  0.00    +0.000 C 
ATOM     19  H   UNL     1       3.262   8.619  18.163  0.00  0.00    +0.000 HD
ENDBRANCH   1   9
BRANCH   4  20
ATOM     20  C   UNL     1      -1.668  11.600  20.169  0.00  0.00    +0.000 C 
ATOM     21  C   UNL     1      -2.692  11.858  19.348  0.00  0.00    +0.000 C 
ATOM     22  C   UNL     1      -3.852  12.768  19.660  0.00  0.00    +0.000 C 
ATOM     23  N   UNL     1      -3.820  13.218  21.048  0.00  0.00    +0.000 N 
ATOM     24  C   UNL     1      -5.031  13.564  21.645  0.00  0.00    +0.000 C 
ATOM     25  O   UNL     1      -6.082  13.493  20.998  0.00  0.00    +0.000 OA
ATOM     26  C   UNL     1      -2.491  13.508  21.581  0.00  0.00    +0.000 C 
ATOM     27  C   UNL     1      -1.602  12.260  21.526  0.00  0.00    +0.000 C 
BRANCH  24  28
ATOM     28  C   UNL     1      -5.051  13.904  23.166  0.00  0.00    +0.000 C 
ATOM     29  C   UNL     1      -5.367  12.648  24.001  0.00  0.00    +0.000 C 
ATOM     30  O   UNL     1      -6.768  12.322  23.977  0.00  0.00    +0.000 OA
ATOM     31  C   UNL     1      -7.550  13.427  24.428  0.00  0.00    +0.000 C 
ATOM     32  C   UNL     1      -7.250  14.679  23.610  0.00  0.00    +0.000 C 
ATOM     33  O   UNL     1      -5.854  14.993  23.629  0.00  0.00    +0.000 OA
ENDBRANCH  24  28
ENDBRANCH   4  20
TORSDOF 3
ENDMDL
MODEL 4
REMARK VINA RESULT:      -7.8      3.159     12.475
REMARK  Name = 
REMARK  3 active torsions:
REMARK  status: ('A' for Active; 'I' for Inactive)
REMARK    1  A    between atoms: N_3  and  C_4
REMARK    2  A    between atoms: C_7  and  C_8
REMARK    3  A    between atoms: C_12  and  C_14
REMARK                            x       y       z     vdW  Elec       q    Type
REMARK                         _______ _______ _______ _____ _____    ______ ____
ROOT
ATOM      1  C   UNL     1       0.961   9.379  18.233  0.00  0.00    +0.000 A 
ATOM      2  C   UNL     1      -0.195   9.349  17.459  0.00  0.00    +0.000 A 
ATOM      3  C   UNL     1      -1.297  10.118  17.851  0.00  0.00    +0.000 A 
ATOM      4  C   UNL     1      -1.217  10.901  19.001  0.00  0.00    +0.000 A 
ATOM      5  N   UNL     1      -0.095  10.969  19.756  0.00  0.00    +0.000 NA
ATOM      6  C   UNL     1       0.943  10.194  19.364  0.00  0.00    +0.000 A 
ENDROOT
BRANCH   1   9
ATOM      7  O   UNL     1       2.047   6.885  19.441  0.00  0.00    +0.000 OA
ATOM      8  C   UNL     1       2.601   7.488  18.527  0.00  0.00    +0.000 C 
ATOM      9  N   UNL     1       2.137   8.651  17.950  0.00  0.00    +0.000 N 
ATOM     10  N   UNL     1       3.777   7.028  17.982  0.00  0.00    +0.000 N 
ATOM     11  C   UNL     1       4.414   7.477  16.746  0.00  0.00    +0.000 C 
ATOM     12  C   UNL     1       5.220   6.287  16.359  0.00  0.00    +0.000 A 
ATOM     13  C   UNL     1       5.493   5.758  15.120  0.00  0.00    +0.000 A 
ATOM     14  C   UNL     1       6.165   4.547  15.114  0.00  0.00    +0.000 A 
ATOM     15  N   UNL     1       6.667   3.935  16.219  0.00  0.00    +0.000 NA
ATOM     16  C   UNL     1       6.319   4.443  17.419  0.00  0.00    +0.000 A 
ATOM     17  C   UNL     1       5.485   5.528  17.495  0.00  0.00    +0.000 A 
ATOM     18  C   UNL     1       4.399   5.801  18.491  0.00  0.00    +0.000 C 
ATOM     19  H   UNL     1       2.754   9.087  17.289  0.00  0.00    +0.000 HD
ENDBRANCH   1   9
BRANCH   4  20
ATOM     20  C   UNL     1      -2.343  11.732  19.472  0.00  0.00    +0.000 C 
ATOM     21  C   UNL     1      -3.524  11.799  18.848  0.00  0.00    +0.000 C 
ATOM     22  C   UNL     1      -4.714  12.595  19.318  0.00  0.00    +0.000 C 
ATOM     23  N   UNL     1      -4.487  13.167  20.641  0.00  0.00    +0.000 N 
ATOM     24  C   UNL     1      -5.603  13.425  21.435  0.00  0.00    +0.000 C 
ATOM     25  O   UNL     1      -6.736  13.178  21.008  0.00  0.00    +0.000 OA
ATOM     26  C   UNL     1      -3.131  13.652  20.888  0.00  0.00    +0.000 C 
ATOM     27  C   UNL     1      -2.114  12.513  20.745  0.00  0.00    +0.000 C 
BRANCH  24  28
ATOM     28  C   UNL     1      -5.388  13.893  22.906  0.00  0.00    +0.000 C 
ATOM     29  C   UNL     1      -5.744  12.765  23.895  0.00  0.00    +0.000 C 
ATOM     30  O   UNL     1      -7.166  12.626  24.065  0.00  0.00    +0.000 OA
ATOM     31  C   UNL     1      -7.745  13.859  24.491  0.00  0.00    +0.000 C 
ATOM     32  C   UNL     1      -7.403  14.986  23.521  0.00  0.00    +0.000 C 
ATOM     33  O   UNL     1      -5.988  15.113  23.346  0.00  0.00    +0.000 OA
ENDBRANCH  24  28
ENDBRANCH   4  20
TORSDOF 3
ENDMDL
MODEL 5
REMARK VINA RESULT:      -7.7      2.329     12.380
REMARK  Name = 
REMARK  3 active torsions:
REMARK  status: ('A' for Active; 'I' for Inactive)
REMARK    1  A    between atoms: N_3  and  C_4
REMARK    2  A    between atoms: C_7  and  C_8
REMARK    3  A    between atoms: C_12  and  C_14
REMARK                            x       y       z     vdW  Elec       q    Type
REMARK                         _______ _______ _______ _____ _____    ______ ____
ROOT
ATOM      1  C   UNL     1       1.335   8.767  19.918  0.00  0.00    +0.000 A 
ATOM      2  C   UNL     1       0.666   8.666  21.135  0.00  0.00    +0.000 A 
ATOM      3  C   UNL     1      -0.199   9.695  21.524  0.00  0.00    +0.000 A 
ATOM      4  C   UNL     1      -0.379  10.796  20.690  0.00  0.00    +0.000 A 
ATOM      5  N   UNL     1       0.238  10.906  19.489  0.00  0.00    +0.000 NA
ATOM      6  C   UNL     1       1.087   9.906  19.155  0.00  0.00    +0.000 A 
ENDROOT
BRANCH   1   9
ATOM      7  O   UNL     1       2.606   8.505  17.240  0.00  0.00    +0.000 OA
ATOM      8  C   UNL     1       2.812   7.723  18.163  0.00  0.00    +0.000 C 
ATOM      9  N   UNL     1       2.233   7.804  19.412  0.00  0.00    +0.000 N 
ATOM     10  N   UNL     1       3.674   6.661  18.017  0.00  0.00    +0.000 N 
ATOM     11  C   UNL     1       4.213   5.809  19.074  0.00  0.00    +0.000 C 
ATOM     12  C   UNL     1       5.475   5.311  18.461  0.00  0.00    +0.000 A 
ATOM     13  C   UNL     1       6.705   5.065  19.024  0.00  0.00    +0.000 A 
ATOM     14  C   UNL     1       7.721   4.740  18.140  0.00  0.00    +0.000 A 
ATOM     15  N   UNL     1       7.550   4.530  16.808  0.00  0.00    +0.000 NA
ATOM     16  C   UNL     1       6.350   4.850  16.281  0.00  0.00    +0.000 A 
ATOM     17  C   UNL     1       5.362   5.370  17.075  0.00  0.00    +0.000 A 
ATOM     18  C   UNL     1       4.366   6.439  16.743  0.00  0.00    +0.000 C 
ATOM     19  H   UNL     1       2.413   7.030  20.027  0.00  0.00    +0.000 HD
ENDBRANCH   1   9
BRANCH   4  20
ATOM     20  C   UNL     1      -1.273  11.917  21.042  0.00  0.00    +0.000 C 
ATOM     21  C   UNL     1      -1.957  12.629  20.139  0.00  0.00    +0.000 C 
ATOM     22  C   UNL     1      -2.914  13.749  20.456  0.00  0.00    +0.000 C 
ATOM     23  N   UNL     1      -3.142  13.867  21.892  0.00  0.00    +0.000 N 
ATOM     24  C   UNL     1      -4.353  14.416  22.312  0.00  0.00    +0.000 C 
ATOM     25  O   UNL     1      -5.184  14.791  21.478  0.00  0.00    +0.000 OA
ATOM     26  C   UNL     1      -1.969  13.640  22.733  0.00  0.00    +0.000 C 
ATOM     27  C   UNL     1      -1.412  12.229  22.514  0.00  0.00    +0.000 C 
BRANCH  24  28
ATOM     28  C   UNL     1      -4.691  14.419  23.834  0.00  0.00    +0.000 C 
ATOM     29  C   UNL     1      -6.094  15.008  24.080  0.00  0.00    +0.000 C 
ATOM     30  O   UNL     1      -6.098  16.445  23.997  0.00  0.00    +0.000 OA
ATOM     31  C   UNL     1      -5.158  17.005  24.913  0.00  0.00    +0.000 C 
ATOM     32  C   UNL     1      -3.763  16.432  24.682  0.00  0.00    +0.000 C 
ATOM     33  O   UNL     1      -3.766  15.003  24.754  0.00  0.00    +0.000 OA
ENDBRANCH  24  28
ENDBRANCH   4  20
TORSDOF 3
ENDMDL
MODEL 6
REMARK VINA RESULT:      -7.7      2.264     12.475
REMARK  Name = 
REMARK  3 active torsions:
REMARK  status: ('A' for Active; 'I' for Inactive)
REMARK    1  A    between atoms: N_3  and  C_4
REMARK    2  A    between atoms: C_7  and  C_8
REMARK    3  A    between atoms: C_12  and  C_14
REMARK                            x       y       z     vdW  Elec       q    Type
REMARK                         _______ _______ _______ _____ _____    ______ ____
ROOT
ATOM      1  C   UNL     1       1.243   8.876  19.725  0.00  0.00    +0.000 A 
ATOM      2  C   UNL     1       0.577   9.818  18.947  0.00  0.00    +0.000 A 
ATOM      3  C   UNL     1      -0.310  10.707  19.565  0.00  0.00    +0.000 A 
ATOM      4  C   UNL     1      -0.507  10.639  20.943  0.00  0.00    +0.000 A 
ATOM      5  N   UNL     1       0.150   9.751  21.726  0.00  0.00    +0.000 NA
ATOM      6  C   UNL     1       0.980   8.888  21.094  0.00  0.00    +0.000 A 
ENDROOT
BRANCH   1   9
ATOM      7  O   UNL     1       2.717   8.756  17.142  0.00  0.00    +0.000 OA
ATOM      8  C   UNL     1       2.832   7.910  18.025  0.00  0.00    +0.000 C 
ATOM      9  N   UNL     1       2.158   7.924  19.227  0.00  0.00    +0.000 N 
ATOM     10  N   UNL     1       3.681   6.838  17.875  0.00  0.00    +0.000 N 
ATOM     11  C   UNL     1       4.116   5.904  18.911  0.00  0.00    +0.000 C 
ATOM     12  C   UNL     1       5.411   5.414  18.367  0.00  0.00    +0.000 A 
ATOM     13  C   UNL     1       6.587   5.099  19.006  0.00  0.00    +0.000 A 
ATOM     14  C   UNL     1       7.663   4.806  18.184  0.00  0.00    +0.000 A 
ATOM     15  N   UNL     1       7.594   4.688  16.832  0.00  0.00    +0.000 NA
ATOM     16  C   UNL     1       6.447   5.073  16.235  0.00  0.00    +0.000 A 
ATOM     17  C   UNL     1       5.411   5.567  16.983  0.00  0.00    +0.000 A 
ATOM     18  C   UNL     1       4.467   6.681  16.647  0.00  0.00    +0.000 C 
ATOM     19  H   UNL     1       2.272   7.108  19.801  0.00  0.00    +0.000 HD
ENDBRANCH   1   9
BRANCH   4  20
ATOM     20  C   UNL     1      -1.430  11.543  21.656  0.00  0.00    +0.000 C 
ATOM     21  C   UNL     1      -1.717  11.430  22.958  0.00  0.00    +0.000 C 
ATOM     22  C   UNL     1      -2.616  12.356  23.736  0.00  0.00    +0.000 C 
ATOM     23  N   UNL     1      -3.017  13.509  22.936  0.00  0.00    +0.000 N 
ATOM     24  C   UNL     1      -3.342  14.684  23.612  0.00  0.00    +0.000 C 
ATOM     25  O   UNL     1      -3.293  14.721  24.846  0.00  0.00    +0.000 OA
ATOM     26  C   UNL     1      -3.288  13.229  21.528  0.00  0.00    +0.000 C 
ATOM     27  C   UNL     1      -2.043  12.657  20.841  0.00  0.00    +0.000 C 
BRANCH  24  28
ATOM     28  C   UNL     1      -3.629  15.973  22.784  0.00  0.00    +0.000 C 
ATOM     29  C   UNL     1      -3.334  17.235  23.620  0.00  0.00    +0.000 C 
ATOM     30  O   UNL     1      -4.383  17.514  24.565  0.00  0.00    +0.000 OA
ATOM     31  C   UNL     1      -5.638  17.643  23.899  0.00  0.00    +0.000 C 
ATOM     32  C   UNL     1      -5.946  16.402  23.067  0.00  0.00    +0.000 C 
ATOM     33  O   UNL     1      -4.895  16.122  22.138  0.00  0.00    +0.000 OA
ENDBRANCH  24  28
ENDBRANCH   4  20
TORSDOF 3
ENDMDL
MODEL 7
REMARK VINA RESULT:      -7.6      2.337     12.377
REMARK  Name = 
REMARK  3 active torsions:
REMARK  status: ('A' for Active; 'I' for Inactive)
REMARK    1  A    between atoms: N_3  and  C_4
REMARK    2  A    between atoms: C_7  and  C_8
REMARK    3  A    between atoms: C_12  and  C_14
REMARK                            x       y       z     vdW  Elec       q    Type
REMARK                         _______ _______ _______ _____ _____    ______ ____
ROOT
ATOM      1  C   UNL     1       1.350   8.583  20.180  0.00  0.00    +0.000 A 
ATOM      2  C   UNL     1       1.026   8.536  21.533  0.00  0.00    +0.000 A 
ATOM      3  C   UNL     1       0.144   9.488  22.055  0.00  0.00    +0.000 A 
ATOM      4  C   UNL     1      -0.398  10.460  21.216  0.00  0.00    +0.000 A 
ATOM      5  N   UNL     1      -0.121  10.510  19.891  0.00  0.00    +0.000 NA
ATOM      6  C   UNL     1       0.756   9.591  19.424  0.00  0.00    +0.000 A 
ENDROOT
BRANCH   1   9
ATOM      7  O   UNL     1       2.615   8.697  17.488  0.00  0.00    +0.000 OA
ATOM      8  C   UNL     1       2.802   7.780  18.283  0.00  0.00    +0.000 C 
ATOM      9  N   UNL     1       2.225   7.685  19.532  0.00  0.00    +0.000 N 
ATOM     10  N   UNL     1       3.639   6.733  17.976  0.00  0.00    +0.000 N 
ATOM     11  C   UNL     1       4.159   5.719  18.891  0.00  0.00    +0.000 C 
ATOM     12  C   UNL     1       5.408   5.291  18.206  0.00  0.00    +0.000 A 
ATOM     13  C   UNL     1       6.632   4.934  18.722  0.00  0.00    +0.000 A 
ATOM     14  C   UNL     1       7.640   4.722  17.796  0.00  0.00    +0.000 A 
ATOM     15  N   UNL     1       7.464   4.719  16.448  0.00  0.00    +0.000 NA
ATOM     16  C   UNL     1       6.273   5.142  15.978  0.00  0.00    +0.000 A 
ATOM     17  C   UNL     1       5.297   5.560  16.845  0.00  0.00    +0.000 A 
ATOM     18  C   UNL     1       4.327   6.689  16.681  0.00  0.00    +0.000 C 
ATOM     19  H   UNL     1       2.387   6.824  20.023  0.00  0.00    +0.000 HD
ENDBRANCH   1   9
BRANCH   4  20
ATOM     20  C   UNL     1      -1.330  11.496  21.703  0.00  0.00    +0.000 C 
ATOM     21  C   UNL     1      -1.756  11.571  22.968  0.00  0.00    +0.000 C 
ATOM     22  C   UNL     1      -2.669  12.636  23.519  0.00  0.00    +0.000 C 
ATOM     23  N   UNL     1      -2.912  13.690  22.540  0.00  0.00    +0.000 N 
ATOM     24  C   UNL     1      -3.230  14.960  23.021  0.00  0.00    +0.000 C 
ATOM     25  O   UNL     1      -3.306  15.158  24.239  0.00  0.00    +0.000 OA
ATOM     26  C   UNL     1      -3.054  13.240  21.158  0.00  0.00    +0.000 C 
ATOM     27  C   UNL     1      -1.784  12.521  20.690  0.00  0.00    +0.000 C 
BRANCH  24  28
ATOM     28  C   UNL     1      -3.347  16.140  22.010  0.00  0.00    +0.000 C 
ATOM     29  C   UNL     1      -2.854  17.455  22.647  0.00  0.00    +0.000 C 
ATOM     30  O   UNL     1      -3.830  18.020  23.541  0.00  0.00    +0.000 OA
ATOM     31  C   UNL     1      -5.069  18.232  22.865  0.00  0.00    +0.000 C 
ATOM     32  C   UNL     1      -5.571  16.939  22.230  0.00  0.00    +0.000 C 
ATOM     33  O   UNL     1      -4.594  16.375  21.351  0.00  0.00    +0.000 OA
ENDBRANCH  24  28
ENDBRANCH   4  20
TORSDOF 3
ENDMDL
MODEL 8
REMARK VINA RESULT:      -7.6      2.260     12.338
REMARK  Name = 
REMARK  3 active torsions:
REMARK  status: ('A' for Active; 'I' for Inactive)
REMARK    1  A    between atoms: N_3  and  C_4
REMARK    2  A    between atoms: C_7  and  C_8
REMARK    3  A    between atoms: C_12  and  C_14
REMARK                            x       y       z     vdW  Elec       q    Type
REMARK                         _______ _______ _______ _____ _____    ______ ____
ROOT
ATOM      1  C   UNL     1       1.338   8.444  20.652  0.00  0.00    +0.000 A 
ATOM      2  C   UNL     1       0.438   8.128  21.665  0.00  0.00    +0.000 A 
ATOM      3  C   UNL     1      -0.377   9.136  22.191  0.00  0.00    +0.000 A 
ATOM      4  C   UNL     1      -0.279  10.433  21.692  0.00  0.00    +0.000 A 
ATOM      5  N   UNL     1       0.569  10.761  20.688  0.00  0.00    +0.000 NA
ATOM      6  C   UNL     1       1.361   9.769  20.220  0.00  0.00    +0.000 A 
ENDROOT
BRANCH   1   9
ATOM      7  O   UNL     1       2.146   8.120  17.806  0.00  0.00    +0.000 OA
ATOM      8  C   UNL     1       2.575   7.413  18.713  0.00  0.00    +0.000 C 
ATOM      9  N   UNL     1       2.216   7.524  20.040  0.00  0.00    +0.000 N 
ATOM     10  N   UNL     1       3.487   6.414  18.465  0.00  0.00    +0.000 N 
ATOM     11  C   UNL     1       4.273   5.671  19.448  0.00  0.00    +0.000 C 
ATOM     12  C   UNL     1       5.448   5.237  18.645  0.00  0.00    +0.000 A 
ATOM     13  C   UNL     1       6.773   5.121  18.992  0.00  0.00    +0.000 A 
ATOM     14  C   UNL     1       7.645   4.822  17.958  0.00  0.00    +0.000 A 
ATOM     15  N   UNL     1       7.265   4.520  16.688  0.00  0.00    +0.000 NA
ATOM     16  C   UNL     1       5.970   4.713  16.368  0.00  0.00    +0.000 A 
ATOM     17  C   UNL     1       5.093   5.203  17.300  0.00  0.00    +0.000 A 
ATOM     18  C   UNL     1       3.966   6.170  17.101  0.00  0.00    +0.000 C 
ATOM     19  H   UNL     1       2.565   6.805  20.648  0.00  0.00    +0.000 HD
ENDBRANCH   1   9
BRANCH   4  20
ATOM     20  C   UNL     1      -1.105  11.544  22.205  0.00  0.00    +0.000 C 
ATOM     21  C   UNL     1      -2.050  11.391  23.140  0.00  0.00    +0.000 C 
ATOM     22  C   UNL     1      -2.884  12.501  23.725  0.00  0.00    +0.000 C 
ATOM     23  N   UNL     1      -2.427  13.810  23.270  0.00  0.00    +0.000 N 
ATOM     24  C   UNL     1      -2.675  14.906  24.096  0.00  0.00    +0.000 C 
ATOM     25  O   UNL     1      -3.271  14.750  25.167  0.00  0.00    +0.000 OA
ATOM     26  C   UNL     1      -1.991  13.871  21.877  0.00  0.00    +0.000 C 
ATOM     27  C   UNL     1      -0.819  12.913  21.634  0.00  0.00    +0.000 C 
BRANCH  24  28
ATOM     28  C   UNL     1      -2.070  16.290  23.712  0.00  0.00    +0.000 C 
ATOM     29  C   UNL     1      -1.711  17.098  24.976  0.00  0.00    +0.000 C 
ATOM     30  O   UNL     1      -2.872  17.687  25.587  0.00  0.00    +0.000 OA
ATOM     31  C   UNL     1      -3.569  18.512  24.654  0.00  0.00    +0.000 C 
ATOM     32  C   UNL     1      -3.933  17.727  23.398  0.00  0.00    +0.000 C 
ATOM     33  O   UNL     1      -2.777  17.133  22.799  0.00  0.00    +0.000 OA
ENDBRANCH  24  28
ENDBRANCH   4  20
TORSDOF 3
ENDMDL
MODEL 9
REMARK VINA RESULT:      -7.5      2.284     12.097
REMARK  Name = 
REMARK  3 active torsions:
REMARK  status: ('A' for Active; 'I' for Inactive)
REMARK    1  A    between atoms: N_3  and  C_4
REMARK    2  A    between atoms: C_7  and  C_8
REMARK    3  A    between atoms: C_12  and  C_14
REMARK                            x       y       z     vdW  Elec       q    Type
REMARK                         _______ _______ _______ _____ _____    ______ ____
ROOT
ATOM      1  C   UNL     1       1.356   8.549  20.429  0.00  0.00    +0.000 A 
ATOM      2  C   UNL     1       0.533   8.229  21.505  0.00  0.00    +0.000 A 
ATOM      3  C   UNL     1      -0.268   9.227  22.070  0.00  0.00    +0.000 A 
ATOM      4  C   UNL     1      -0.234  10.518  21.546  0.00  0.00    +0.000 A 
ATOM      5  N   UNL     1       0.537  10.849  20.483  0.00  0.00    +0.000 NA
ATOM      6  C   UNL     1       1.319   9.867  19.977  0.00  0.00    +0.000 A 
ENDROOT
BRANCH   1   9
ATOM      7  O   UNL     1       2.417   8.531  17.648  0.00  0.00    +0.000 OA
ATOM      8  C   UNL     1       2.691   7.671  18.480  0.00  0.00    +0.000 C 
ATOM      9  N   UNL     1       2.211   7.639  19.772  0.00  0.00    +0.000 N 
ATOM     10  N   UNL     1       3.539   6.632  18.175  0.00  0.00    +0.000 N 
ATOM     11  C   UNL     1       4.156   5.692  19.108  0.00  0.00    +0.000 C 
ATOM     12  C   UNL     1       5.366   5.258  18.359  0.00  0.00    +0.000 A 
ATOM     13  C   UNL     1       6.636   4.969  18.802  0.00  0.00    +0.000 A 
ATOM     14  C   UNL     1       7.580   4.728  17.817  0.00  0.00    +0.000 A 
ATOM     15  N   UNL     1       7.306   4.637  16.489  0.00  0.00    +0.000 NA
ATOM     16  C   UNL     1       6.070   4.995  16.085  0.00  0.00    +0.000 A 
ATOM     17  C   UNL     1       5.148   5.438  16.996  0.00  0.00    +0.000 A 
ATOM     18  C   UNL     1       4.131   6.527  16.837  0.00  0.00    +0.000 C 
ATOM     19  H   UNL     1       2.436   6.815  20.300  0.00  0.00    +0.000 HD
ENDBRANCH   1   9
BRANCH   4  20
ATOM     20  C   UNL     1      -1.049  11.618  22.098  0.00  0.00    +0.000 C 
ATOM     21  C   UNL     1      -1.987  11.444  23.035  0.00  0.00    +0.000 C 
ATOM     22  C   UNL     1      -2.810  12.542  23.659  0.00  0.00    +0.000 C 
ATOM     23  N   UNL     1      -2.348  13.861  23.238  0.00  0.00    +0.000 N 
ATOM     24  C   UNL     1      -2.584  14.934  24.097  0.00  0.00    +0.000 C 
ATOM     25  O   UNL     1      -3.172  14.750  25.168  0.00  0.00    +0.000 OA
ATOM     26  C   UNL     1      -1.924  13.960  21.844  0.00  0.00    +0.000 C 
ATOM     27  C   UNL     1      -0.760  13.002  21.564  0.00  0.00    +0.000 C 
BRANCH  24  28
ATOM     28  C   UNL     1      -1.973  16.325  23.749  0.00  0.00    +0.000 C 
ATOM     29  C   UNL     1      -0.434  16.277  23.815  0.00  0.00    +0.000 C 
ATOM     30  O   UNL     1       0.049  16.318  25.169  0.00  0.00    +0.000 OA
ATOM     31  C   UNL     1      -0.440  17.477  25.844  0.00  0.00    +0.000 C 
ATOM     32  C   UNL     1      -1.963  17.538  25.788  0.00  0.00    +0.000 C 
ATOM     33  O   UNL     1      -2.439  17.486  24.440  0.00  0.00    +0.000 OA
ENDBRANCH  24  28
ENDBRANCH   4  20
TORSDOF 3
ENDMDL
