MODEL 1
REMARK VINA RESULT:      -7.2      0.000      0.000
REMARK  Name = 
REMARK  9 active torsions:
REMARK  status: ('A' for Active; 'I' for Inactive)
REMARK    1  A    between atoms: C_1  and  O_2
REMARK    2  A    between atoms: O_2  and  C_3
REMARK    3  A    between atoms: C_3  and  C_5
REMARK    4  A    between atoms: C_5  and  N_6
REMARK    5  A    between atoms: C_5  and  C_17
REMARK    6  A    between atoms: N_6  and  C_7
REMARK    7  A    between atoms: C_11  and  C_12
REMARK    8  A    between atoms: C_17  and  C_18
REMARK    9  A    between atoms: C_17  and  O_19
REMARK                            x       y       z     vdW  Elec       q    Type
REMARK                         _______ _______ _______ _____ _____    ______ ____
ROOT
ATOM      1  N   UNL     1       5.280   4.534  18.025  0.00  0.00    +0.000 NA
ATOM      2  H   UNL     1       5.662   4.128  18.879  0.00  0.00    +0.000 HD
ENDROOT
BRANCH   1   3
ATOM      3  C   UNL     1       3.828   4.633  18.015  0.00  0.00    +0.000 C 
ATOM      4  C   UNL     1       3.300   3.496  17.122  0.00  0.00    +0.000 C 
ATOM      5  C   UNL     1       3.384   2.135  17.809  0.00  0.00    +0.000 C 
ATOM      6  C   UNL     1       2.521   2.137  19.060  0.00  0.00    +0.000 C 
ATOM      7  C   UNL     1       2.921   3.240  20.051  0.00  0.00    +0.000 C 
ATOM      8  C   UNL     1       3.104   4.619  19.375  0.00  0.00    +0.000 C 
BRANCH   7   9
ATOM      9  C   UNL     1       1.905   3.317  21.205  0.00  0.00    +0.000 C 
ATOM     10  F   UNL     1       2.376   4.022  22.258  0.00  0.00    +0.000 F 
ATOM     11  F   UNL     1       0.769   3.929  20.797  0.00  0.00    +0.000 F 
ATOM     12  F   UNL     1       1.555   2.098  21.671  0.00  0.00    +0.000 F 
ENDBRANCH   7   9
ENDBRANCH   1   3
BRANCH   1  13
ATOM     13  C   UNL     1       6.097   5.705  17.645  0.00  0.00    +0.000 C 
BRANCH  13  14
ATOM     14  C   UNL     1       6.085   6.028  16.147  0.00  0.00    +0.000 C 
ATOM     15  O   UNL     1       5.205   6.708  15.630  0.00  0.00    +0.000 OA
BRANCH  14  17
ATOM     16  C   UNL     1       6.881   4.675  14.406  0.00  0.00    +0.000 C 
ATOM     17  O   UNL     1       7.180   5.558  15.490  0.00  0.00    +0.000 OA
ENDBRANCH  14  17
ENDBRANCH  13  14
BRANCH  13  18
ATOM     18  C   UNL     1       7.553   5.417  18.098  0.00  0.00    +0.000 C 
ATOM     19  C   UNL     1       7.816   5.704  19.573  0.00  0.00    +0.000 C 
BRANCH  18  20
ATOM     20  O   UNL     1       7.865   4.029  17.857  0.00  0.00    +0.000 OA
ATOM     21  H   UNL     1       7.092   3.620  17.428  0.00  0.00    +0.000 HD
ENDBRANCH  18  20
ENDBRANCH  13  18
ENDBRANCH   1  13
TORSDOF 7
ENDMDL
MODEL 2
REMARK VINA RESULT:      -7.2      0.990      1.532
REMARK  Name = 
REMARK  9 active torsions:
REMARK  status: ('A' for Active; 'I' for Inactive)
REMARK    1  A    between atoms: C_1  and  O_2
REMARK    2  A    between atoms: O_2  and  C_3
REMARK    3  A    between atoms: C_3  and  C_5
REMARK    4  A    between atoms: C_5  and  N_6
REMARK    5  A    between atoms: C_5  and  C_17
REMARK    6  A    between atoms: N_6  and  C_7
REMARK    7  A    between atoms: C_11  and  C_12
REMARK    8  A    between atoms: C_17  and  C_18
REMARK    9  A    between atoms: C_17  and  O_19
REMARK                            x       y       z     vdW  Elec       q    Type
REMARK                         _______ _______ _______ _____ _____    ______ ____
ROOT
ATOM      1  N   UNL     1       5.282   4.047  17.463  0.00  0.00    +0.000 NA
ATOM      2  H   UNL     1       5.684   3.757  18.355  0.00  0.00    +0.000 HD
ENDROOT
BRANCH   1   3
ATOM      3  C   UNL     1       3.832   4.173  17.483  0.00  0.00    +0.000 C 
ATOM      4  C   UNL     1       3.250   2.803  17.093  0.00  0.00    +0.000 C 
ATOM      5  C   UNL     1       3.358   1.786  18.226  0.00  0.00    +0.000 C 
ATOM      6  C   UNL     1       2.560   2.267  19.427  0.00  0.00    +0.000 C 
ATOM      7  C   UNL     1       3.018   3.646  19.925  0.00  0.00    +0.000 C 
ATOM      8  C   UNL     1       3.178   4.676  18.783  0.00  0.00    +0.000 C 
BRANCH   7   9
ATOM      9  C   UNL     1       2.063   4.166  21.015  0.00  0.00    +0.000 C 
ATOM     10  F   UNL     1       0.775   3.837  20.768  0.00  0.00    +0.000 F 
ATOM     11  F   UNL     1       2.382   3.635  22.218  0.00  0.00    +0.000 F 
ATOM     12  F   UNL     1       2.109   5.509  21.147  0.00  0.00    +0.000 F 
ENDBRANCH   7   9
ENDBRANCH   1   3
BRANCH   1  13
ATOM     13  C   UNL     1       6.106   5.136  16.898  0.00  0.00    +0.000 C 
BRANCH  13  14
ATOM     14  C   UNL     1       6.534   4.917  15.443  0.00  0.00    +0.000 C 
ATOM     15  O   UNL     1       7.656   5.208  15.039  0.00  0.00    +0.000 OA
BRANCH  14  17
ATOM     16  C   UNL     1       6.055   3.802  13.438  0.00  0.00    +0.000 C 
ATOM     17  O   UNL     1       5.583   4.301  14.692  0.00  0.00    +0.000 OA
ENDBRANCH  14  17
ENDBRANCH  13  14
BRANCH  13  18
ATOM     18  C   UNL     1       7.367   5.271  17.792  0.00  0.00    +0.000 C 
ATOM     19  C   UNL     1       7.063   5.534  19.264  0.00  0.00    +0.000 C 
BRANCH  18  20
ATOM     20  O   UNL     1       8.143   4.057  17.713  0.00  0.00    +0.000 OA
ATOM     21  H   UNL     1       9.012   4.283  17.337  0.00  0.00    +0.000 HD
ENDBRANCH  18  20
ENDBRANCH  13  18
ENDBRANCH   1  13
TORSDOF 7
ENDMDL
MODEL 3
REMARK VINA RESULT:      -7.2      1.549      3.240
REMARK  Name = 
REMARK  9 active torsions:
REMARK  status: ('A' for Active; 'I' for Inactive)
REMARK    1  A    between atoms: C_1  and  O_2
REMARK    2  A    between atoms: O_2  and  C_3
REMARK    3  A    between atoms: C_3  and  C_5
REMARK    4  A    between atoms: C_5  and  N_6
REMARK    5  A    between atoms: C_5  and  C_17
REMARK    6  A    between atoms: N_6  and  C_7
REMARK    7  A    between atoms: C_11  and  C_12
REMARK    8  A    between atoms: C_17  and  C_18
REMARK    9  A    between atoms: C_17  and  O_19
REMARK                            x       y       z     vdW  Elec       q    Type
REMARK                         _______ _______ _______ _____ _____    ______ ____
ROOT
ATOM      1  N   UNL     1       5.044   4.165  16.757  0.00  0.00    +0.000 NA
ATOM      2  H   UNL     1       4.546   3.438  16.243  0.00  0.00    +0.000 HD
ENDROOT
BRANCH   1   3
ATOM      3  C   UNL     1       4.723   4.209  18.177  0.00  0.00    +0.000 C 
ATOM      4  C   UNL     1       4.355   5.665  18.515  0.00  0.00    +0.000 C 
ATOM      5  C   UNL     1       2.967   6.043  18.004  0.00  0.00    +0.000 C 
ATOM      6  C   UNL     1       1.918   5.167  18.669  0.00  0.00    +0.000 C 
ATOM      7  C   UNL     1       2.164   3.670  18.433  0.00  0.00    +0.000 C 
ATOM      8  C   UNL     1       3.630   3.253  18.690  0.00  0.00    +0.000 C 
BRANCH   7   9
ATOM      9  C   UNL     1       1.189   2.828  19.276  0.00  0.00    +0.000 C 
ATOM     10  F   UNL     1       0.259   2.205  18.517  0.00  0.00    +0.000 F 
ATOM     11  F   UNL     1       1.858   1.863  19.951  0.00  0.00    +0.000 F 
ATOM     12  F   UNL     1       0.523   3.565  20.191  0.00  0.00    +0.000 F 
ENDBRANCH   7   9
ENDBRANCH   1   3
BRANCH   1  13
ATOM     13  C   UNL     1       6.456   4.177  16.324  0.00  0.00    +0.000 C 
BRANCH  13  14
ATOM     14  C   UNL     1       7.406   4.910  17.278  0.00  0.00    +0.000 C 
ATOM     15  O   UNL     1       7.999   4.333  18.184  0.00  0.00    +0.000 OA
BRANCH  14  17
ATOM     16  C   UNL     1       7.771   7.080  18.085  0.00  0.00    +0.000 C 
ATOM     17  O   UNL     1       7.577   6.221  16.958  0.00  0.00    +0.000 OA
ENDBRANCH  14  17
ENDBRANCH  13  14
BRANCH  13  18
ATOM     18  C   UNL     1       6.504   4.853  14.928  0.00  0.00    +0.000 C 
ATOM     19  C   UNL     1       6.057   3.951  13.782  0.00  0.00    +0.000 C 
BRANCH  18  20
ATOM     20  O   UNL     1       5.653   6.017  14.930  0.00  0.00    +0.000 OA
ATOM     21  H   UNL     1       4.879   5.822  14.371  0.00  0.00    +0.000 HD
ENDBRANCH  18  20
ENDBRANCH  13  18
ENDBRANCH   1  13
TORSDOF 7
ENDMDL
MODEL 4
REMARK VINA RESULT:      -7.0      4.253      6.477
REMARK  Name = 
REMARK  9 active torsions:
REMARK  status: ('A' for Active; 'I' for Inactive)
REMARK    1  A    between atoms: C_1  and  O_2
REMARK    2  A    between atoms: O_2  and  C_3
REMARK    3  A    between atoms: C_3  and  C_5
REMARK    4  A    between atoms: C_5  and  N_6
REMARK    5  A    between atoms: C_5  and  C_17
REMARK    6  A    between atoms: N_6  and  C_7
REMARK    7  A    between atoms: C_11  and  C_12
REMARK    8  A    between atoms: C_17  and  C_18
REMARK    9  A    between atoms: C_17  and  O_19
REMARK                            x       y       z     vdW  Elec       q    Type
REMARK                         _______ _______ _______ _____ _____    ______ ____
ROOT
ATOM      1  N   UNL     1       5.084   3.257  19.008  0.00  0.00    +0.000 NA
ATOM      2  H   UNL     1       5.504   2.486  18.489  0.00  0.00    +0.000 HD
ENDROOT
BRANCH   1   3
ATOM      3  C   UNL     1       5.086   4.523  18.287  0.00  0.00    +0.000 C 
ATOM      4  C   UNL     1       6.349   5.290  18.718  0.00  0.00    +0.000 C 
ATOM      5  C   UNL     1       7.615   4.720  18.084  0.00  0.00    +0.000 C 
ATOM      6  C   UNL     1       7.531   4.840  16.571  0.00  0.00    +0.000 C 
ATOM      7  C   UNL     1       6.300   4.130  15.990  0.00  0.00    +0.000 C 
ATOM      8  C   UNL     1       4.996   4.467  16.751  0.00  0.00    +0.000 C 
BRANCH   7   9
ATOM      9  C   UNL     1       6.163   4.439  14.489  0.00  0.00    +0.000 C 
ATOM     10  F   UNL     1       5.104   5.238  14.223  0.00  0.00    +0.000 F 
ATOM     11  F   UNL     1       7.265   5.080  14.033  0.00  0.00    +0.000 F 
ATOM     12  F   UNL     1       6.012   3.324  13.741  0.00  0.00    +0.000 F 
ENDBRANCH   7   9
ENDBRANCH   1   3
BRANCH   1  13
ATOM     13  C   UNL     1       3.843   2.782  19.653  0.00  0.00    +0.000 C 
BRANCH  13  14
ATOM     14  C   UNL     1       4.047   2.152  21.035  0.00  0.00    +0.000 C 
ATOM     15  O   UNL     1       5.091   1.591  21.352  0.00  0.00    +0.000 OA
BRANCH  14  17
ATOM     16  C   UNL     1       2.217   3.514  21.573  0.00  0.00    +0.000 C 
ATOM     17  O   UNL     1       2.997   2.355  21.876  0.00  0.00    +0.000 OA
ENDBRANCH  14  17
ENDBRANCH  13  14
BRANCH  13  18
ATOM     18  C   UNL     1       3.199   1.739  18.701  0.00  0.00    +0.000 C 
ATOM     19  C   UNL     1       2.200   2.330  17.712  0.00  0.00    +0.000 C 
BRANCH  18  20
ATOM     20  O   UNL     1       4.234   1.081  17.942  0.00  0.00    +0.000 OA
ATOM     21  H   UNL     1       5.042   1.068  18.487  0.00  0.00    +0.000 HD
ENDBRANCH  18  20
ENDBRANCH  13  18
ENDBRANCH   1  13
TORSDOF 7
ENDMDL
MODEL 5
REMARK VINA RESULT:      -7.0      1.675      2.916
REMARK  Name = 
REMARK  9 active torsions:
REMARK  status: ('A' for Active; 'I' for Inactive)
REMARK    1  A    between atoms: C_1  and  O_2
REMARK    2  A    between atoms: O_2  and  C_3
REMARK    3  A    between atoms: C_3  and  C_5
REMARK    4  A    between atoms: C_5  and  N_6
REMARK    5  A    between atoms: C_5  and  C_17
REMARK    6  A    between atoms: N_6  and  C_7
REMARK    7  A    between atoms: C_11  and  C_12
REMARK    8  A    between atoms: C_17  and  C_18
REMARK    9  A    between atoms: C_17  and  O_19
REMARK                            x       y       z     vdW  Elec       q    Type
REMARK                         _______ _______ _______ _____ _____    ______ ____
ROOT
ATOM      1  N   UNL     1       5.194   4.331  17.207  0.00  0.00    +0.000 NA
ATOM      2  H   UNL     1       4.961   3.603  16.532  0.00  0.00    +0.000 HD
ENDROOT
BRANCH   1   3
ATOM      3  C   UNL     1       4.859   3.989  18.583  0.00  0.00    +0.000 C 
ATOM      4  C   UNL     1       4.588   5.309  19.327  0.00  0.00    +0.000 C 
ATOM      5  C   UNL     1       3.236   5.913  18.957  0.00  0.00    +0.000 C 
ATOM      6  C   UNL     1       2.121   4.958  19.351  0.00  0.00    +0.000 C 
ATOM      7  C   UNL     1       2.266   3.578  18.694  0.00  0.00    +0.000 C 
ATOM      8  C   UNL     1       3.698   3.004  18.809  0.00  0.00    +0.000 C 
BRANCH   7   9
ATOM      9  C   UNL     1       1.226   2.599  19.268  0.00  0.00    +0.000 C 
ATOM     10  F   UNL     1       1.751   1.376  19.512  0.00  0.00    +0.000 F 
ATOM     11  F   UNL     1       0.739   3.060  20.444  0.00  0.00    +0.000 F 
ATOM     12  F   UNL     1       0.172   2.418  18.443  0.00  0.00    +0.000 F 
ENDBRANCH   7   9
ENDBRANCH   1   3
BRANCH   1  13
ATOM     13  C   UNL     1       6.533   4.868  16.890  0.00  0.00    +0.000 C 
BRANCH  13  14
ATOM     14  C   UNL     1       6.636   6.396  16.957  0.00  0.00    +0.000 C 
ATOM     15  O   UNL     1       5.827   7.132  16.402  0.00  0.00    +0.000 OA
BRANCH  14  17
ATOM     16  C   UNL     1       7.885   8.238  17.692  0.00  0.00    +0.000 C 
ATOM     17  O   UNL     1       7.651   6.829  17.752  0.00  0.00    +0.000 OA
ENDBRANCH  14  17
ENDBRANCH  13  14
BRANCH  13  18
ATOM     18  C   UNL     1       6.894   4.389  15.459  0.00  0.00    +0.000 C 
ATOM     19  C   UNL     1       5.687   4.140  14.561  0.00  0.00    +0.000 C 
BRANCH  18  20
ATOM     20  O   UNL     1       7.724   5.379  14.817  0.00  0.00    +0.000 OA
ATOM     21  H   UNL     1       8.651   5.091  14.902  0.00  0.00    +0.000 HD
ENDBRANCH  18  20
ENDBRANCH  13  18
ENDBRANCH   1  13
TORSDOF 7
ENDMDL
MODEL 6
REMARK VINA RESULT:      -6.9      1.568      2.877
REMARK  Name = 
REMARK  9 active torsions:
REMARK  status: ('A' for Active; 'I' for Inactive)
REMARK    1  A    between atoms: C_1  and  O_2
REMARK    2  A    between atoms: O_2  and  C_3
REMARK    3  A    between atoms: C_3  and  C_5
REMARK    4  A    between atoms: C_5  and  N_6
REMARK    5  A    between atoms: C_5  and  C_17
REMARK    6  A    between atoms: N_6  and  C_7
REMARK    7  A    between atoms: C_11  and  C_12
REMARK    8  A    between atoms: C_17  and  C_18
REMARK    9  A    between atoms: C_17  and  O_19
REMARK                            x       y       z     vdW  Elec       q    Type
REMARK                         _______ _______ _______ _____ _____    ______ ____
ROOT
ATOM      1  N   UNL     1       5.035   4.455  17.074  0.00  0.00    +0.000 NA
ATOM      2  H   UNL     1       4.745   3.656  16.510  0.00  0.00    +0.000 HD
ENDROOT
BRANCH   1   3
ATOM      3  C   UNL     1       4.586   4.394  18.458  0.00  0.00    +0.000 C 
ATOM      4  C   UNL     1       3.963   5.760  18.795  0.00  0.00    +0.000 C 
ATOM      5  C   UNL     1       2.584   5.937  18.166  0.00  0.00    +0.000 C 
ATOM      6  C   UNL     1       1.632   4.883  18.708  0.00  0.00    +0.000 C 
ATOM      7  C   UNL     1       2.133   3.453  18.460  0.00  0.00    +0.000 C 
ATOM      8  C   UNL     1       3.619   3.260  18.844  0.00  0.00    +0.000 C 
BRANCH   7   9
ATOM      9  C   UNL     1       1.234   2.437  19.188  0.00  0.00    +0.000 C 
ATOM     10  F   UNL     1       0.782   2.908  20.372  0.00  0.00    +0.000 F 
ATOM     11  F   UNL     1       0.146   2.144  18.438  0.00  0.00    +0.000 F 
ATOM     12  F   UNL     1       1.868   1.272  19.443  0.00  0.00    +0.000 F 
ENDBRANCH   7   9
ENDBRANCH   1   3
BRANCH   1  13
ATOM     13  C   UNL     1       6.448   4.766  16.775  0.00  0.00    +0.000 C 
BRANCH  13  14
ATOM     14  C   UNL     1       6.824   6.241  16.950  0.00  0.00    +0.000 C 
ATOM     15  O   UNL     1       6.115   7.152  16.536  0.00  0.00    +0.000 OA
BRANCH  14  17
ATOM     16  C   UNL     1       7.849   6.048  19.049  0.00  0.00    +0.000 C 
ATOM     17  O   UNL     1       7.962   6.420  17.673  0.00  0.00    +0.000 OA
ENDBRANCH  14  17
ENDBRANCH  13  14
BRANCH  13  18
ATOM     18  C   UNL     1       6.712   4.338  15.307  0.00  0.00    +0.000 C 
ATOM     19  C   UNL     1       5.468   4.330  14.425  0.00  0.00    +0.000 C 
BRANCH  18  20
ATOM     20  O   UNL     1       7.669   5.237  14.710  0.00  0.00    +0.000 OA
ATOM     21  H   UNL     1       8.531   5.081  15.136  0.00  0.00    +0.000 HD
ENDBRANCH  18  20
ENDBRANCH  13  18
ENDBRANCH   1  13
TORSDOF 7
ENDMDL
MODEL 7
REMARK VINA RESULT:      -6.9      1.319      2.080
REMARK  Name = 
REMARK  9 active torsions:
REMARK  status: ('A' for Active; 'I' for Inactive)
REMARK    1  A    between atoms: C_1  and  O_2
REMARK    2  A    between atoms: O_2  and  C_3
REMARK    3  A    between atoms: C_3  and  C_5
REMARK    4  A    between atoms: C_5  and  N_6
REMARK    5  A    between atoms: C_5  and  C_17
REMARK    6  A    between atoms: N_6  and  C_7
REMARK    7  A    between atoms: C_11  and  C_12
REMARK    8  A    between atoms: C_17  and  C_18
REMARK    9  A    between atoms: C_17  and  O_19
REMARK                            x       y       z     vdW  Elec       q    Type
REMARK                         _______ _______ _______ _____ _____    ______ ____
ROOT
ATOM      1  N   UNL     1       5.287   4.495  17.758  0.00  0.00    +0.000 NA
ATOM      2  H   UNL     1       5.849   3.660  17.590  0.00  0.00    +0.000 HD
ENDROOT
BRANCH   1   3
ATOM      3  C   UNL     1       4.622   4.507  19.053  0.00  0.00    +0.000 C 
ATOM      4  C   UNL     1       3.972   5.893  19.218  0.00  0.00    +0.000 C 
ATOM      5  C   UNL     1       2.714   6.046  18.367  0.00  0.00    +0.000 C 
ATOM      6  C   UNL     1       1.673   5.026  18.802  0.00  0.00    +0.000 C 
ATOM      7  C   UNL     1       2.186   3.582  18.708  0.00  0.00    +0.000 C 
ATOM      8  C   UNL     1       3.589   3.400  19.334  0.00  0.00    +0.000 C 
BRANCH   7   9
ATOM      9  C   UNL     1       1.168   2.611  19.331  0.00  0.00    +0.000 C 
ATOM     10  F   UNL     1       0.243   2.193  18.438  0.00  0.00    +0.000 F 
ATOM     11  F   UNL     1       1.793   1.504  19.799  0.00  0.00    +0.000 F 
ATOM     12  F   UNL     1       0.497   3.157  20.368  0.00  0.00    +0.000 F 
ENDBRANCH   7   9
ENDBRANCH   1   3
BRANCH   1  13
ATOM     13  C   UNL     1       6.045   5.682  17.312  0.00  0.00    +0.000 C 
BRANCH  13  14
ATOM     14  C   UNL     1       5.960   5.960  15.807  0.00  0.00    +0.000 C 
ATOM     15  O   UNL     1       5.141   6.739  15.330  0.00  0.00    +0.000 OA
BRANCH  14  17
ATOM     16  C   UNL     1       6.460   4.214  14.325  0.00  0.00    +0.000 C 
ATOM     17  O   UNL     1       6.928   5.328  15.091  0.00  0.00    +0.000 OA
ENDBRANCH  14  17
ENDBRANCH  13  14
BRANCH  13  18
ATOM     18  C   UNL     1       7.528   5.458  17.711  0.00  0.00    +0.000 C 
ATOM     19  C   UNL     1       7.898   6.024  19.078  0.00  0.00    +0.000 C 
BRANCH  18  20
ATOM     20  O   UNL     1       7.811   4.044  17.729  0.00  0.00    +0.000 OA
ATOM     21  H   UNL     1       7.593   3.684  16.851  0.00  0.00    +0.000 HD
ENDBRANCH  18  20
ENDBRANCH  13  18
ENDBRANCH   1  13
TORSDOF 7
ENDMDL
MODEL 8
REMARK VINA RESULT:      -6.9      1.445      1.933
REMARK  Name = 
REMARK  9 active torsions:
REMARK  status: ('A' for Active; 'I' for Inactive)
REMARK    1  A    between atoms: C_1  and  O_2
REMARK    2  A    between atoms: O_2  and  C_3
REMARK    3  A    between atoms: C_3  and  C_5
REMARK    4  A    between atoms: C_5  and  N_6
REMARK    5  A    between atoms: C_5  and  C_17
REMARK    6  A    between atoms: N_6  and  C_7
REMARK    7  A    between atoms: C_11  and  C_12
REMARK    8  A    between atoms: C_17  and  C_18
REMARK    9  A    between atoms: C_17  and  O_19
REMARK                            x       y       z     vdW  Elec       q    Type
REMARK                         _______ _______ _______ _____ _____    ______ ____
ROOT
ATOM      1  N   UNL     1       5.574   3.980  18.166  0.00  0.00    +0.000 NA
ATOM      2  H   UNL     1       6.297   3.312  18.434  0.00  0.00    +0.000 HD
ENDROOT
BRANCH   1   3
ATOM      3  C   UNL     1       4.706   4.382  19.264  0.00  0.00    +0.000 C 
ATOM      4  C   UNL     1       4.127   5.762  18.905  0.00  0.00    +0.000 C 
ATOM      5  C   UNL     1       3.039   5.673  17.838  0.00  0.00    +0.000 C 
ATOM      6  C   UNL     1       1.878   4.839  18.357  0.00  0.00    +0.000 C 
ATOM      7  C   UNL     1       2.307   3.426  18.775  0.00  0.00    +0.000 C 
ATOM      8  C   UNL     1       3.573   3.419  19.665  0.00  0.00    +0.000 C 
BRANCH   7   9
ATOM      9  C   UNL     1       1.141   2.693  19.462  0.00  0.00    +0.000 C 
ATOM     10  F   UNL     1       0.272   3.548  20.048  0.00  0.00    +0.000 F 
ATOM     11  F   UNL     1       0.436   1.972  18.559  0.00  0.00    +0.000 F 
ATOM     12  F   UNL     1       1.557   1.836  20.419  0.00  0.00    +0.000 F 
ENDBRANCH   7   9
ENDBRANCH   1   3
BRANCH   1  13
ATOM     13  C   UNL     1       6.172   5.009  17.291  0.00  0.00    +0.000 C 
BRANCH  13  14
ATOM     14  C   UNL     1       6.156   4.660  15.799  0.00  0.00    +0.000 C 
ATOM     15  O   UNL     1       5.141   4.276  15.226  0.00  0.00    +0.000 OA
BRANCH  14  17
ATOM     16  C   UNL     1       7.282   4.859  13.753  0.00  0.00    +0.000 C 
ATOM     17  O   UNL     1       7.343   4.901  15.180  0.00  0.00    +0.000 OA
ENDBRANCH  14  17
ENDBRANCH  13  14
BRANCH  13  18
ATOM     18  C   UNL     1       7.639   5.213  17.756  0.00  0.00    +0.000 C 
ATOM     19  C   UNL     1       7.773   5.800  19.158  0.00  0.00    +0.000 C 
BRANCH  18  20
ATOM     20  O   UNL     1       8.327   3.946  17.742  0.00  0.00    +0.000 OA
ATOM     21  H   UNL     1       8.450   3.683  16.812  0.00  0.00    +0.000 HD
ENDBRANCH  18  20
ENDBRANCH  13  18
ENDBRANCH   1  13
TORSDOF 7
ENDMDL
MODEL 9
REMARK VINA RESULT:      -6.9      1.422      2.889
REMARK  Name = 
REMARK  9 active torsions:
REMARK  status: ('A' for Active; 'I' for Inactive)
REMARK    1  A    between atoms: C_1  and  O_2
REMARK    2  A    between atoms: O_2  and  C_3
REMARK    3  A    between atoms: C_3  and  C_5
REMARK    4  A    between atoms: C_5  and  N_6
REMARK    5  A    between atoms: C_5  and  C_17
REMARK    6  A    between atoms: N_6  and  C_7
REMARK    7  A    between atoms: C_11  and  C_12
REMARK    8  A    between atoms: C_17  and  C_18
REMARK    9  A    between atoms: C_17  and  O_19
REMARK                            x       y       z     vdW  Elec       q    Type
REMARK                         _______ _______ _______ _____ _____    ______ ____
ROOT
ATOM      1  N   UNL     1       4.767   4.542  16.944  0.00  0.00    +0.000 NA
ATOM      2  H   UNL     1       4.256   3.671  16.800  0.00  0.00    +0.000 HD
ENDROOT
BRANCH   1   3
ATOM      3  C   UNL     1       4.571   5.131  18.261  0.00  0.00    +0.000 C 
ATOM      4  C   UNL     1       3.454   6.182  18.127  0.00  0.00    +0.000 C 
ATOM      5  C   UNL     1       2.072   5.544  18.006  0.00  0.00    +0.000 C 
ATOM      6  C   UNL     1       1.764   4.744  19.261  0.00  0.00    +0.000 C 
ATOM      7  C   UNL     1       2.811   3.656  19.539  0.00  0.00    +0.000 C 
ATOM      8  C   UNL     1       4.264   4.177  19.429  0.00  0.00    +0.000 C 
BRANCH   7   9
ATOM      9  C   UNL     1       2.556   3.005  20.910  0.00  0.00    +0.000 C 
ATOM     10  F   UNL     1       2.299   3.919  21.873  0.00  0.00    +0.000 F 
ATOM     11  F   UNL     1       1.484   2.181  20.852  0.00  0.00    +0.000 F 
ATOM     12  F   UNL     1       3.603   2.266  21.337  0.00  0.00    +0.000 F 
ENDBRANCH   7   9
ENDBRANCH   1   3
BRANCH   1  13
ATOM     13  C   UNL     1       6.135   4.390  16.406  0.00  0.00    +0.000 C 
BRANCH  13  14
ATOM     14  C   UNL     1       7.224   5.074  17.238  0.00  0.00    +0.000 C 
ATOM     15  O   UNL     1       7.745   4.533  18.208  0.00  0.00    +0.000 OA
BRANCH  14  17
ATOM     16  C   UNL     1       7.569   7.347  17.695  0.00  0.00    +0.000 C 
ATOM     17  O   UNL     1       7.598   6.283  16.740  0.00  0.00    +0.000 OA
ENDBRANCH  14  17
ENDBRANCH  13  14
BRANCH  13  18
ATOM     18  C   UNL     1       6.134   4.982  14.971  0.00  0.00    +0.000 C 
ATOM     19  C   UNL     1       5.586   4.038  13.906  0.00  0.00    +0.000 C 
BRANCH  18  20
ATOM     20  O   UNL     1       5.335   6.182  14.949  0.00  0.00    +0.000 OA
ATOM     21  H   UNL     1       4.935   6.292  15.831  0.00  0.00    +0.000 HD
ENDBRANCH  18  20
ENDBRANCH  13  18
ENDBRANCH   1  13
TORSDOF 7
ENDMDL
