MODEL 1
REMARK VINA RESULT:      -8.8      0.000      0.000
REMARK  Name = 
REMARK  7 active torsions:
REMARK  status: ('A' for Active; 'I' for Inactive)
REMARK    1  A    between atoms: C_1  and  N_2
REMARK    2  A    between atoms: N_2  and  C_3
REMARK    3  A    between atoms: N_2  and  C_23
REMARK    4  A    between atoms: C_3  and  C_4
REMARK    5  A    between atoms: N_6  and  C_7
REMARK    6  A    between atoms: C_12  and  S_13
REMARK    7  A    between atoms: S_13  and  N_16
REMARK                            x       y       z     vdW  Elec       q    Type
REMARK                         _______ _______ _______ _____ _____    ______ ____
ROOT
ATOM      1  C   UNL     1       2.796   7.753  17.983  0.00  0.00    +0.000 C 
ATOM      2  O   UNL     1       2.464   8.757  17.346  0.00  0.00    +0.000 OA
ATOM      3  N   UNL     1       2.432   7.497  19.297  0.00  0.00    +0.000 N 
ATOM      4  H   UNL     1       3.097   6.913  19.795  0.00  0.00    +0.000 HD
ENDROOT
BRANCH   3   5
ATOM      5  C   UNL     1       1.616   8.382  20.018  0.00  0.00    +0.000 A 
ATOM      6  C   UNL     1       1.081   7.962  21.230  0.00  0.00    +0.000 A 
ATOM      7  C   UNL     1       0.270   8.831  21.959  0.00  0.00    +0.000 A 
ATOM      8  C   UNL     1      -0.068  10.109  21.457  0.00  0.00    +0.000 A 
ATOM      9 CL   UNL     1      -1.112  11.035  22.467  0.00  0.00    +0.000 Cl
ATOM     10  C   UNL     1       0.460  10.527  20.233  0.00  0.00    +0.000 A 
ATOM     11  C   UNL     1       1.314   9.660  19.524  0.00  0.00    +0.000 A 
BRANCH  10  12
ATOM     12  S   UNL     1      -0.056  12.022  19.383  0.00  0.00    +0.000 S 
ATOM     13  O   UNL     1      -0.467  12.959  20.413  0.00  0.00    +0.000 OA
ATOM     14  O   UNL     1       0.992  12.414  18.453  0.00  0.00    +0.000 OA
BRANCH  12  15
ATOM     15  N   UNL     1      -1.447  11.612  18.469  0.00  0.00    +0.000 NA
ATOM     16  C   UNL     1      -1.342  10.364  17.683  0.00  0.00    +0.000 C 
ATOM     17  C   UNL     1      -2.602  10.010  16.904  0.00  0.00    +0.000 C 
ATOM     18  C   UNL     1      -3.857  10.140  17.745  0.00  0.00    +0.000 C 
ATOM     19  C   UNL     1      -3.958  11.556  18.281  0.00  0.00    +0.000 C 
ATOM     20  C   UNL     1      -2.742  11.952  19.107  0.00  0.00    +0.000 C 
ENDBRANCH  12  15
ENDBRANCH  10  12
ENDBRANCH   3   5
BRANCH   1  21
ATOM     21  C   UNL     1       3.677   6.672  17.365  0.00  0.00    +0.000 C 
BRANCH  21  23
ATOM     22  C   UNL     1       5.869   6.038  18.194  0.00  0.00    +0.000 C 
ATOM     23  N   UNL     1       4.415   5.893  18.395  0.00  0.00    +0.000 NA
BRANCH  23  24
ATOM     24  C   UNL     1       4.059   4.451  18.372  0.00  0.00    +0.000 C 
ATOM     25  C   UNL     1       3.362   3.919  17.091  0.00  0.00    +0.000 C 
ATOM     26  C   UNL     1       2.638   2.630  17.498  0.00  0.00    +0.000 C 
ATOM     27  C   UNL     1       2.286   2.937  18.919  0.00  0.00    +0.000 A 
ATOM     28  C   UNL     1       1.338   2.302  19.704  0.00  0.00    +0.000 A 
ATOM     29  C   UNL     1       1.183   2.725  21.025  0.00  0.00    +0.000 A 
ATOM     30  C   UNL     1       1.987   3.751  21.545  0.00  0.00    +0.000 A 
ATOM     31  C   UNL     1       2.960   4.367  20.753  0.00  0.00    +0.000 A 
ATOM     32  C   UNL     1       3.091   3.969  19.430  0.00  0.00    +0.000 A 
ENDBRANCH  23  24
ENDBRANCH  21  23
ENDBRANCH   1  21
TORSDOF 6
ENDMDL
MODEL 2
REMARK VINA RESULT:      -8.7      1.947      3.003
REMARK  Name = 
REMARK  7 active torsions:
REMARK  status: ('A' for Active; 'I' for Inactive)
REMARK    1  A    between atoms: C_1  and  N_2
REMARK    2  A    between atoms: N_2  and  C_3
REMARK    3  A    between atoms: N_2  and  C_23
REMARK    4  A    between atoms: C_3  and  C_4
REMARK    5  A    between atoms: N_6  and  C_7
REMARK    6  A    between atoms: C_12  and  S_13
REMARK    7  A    between atoms: S_13  and  N_16
REMARK                            x       y       z     vdW  Elec       q    Type
REMARK                         _______ _______ _______ _____ _____    ______ ____
ROOT
ATOM      1  C   UNL     1       2.759   7.606  18.277  0.00  0.00    +0.000 C 
ATOM      2  O   UNL     1       2.280   7.252  19.358  0.00  0.00    +0.000 OA
ATOM      3  N   UNL     1       2.316   8.692  17.536  0.00  0.00    +0.000 N 
ATOM      4  H   UNL     1       2.482   8.596  16.538  0.00  0.00    +0.000 HD
ENDROOT
BRANCH   3   5
ATOM      5  C   UNL     1       1.266   9.507  17.984  0.00  0.00    +0.000 A 
ATOM      6  C   UNL     1       0.010   9.358  17.410  0.00  0.00    +0.000 A 
ATOM      7  C   UNL     1      -1.044  10.160  17.848  0.00  0.00    +0.000 A 
ATOM      8  C   UNL     1      -0.841  11.165  18.820  0.00  0.00    +0.000 A 
ATOM      9 CL   UNL     1      -2.240  12.090  19.213  0.00  0.00    +0.000 Cl
ATOM     10  C   UNL     1       0.425  11.325  19.390  0.00  0.00    +0.000 A 
ATOM     11  C   UNL     1       1.473  10.480  18.974  0.00  0.00    +0.000 A 
BRANCH  10  12
ATOM     12  S   UNL     1       0.870  12.691  20.465  0.00  0.00    +0.000 S 
ATOM     13  O   UNL     1       2.247  12.468  20.866  0.00  0.00    +0.000 OA
ATOM     14  O   UNL     1       0.524  13.939  19.802  0.00  0.00    +0.000 OA
BRANCH  12  15
ATOM     15  N   UNL     1      -0.108  12.551  21.867  0.00  0.00    +0.000 NA
ATOM     16  C   UNL     1      -0.950  13.728  22.171  0.00  0.00    +0.000 C 
ATOM     17  C   UNL     1      -1.828  13.563  23.404  0.00  0.00    +0.000 C 
ATOM     18  C   UNL     1      -2.550  12.229  23.427  0.00  0.00    +0.000 C 
ATOM     19  C   UNL     1      -1.532  11.107  23.361  0.00  0.00    +0.000 C 
ATOM     20  C   UNL     1      -0.650  11.194  22.123  0.00  0.00    +0.000 C 
ENDBRANCH  12  15
ENDBRANCH  10  12
ENDBRANCH   3   5
BRANCH   1  21
ATOM     21  C   UNL     1       3.914   6.848  17.630  0.00  0.00    +0.000 C 
BRANCH  21  23
ATOM     22  C   UNL     1       6.038   5.963  18.406  0.00  0.00    +0.000 C 
ATOM     23  N   UNL     1       4.575   5.914  18.581  0.00  0.00    +0.000 NA
BRANCH  23  24
ATOM     24  C   UNL     1       4.107   4.515  18.413  0.00  0.00    +0.000 C 
ATOM     25  C   UNL     1       3.389   4.169  17.080  0.00  0.00    +0.000 C 
ATOM     26  C   UNL     1       2.561   2.907  17.351  0.00  0.00    +0.000 C 
ATOM     27  C   UNL     1       2.214   3.099  18.794  0.00  0.00    +0.000 A 
ATOM     28  C   UNL     1       1.208   2.466  19.506  0.00  0.00    +0.000 A 
ATOM     29  C   UNL     1       1.068   2.767  20.861  0.00  0.00    +0.000 A 
ATOM     30  C   UNL     1       1.943   3.669  21.486  0.00  0.00    +0.000 A 
ATOM     31  C   UNL     1       2.972   4.281  20.766  0.00  0.00    +0.000 A 
ATOM     32  C   UNL     1       3.089   4.008  19.411  0.00  0.00    +0.000 A 
ENDBRANCH  23  24
ENDBRANCH  21  23
ENDBRANCH   1  21
TORSDOF 6
ENDMDL
MODEL 3
REMARK VINA RESULT:      -8.5      0.946      1.442
REMARK  Name = 
REMARK  7 active torsions:
REMARK  status: ('A' for Active; 'I' for Inactive)
REMARK    1  A    between atoms: C_1  and  N_2
REMARK    2  A    between atoms: N_2  and  C_3
REMARK    3  A    between atoms: N_2  and  C_23
REMARK    4  A    between atoms: C_3  and  C_4
REMARK    5  A    between atoms: N_6  and  C_7
REMARK    6  A    between atoms: C_12  and  S_13
REMARK    7  A    between atoms: S_13  and  N_16
REMARK                            x       y       z     vdW  Elec       q    Type
REMARK                         _______ _______ _______ _____ _____    ______ ____
ROOT
ATOM      1  C   UNL     1       2.293   8.195  18.086  0.00  0.00    +0.000 C 
ATOM      2  O   UNL     1       2.004   9.253  17.518  0.00  0.00    +0.000 OA
ATOM      3  N   UNL     1       1.982   7.897  19.404  0.00  0.00    +0.000 N 
ATOM      4  H   UNL     1       2.628   7.241  19.834  0.00  0.00    +0.000 HD
ENDROOT
BRANCH   3   5
ATOM      5  C   UNL     1       1.276   8.799  20.214  0.00  0.00    +0.000 A 
ATOM      6  C   UNL     1       1.017   8.453  21.534  0.00  0.00    +0.000 A 
ATOM      7  C   UNL     1       0.318   9.340  22.351  0.00  0.00    +0.000 A 
ATOM      8  C   UNL     1      -0.185  10.559  21.843  0.00  0.00    +0.000 A 
ATOM      9 CL   UNL     1      -1.060  11.515  22.977  0.00  0.00    +0.000 Cl
ATOM     10  C   UNL     1       0.064  10.903  20.512  0.00  0.00    +0.000 A 
ATOM     11  C   UNL     1       0.809  10.020  19.705  0.00  0.00    +0.000 A 
BRANCH  10  12
ATOM     12  S   UNL     1      -0.695  12.304  19.685  0.00  0.00    +0.000 S 
ATOM     13  O   UNL     1      -0.517  13.446  20.563  0.00  0.00    +0.000 OA
ATOM     14  O   UNL     1      -0.183  12.376  18.325  0.00  0.00    +0.000 OA
BRANCH  12  15
ATOM     15  N   UNL     1      -2.375  11.972  19.599  0.00  0.00    +0.000 NA
ATOM     16  C   UNL     1      -3.239  12.872  20.393  0.00  0.00    +0.000 C 
ATOM     17  C   UNL     1      -4.727  12.572  20.274  0.00  0.00    +0.000 C 
ATOM     18  C   UNL     1      -5.162  12.362  18.836  0.00  0.00    +0.000 C 
ATOM     19  C   UNL     1      -4.354  11.232  18.227  0.00  0.00    +0.000 C 
ATOM     20  C   UNL     1      -2.855  11.495  18.278  0.00  0.00    +0.000 C 
ENDBRANCH  12  15
ENDBRANCH  10  12
ENDBRANCH   3   5
BRANCH   1  21
ATOM     21  C   UNL     1       3.054   7.087  17.365  0.00  0.00    +0.000 C 
BRANCH  21  23
ATOM     22  C   UNL     1       5.469   6.979  17.597  0.00  0.00    +0.000 C 
ATOM     23  N   UNL     1       4.182   6.559  18.180  0.00  0.00    +0.000 NA
BRANCH  23  24
ATOM     24  C   UNL     1       4.152   5.078  18.288  0.00  0.00    +0.000 C 
ATOM     25  C   UNL     1       3.960   4.280  16.970  0.00  0.00    +0.000 C 
ATOM     26  C   UNL     1       3.436   2.897  17.376  0.00  0.00    +0.000 C 
ATOM     27  C   UNL     1       2.653   3.238  18.605  0.00  0.00    +0.000 A 
ATOM     28  C   UNL     1       1.680   2.467  19.219  0.00  0.00    +0.000 A 
ATOM     29  C   UNL     1       1.085   2.959  20.382  0.00  0.00    +0.000 A 
ATOM     30  C   UNL     1       1.485   4.190  20.923  0.00  0.00    +0.000 A 
ATOM     31  C   UNL     1       2.487   4.948  20.311  0.00  0.00    +0.000 A 
ATOM     32  C   UNL     1       3.054   4.475  19.136  0.00  0.00    +0.000 A 
ENDBRANCH  23  24
ENDBRANCH  21  23
ENDBRANCH   1  21
TORSDOF 6
ENDMDL
MODEL 4
REMARK VINA RESULT:      -8.4      3.326      8.414
REMARK  Name = 
REMARK  7 active torsions:
REMARK  status: ('A' for Active; 'I' for Inactive)
REMARK    1  A    between atoms: C_1  and  N_2
REMARK    2  A    between atoms: N_2  and  C_3
REMARK    3  A    between atoms: N_2  and  C_23
REMARK    4  A    between atoms: C_3  and  C_4
REMARK    5  A    between atoms: N_6  and  C_7
REMARK    6  A    between atoms: C_12  and  S_13
REMARK    7  A    between atoms: S_13  and  N_16
REMARK                            x       y       z     vdW  Elec       q    Type
REMARK                         _______ _______ _______ _____ _____    ______ ____
ROOT
ATOM      1  C   UNL     1       1.412   8.975  19.348  0.00  0.00    +0.000 C 
ATOM      2  O   UNL     1       1.463   8.628  18.164  0.00  0.00    +0.000 OA
ATOM      3  N   UNL     1       1.609   8.127  20.427  0.00  0.00    +0.000 N 
ATOM      4  H   UNL     1       1.124   8.423  21.269  0.00  0.00    +0.000 HD
ENDROOT
BRANCH   3   5
ATOM      5  C   UNL     1       1.910   6.768  20.248  0.00  0.00    +0.000 A 
ATOM      6  C   UNL     1       0.994   5.817  20.677  0.00  0.00    +0.000 A 
ATOM      7  C   UNL     1       1.278   4.463  20.503  0.00  0.00    +0.000 A 
ATOM      8  C   UNL     1       2.510   4.040  19.954  0.00  0.00    +0.000 A 
ATOM      9 CL   UNL     1       2.713   2.333  19.851  0.00  0.00    +0.000 Cl
ATOM     10  C   UNL     1       3.438   4.996  19.533  0.00  0.00    +0.000 A 
ATOM     11  C   UNL     1       3.124   6.362  19.672  0.00  0.00    +0.000 A 
BRANCH  10  12
ATOM     12  S   UNL     1       5.114   4.603  19.025  0.00  0.00    +0.000 S 
ATOM     13  O   UNL     1       5.962   5.657  19.553  0.00  0.00    +0.000 OA
ATOM     14  O   UNL     1       5.400   3.223  19.388  0.00  0.00    +0.000 OA
BRANCH  12  15
ATOM     15  N   UNL     1       5.148   4.716  17.315  0.00  0.00    +0.000 NA
ATOM     16  C   UNL     1       5.270   6.087  16.774  0.00  0.00    +0.000 C 
ATOM     17  C   UNL     1       5.327   6.155  15.254  0.00  0.00    +0.000 C 
ATOM     18  C   UNL     1       6.288   5.141  14.666  0.00  0.00    +0.000 C 
ATOM     19  C   UNL     1       5.883   3.748  15.109  0.00  0.00    +0.000 C 
ATOM     20  C   UNL     1       5.850   3.607  16.624  0.00  0.00    +0.000 C 
ENDBRANCH  12  15
ENDBRANCH  10  12
ENDBRANCH   3   5
BRANCH   1  21
ATOM     21  C   UNL     1       1.105  10.416  19.744  0.00  0.00    +0.000 C 
BRANCH  21  23
ATOM     22  C   UNL     1       2.098  12.213  18.448  0.00  0.00    +0.000 C 
ATOM     23  N   UNL     1       0.944  11.301  18.559  0.00  0.00    +0.000 NA
BRANCH  23  24
ATOM     24  C   UNL     1      -0.307  12.098  18.618  0.00  0.00    +0.000 C 
ATOM     25  C   UNL     1      -0.724  12.651  20.008  0.00  0.00    +0.000 C 
ATOM     26  C   UNL     1      -2.228  12.940  19.923  0.00  0.00    +0.000 C 
ATOM     27  C   UNL     1      -2.667  11.883  18.960  0.00  0.00    +0.000 A 
ATOM     28  C   UNL     1      -3.958  11.424  18.750  0.00  0.00    +0.000 A 
ATOM     29  C   UNL     1      -4.160  10.445  17.776  0.00  0.00    +0.000 A 
ATOM     30  C   UNL     1      -3.084   9.961  17.017  0.00  0.00    +0.000 A 
ATOM     31  C   UNL     1      -1.791  10.450  17.216  0.00  0.00    +0.000 A 
ATOM     32  C   UNL     1      -1.585  11.399  18.208  0.00  0.00    +0.000 A 
ENDBRANCH  23  24
ENDBRANCH  21  23
ENDBRANCH   1  21
TORSDOF 6
ENDMDL
MODEL 5
REMARK VINA RESULT:      -8.4      1.855      2.650
REMARK  Name = 
REMARK  7 active torsions:
REMARK  status: ('A' for Active; 'I' for Inactive)
REMARK    1  A    between atoms: C_1  and  N_2
REMARK    2  A    between atoms: N_2  and  C_3
REMARK    3  A    between atoms: N_2  and  C_23
REMARK    4  A    between atoms: C_3  and  C_4
REMARK    5  A    between atoms: N_6  and  C_7
REMARK    6  A    between atoms: C_12  and  S_13
REMARK    7  A    between atoms: S_13  and  N_16
REMARK                            x       y       z     vdW  Elec       q    Type
REMARK                         _______ _______ _______ _____ _____    ______ ____
ROOT
ATOM      1  C   UNL     1       2.697   7.788  18.107  0.00  0.00    +0.000 C 
ATOM      2  O   UNL     1       2.820   8.905  17.595  0.00  0.00    +0.000 OA
ATOM      3  N   UNL     1       2.015   7.532  19.287  0.00  0.00    +0.000 N 
ATOM      4  H   UNL     1       2.359   6.716  19.784  0.00  0.00    +0.000 HD
ENDROOT
BRANCH   3   5
ATOM      5  C   UNL     1       1.375   8.556  20.002  0.00  0.00    +0.000 A 
ATOM      6  C   UNL     1       1.433   8.541  21.390  0.00  0.00    +0.000 A 
ATOM      7  C   UNL     1       0.805   9.553  22.114  0.00  0.00    +0.000 A 
ATOM      8  C   UNL     1       0.056  10.560  21.462  0.00  0.00    +0.000 A 
ATOM      9 CL   UNL     1      -0.689  11.705  22.510  0.00  0.00    +0.000 Cl
ATOM     10  C   UNL     1      -0.014  10.569  20.067  0.00  0.00    +0.000 A 
ATOM     11  C   UNL     1       0.662   9.568  19.341  0.00  0.00    +0.000 A 
BRANCH  10  12
ATOM     12  S   UNL     1      -1.097  11.650  19.129  0.00  0.00    +0.000 S 
ATOM     13  O   UNL     1      -1.281  11.024  17.832  0.00  0.00    +0.000 OA
ATOM     14  O   UNL     1      -2.269  11.950  19.937  0.00  0.00    +0.000 OA
BRANCH  12  15
ATOM     15  N   UNL     1      -0.237  13.113  18.883  0.00  0.00    +0.000 NA
ATOM     16  C   UNL     1      -0.737  14.276  19.647  0.00  0.00    +0.000 C 
ATOM     17  C   UNL     1       0.063  15.554  19.431  0.00  0.00    +0.000 C 
ATOM     18  C   UNL     1       1.559  15.320  19.514  0.00  0.00    +0.000 C 
ATOM     19  C   UNL     1       1.962  14.276  18.491  0.00  0.00    +0.000 C 
ATOM     20  C   UNL     1       1.225  12.958  18.684  0.00  0.00    +0.000 C 
ENDBRANCH  12  15
ENDBRANCH  10  12
ENDBRANCH   3   5
BRANCH   1  21
ATOM     21  C   UNL     1       3.318   6.548  17.471  0.00  0.00    +0.000 C 
BRANCH  21  23
ATOM     22  C   UNL     1       5.726   6.309  17.663  0.00  0.00    +0.000 C 
ATOM     23  N   UNL     1       4.429   5.994  18.290  0.00  0.00    +0.000 NA
BRANCH  23  24
ATOM     24  C   UNL     1       4.316   4.524  18.470  0.00  0.00    +0.000 C 
ATOM     25  C   UNL     1       4.002   3.682  17.204  0.00  0.00    +0.000 C 
ATOM     26  C   UNL     1       3.419   2.354  17.703  0.00  0.00    +0.000 C 
ATOM     27  C   UNL     1       2.728   2.799  18.953  0.00  0.00    +0.000 A 
ATOM     28  C   UNL     1       1.745   2.119  19.654  0.00  0.00    +0.000 A 
ATOM     29  C   UNL     1       1.247   2.698  20.822  0.00  0.00    +0.000 A 
ATOM     30  C   UNL     1       1.750   3.925  21.281  0.00  0.00    +0.000 A 
ATOM     31  C   UNL     1       2.761   4.590  20.581  0.00  0.00    +0.000 A 
ATOM     32  C   UNL     1       3.232   4.030  19.402  0.00  0.00    +0.000 A 
ENDBRANCH  23  24
ENDBRANCH  21  23
ENDBRANCH   1  21
TORSDOF 6
ENDMDL
MODEL 6
REMARK VINA RESULT:      -8.3      2.972      4.243
REMARK  Name = 
REMARK  7 active torsions:
REMARK  status: ('A' for Active; 'I' for Inactive)
REMARK    1  A    between atoms: C_1  and  N_2
REMARK    2  A    between atoms: N_2  and  C_3
REMARK    3  A    between atoms: N_2  and  C_23
REMARK    4  A    between atoms: C_3  and  C_4
REMARK    5  A    between atoms: N_6  and  C_7
REMARK    6  A    between atoms: C_12  and  S_13
REMARK    7  A    between atoms: S_13  and  N_16
REMARK                            x       y       z     vdW  Elec       q    Type
REMARK                         _______ _______ _______ _____ _____    ______ ____
ROOT
ATOM      1  C   UNL     1       1.164   9.961  18.291  0.00  0.00    +0.000 C 
ATOM      2  O   UNL     1      -0.017   9.807  17.968  0.00  0.00    +0.000 OA
ATOM      3  N   UNL     1       1.661  11.072  18.957  0.00  0.00    +0.000 N 
ATOM      4  H   UNL     1       2.642  11.254  18.764  0.00  0.00    +0.000 HD
ENDROOT
BRANCH   3   5
ATOM      5  C   UNL     1       0.826  12.131  19.343  0.00  0.00    +0.000 A 
ATOM      6  C   UNL     1       0.662  13.204  18.476  0.00  0.00    +0.000 A 
ATOM      7  C   UNL     1      -0.167  14.263  18.844  0.00  0.00    +0.000 A 
ATOM      8  C   UNL     1      -0.793  14.293  20.111  0.00  0.00    +0.000 A 
ATOM      9 CL   UNL     1      -1.746  15.694  20.419  0.00  0.00    +0.000 Cl
ATOM     10  C   UNL     1      -0.618  13.221  20.990  0.00  0.00    +0.000 A 
ATOM     11  C   UNL     1       0.185  12.134  20.591  0.00  0.00    +0.000 A 
BRANCH  10  12
ATOM     12  S   UNL     1      -1.172  13.229  22.696  0.00  0.00    +0.000 S 
ATOM     13  O   UNL     1      -0.969  11.883  23.201  0.00  0.00    +0.000 OA
ATOM     14  O   UNL     1      -0.539  14.342  23.387  0.00  0.00    +0.000 OA
BRANCH  12  15
ATOM     15  N   UNL     1      -2.861  13.522  22.663  0.00  0.00    +0.000 NA
ATOM     16  C   UNL     1      -3.638  12.641  21.765  0.00  0.00    +0.000 C 
ATOM     17  C   UNL     1      -5.138  12.905  21.778  0.00  0.00    +0.000 C 
ATOM     18  C   UNL     1      -5.689  13.041  23.184  0.00  0.00    +0.000 C 
ATOM     19  C   UNL     1      -4.959  14.159  23.904  0.00  0.00    +0.000 C 
ATOM     20  C   UNL     1      -3.455  13.928  23.961  0.00  0.00    +0.000 C 
ENDBRANCH  12  15
ENDBRANCH  10  12
ENDBRANCH   3   5
BRANCH   1  21
ATOM     21  C   UNL     1       2.223   8.912  17.965  0.00  0.00    +0.000 C 
BRANCH  21  23
ATOM     22  C   UNL     1       1.834   7.937  20.154  0.00  0.00    +0.000 C 
ATOM     23  N   UNL     1       2.011   7.648  18.719  0.00  0.00    +0.000 NA
BRANCH  23  24
ATOM     24  C   UNL     1       3.137   6.695  18.546  0.00  0.00    +0.000 C 
ATOM     25  C   UNL     1       4.121   6.974  17.378  0.00  0.00    +0.000 C 
ATOM     26  C   UNL     1       4.820   5.642  17.076  0.00  0.00    +0.000 C 
ATOM     27  C   UNL     1       3.738   4.668  17.421  0.00  0.00    +0.000 A 
ATOM     28  C   UNL     1       3.653   3.340  17.037  0.00  0.00    +0.000 A 
ATOM     29  C   UNL     1       2.568   2.589  17.494  0.00  0.00    +0.000 A 
ATOM     30  C   UNL     1       1.607   3.165  18.338  0.00  0.00    +0.000 A 
ATOM     31  C   UNL     1       1.716   4.498  18.742  0.00  0.00    +0.000 A 
ATOM     32  C   UNL     1       2.776   5.253  18.261  0.00  0.00    +0.000 A 
ENDBRANCH  23  24
ENDBRANCH  21  23
ENDBRANCH   1  21
TORSDOF 6
ENDMDL
MODEL 7
REMARK VINA RESULT:      -8.3      2.476      3.253
REMARK  Name = 
REMARK  7 active torsions:
REMARK  status: ('A' for Active; 'I' for Inactive)
REMARK    1  A    between atoms: C_1  and  N_2
REMARK    2  A    between atoms: N_2  and  C_3
REMARK    3  A    between atoms: N_2  and  C_23
REMARK    4  A    between atoms: C_3  and  C_4
REMARK    5  A    between atoms: N_6  and  C_7
REMARK    6  A    between atoms: C_12  and  S_13
REMARK    7  A    between atoms: S_13  and  N_16
REMARK                            x       y       z     vdW  Elec       q    Type
REMARK                         _______ _______ _______ _____ _____    ______ ____
ROOT
ATOM      1  C   UNL     1       2.429   7.953  18.393  0.00  0.00    +0.000 C 
ATOM      2  O   UNL     1       2.206   7.685  19.578  0.00  0.00    +0.000 OA
ATOM      3  N   UNL     1       1.768   8.934  17.669  0.00  0.00    +0.000 N 
ATOM      4  H   UNL     1       1.735   8.746  16.671  0.00  0.00    +0.000 HD
ENDROOT
BRANCH   3   5
ATOM      5  C   UNL     1       0.776   9.735  18.254  0.00  0.00    +0.000 A 
ATOM      6  C   UNL     1      -0.520   9.665  17.757  0.00  0.00    +0.000 A 
ATOM      7  C   UNL     1      -1.517  10.454  18.330  0.00  0.00    +0.000 A 
ATOM      8  C   UNL     1      -1.220  11.369  19.365  0.00  0.00    +0.000 A 
ATOM      9 CL   UNL     1      -2.560  12.293  19.927  0.00  0.00    +0.000 Cl
ATOM     10  C   UNL     1       0.086  11.450  19.857  0.00  0.00    +0.000 A 
ATOM     11  C   UNL     1       1.078  10.617  19.303  0.00  0.00    +0.000 A 
BRANCH  10  12
ATOM     12  S   UNL     1       0.643  12.710  21.007  0.00  0.00    +0.000 S 
ATOM     13  O   UNL     1      -0.021  12.437  22.269  0.00  0.00    +0.000 OA
ATOM     14  O   UNL     1       2.096  12.763  20.973  0.00  0.00    +0.000 OA
BRANCH  12  15
ATOM     15  N   UNL     1       0.048  14.207  20.420  0.00  0.00    +0.000 NA
ATOM     16  C   UNL     1      -0.122  15.264  21.441  0.00  0.00    +0.000 C 
ATOM     17  C   UNL     1      -0.623  16.591  20.887  0.00  0.00    +0.000 C 
ATOM     18  C   UNL     1       0.122  17.014  19.636  0.00  0.00    +0.000 C 
ATOM     19  C   UNL     1      -0.007  15.929  18.583  0.00  0.00    +0.000 C 
ATOM     20  C   UNL     1       0.521  14.586  19.066  0.00  0.00    +0.000 C 
ENDBRANCH  12  15
ENDBRANCH  10  12
ENDBRANCH   3   5
BRANCH   1  21
ATOM     21  C   UNL     1       3.480   7.194  17.589  0.00  0.00    +0.000 C 
BRANCH  21  23
ATOM     22  C   UNL     1       5.753   6.553  18.151  0.00  0.00    +0.000 C 
ATOM     23  N   UNL     1       4.327   6.326  18.450  0.00  0.00    +0.000 NA
BRANCH  23  24
ATOM     24  C   UNL     1       4.013   4.885  18.278  0.00  0.00    +0.000 C 
ATOM     25  C   UNL     1       3.555   4.428  16.867  0.00  0.00    +0.000 C 
ATOM     26  C   UNL     1       2.803   3.106  17.065  0.00  0.00    +0.000 C 
ATOM     27  C   UNL     1       2.210   3.316  18.422  0.00  0.00    +0.000 A 
ATOM     28  C   UNL     1       1.158   2.619  18.994  0.00  0.00    +0.000 A 
ATOM     29  C   UNL     1       0.773   2.954  20.293  0.00  0.00    +0.000 A 
ATOM     30  C   UNL     1       1.454   3.954  21.004  0.00  0.00    +0.000 A 
ATOM     31  C   UNL     1       2.532   4.632  20.428  0.00  0.00    +0.000 A 
ATOM     32  C   UNL     1       2.893   4.322  19.125  0.00  0.00    +0.000 A 
ENDBRANCH  23  24
ENDBRANCH  21  23
ENDBRANCH   1  21
TORSDOF 6
ENDMDL
MODEL 8
REMARK VINA RESULT:      -8.3      3.481      8.571
REMARK  Name = 
REMARK  7 active torsions:
REMARK  status: ('A' for Active; 'I' for Inactive)
REMARK    1  A    between atoms: C_1  and  N_2
REMARK    2  A    between atoms: N_2  and  C_3
REMARK    3  A    between atoms: N_2  and  C_23
REMARK    4  A    between atoms: C_3  and  C_4
REMARK    5  A    between atoms: N_6  and  C_7
REMARK    6  A    between atoms: C_12  and  S_13
REMARK    7  A    between atoms: S_13  and  N_16
REMARK                            x       y       z     vdW  Elec       q    Type
REMARK                         _______ _______ _______ _____ _____    ______ ____
ROOT
ATOM      1  C   UNL     1       1.536   8.466  20.081  0.00  0.00    +0.000 C 
ATOM      2  O   UNL     1       1.465   8.417  18.850  0.00  0.00    +0.000 OA
ATOM      3  N   UNL     1       1.719   7.366  20.906  0.00  0.00    +0.000 N 
ATOM      4  H   UNL     1       1.330   7.489  21.836  0.00  0.00    +0.000 HD
ENDROOT
BRANCH   3   5
ATOM      5  C   UNL     1       1.859   6.072  20.382  0.00  0.00    +0.000 A 
ATOM      6  C   UNL     1       0.843   5.149  20.598  0.00  0.00    +0.000 A 
ATOM      7  C   UNL     1       0.967   3.860  20.081  0.00  0.00    +0.000 A 
ATOM      8  C   UNL     1       2.136   3.457  19.397  0.00  0.00    +0.000 A 
ATOM      9 CL   UNL     1       2.140   1.819  18.864  0.00  0.00    +0.000 Cl
ATOM     10  C   UNL     1       3.164   4.381  19.190  0.00  0.00    +0.000 A 
ATOM     11  C   UNL     1       3.011   5.694  19.677  0.00  0.00    +0.000 A 
BRANCH  10  12
ATOM     12  S   UNL     1       4.778   3.948  18.535  0.00  0.00    +0.000 S 
ATOM     13  O   UNL     1       5.418   3.112  19.535  0.00  0.00    +0.000 OA
ATOM     14  O   UNL     1       4.610   3.427  17.187  0.00  0.00    +0.000 OA
BRANCH  12  15
ATOM     15  N   UNL     1       5.672   5.407  18.429  0.00  0.00    +0.000 NA
ATOM     16  C   UNL     1       7.064   5.333  18.922  0.00  0.00    +0.000 C 
ATOM     17  C   UNL     1       7.843   6.634  18.788  0.00  0.00    +0.000 C 
ATOM     18  C   UNL     1       7.674   7.271  17.422  0.00  0.00    +0.000 C 
ATOM     19  C   UNL     1       6.201   7.518  17.161  0.00  0.00    +0.000 C 
ATOM     20  C   UNL     1       5.375   6.242  17.239  0.00  0.00    +0.000 C 
ENDBRANCH  12  15
ENDBRANCH  10  12
ENDBRANCH   3   5
BRANCH   1  21
ATOM     21  C   UNL     1       1.414   9.788  20.834  0.00  0.00    +0.000 C 
BRANCH  21  23
ATOM     22  C   UNL     1       1.459  12.185  20.453  0.00  0.00    +0.000 C 
ATOM     23  N   UNL     1       0.951  10.894  19.954  0.00  0.00    +0.000 NA
BRANCH  23  24
ATOM     24  C   UNL     1      -0.530  10.954  19.857  0.00  0.00    +0.000 C 
ATOM     25  C   UNL     1      -1.126  11.790  18.692  0.00  0.00    +0.000 C 
ATOM     26  C   UNL     1      -2.561  12.138  19.103  0.00  0.00    +0.000 C 
ATOM     27  C   UNL     1      -2.419  12.229  20.589  0.00  0.00    +0.000 A 
ATOM     28  C   UNL     1      -3.288  12.841  21.479  0.00  0.00    +0.000 A 
ATOM     29  C   UNL     1      -2.984  12.788  22.840  0.00  0.00    +0.000 A 
ATOM     30  C   UNL     1      -1.841  12.111  23.290  0.00  0.00    +0.000 A 
ATOM     31  C   UNL     1      -0.985  11.474  22.387  0.00  0.00    +0.000 A 
ATOM     32  C   UNL     1      -1.269  11.555  21.032  0.00  0.00    +0.000 A 
ENDBRANCH  23  24
ENDBRANCH  21  23
ENDBRANCH   1  21
TORSDOF 6
ENDMDL
MODEL 9
REMARK VINA RESULT:      -8.3      1.881      2.474
REMARK  Name = 
REMARK  7 active torsions:
REMARK  status: ('A' for Active; 'I' for Inactive)
REMARK    1  A    between atoms: C_1  and  N_2
REMARK    2  A    between atoms: N_2  and  C_3
REMARK    3  A    between atoms: N_2  and  C_23
REMARK    4  A    between atoms: C_3  and  C_4
REMARK    5  A    between atoms: N_6  and  C_7
REMARK    6  A    between atoms: C_12  and  S_13
REMARK    7  A    between atoms: S_13  and  N_16
REMARK                            x       y       z     vdW  Elec       q    Type
REMARK                         _______ _______ _______ _____ _____    ______ ____
ROOT
ATOM      1  C   UNL     1       2.599   7.978  18.055  0.00  0.00    +0.000 C 
ATOM      2  O   UNL     1       2.242   8.997  17.456  0.00  0.00    +0.000 OA
ATOM      3  N   UNL     1       2.302   7.697  19.380  0.00  0.00    +0.000 N 
ATOM      4  H   UNL     1       2.989   7.099  19.830  0.00  0.00    +0.000 HD
ENDROOT
BRANCH   3   5
ATOM      5  C   UNL     1       1.533   8.573  20.161  0.00  0.00    +0.000 A 
ATOM      6  C   UNL     1       1.413   8.325  21.523  0.00  0.00    +0.000 A 
ATOM      7  C   UNL     1       0.653   9.188  22.312  0.00  0.00    +0.000 A 
ATOM      8  C   UNL     1      -0.048  10.274  21.740  0.00  0.00    +0.000 A 
ATOM      9 CL   UNL     1      -0.970  11.211  22.852  0.00  0.00    +0.000 Cl
ATOM     10  C   UNL     1       0.062  10.517  20.369  0.00  0.00    +0.000 A 
ATOM     11  C   UNL     1       0.867   9.666  19.586  0.00  0.00    +0.000 A 
BRANCH  10  12
ATOM     12  S   UNL     1      -0.938  11.717  19.485  0.00  0.00    +0.000 S 
ATOM     13  O   UNL     1      -0.927  11.315  18.090  0.00  0.00    +0.000 OA
ATOM     14  O   UNL     1      -2.216  11.853  20.167  0.00  0.00    +0.000 OA
BRANCH  12  15
ATOM     15  N   UNL     1      -0.117  13.218  19.599  0.00  0.00    +0.000 NA
ATOM     16  C   UNL     1       0.981  13.413  18.629  0.00  0.00    +0.000 C 
ATOM     17  C   UNL     1       1.672  14.766  18.734  0.00  0.00    +0.000 C 
ATOM     18  C   UNL     1       0.685  15.914  18.832  0.00  0.00    +0.000 C 
ATOM     19  C   UNL     1      -0.219  15.697  20.031  0.00  0.00    +0.000 C 
ATOM     20  C   UNL     1      -0.972  14.376  19.960  0.00  0.00    +0.000 C 
ENDBRANCH  12  15
ENDBRANCH  10  12
ENDBRANCH   3   5
BRANCH   1  21
ATOM     21  C   UNL     1       3.438   6.903  17.369  0.00  0.00    +0.000 C 
BRANCH  21  23
ATOM     22  C   UNL     1       5.686   6.319  18.076  0.00  0.00    +0.000 C 
ATOM     23  N   UNL     1       4.249   6.120  18.339  0.00  0.00    +0.000 NA
BRANCH  23  24
ATOM     24  C   UNL     1       3.937   4.669  18.290  0.00  0.00    +0.000 C 
ATOM     25  C   UNL     1       3.238   4.142  17.007  0.00  0.00    +0.000 C 
ATOM     26  C   UNL     1       2.562   2.822  17.396  0.00  0.00    +0.000 C 
ATOM     27  C   UNL     1       2.223   3.087  18.828  0.00  0.00    +0.000 A 
ATOM     28  C   UNL     1       1.307   2.404  19.613  0.00  0.00    +0.000 A 
ATOM     29  C   UNL     1       1.160   2.793  20.945  0.00  0.00    +0.000 A 
ATOM     30  C   UNL     1       1.939   3.832  21.476  0.00  0.00    +0.000 A 
ATOM     31  C   UNL     1       2.879   4.497  20.684  0.00  0.00    +0.000 A 
ATOM     32  C   UNL     1       3.002   4.132  19.351  0.00  0.00    +0.000 A 
ENDBRANCH  23  24
ENDBRANCH  21  23
ENDBRANCH   1  21
TORSDOF 6
ENDMDL
