MODEL 1
REMARK VINA RESULT:      -7.0      0.000      0.000
REMARK  Name = 
REMARK  13 active torsions:
REMARK  status: ('A' for Active; 'I' for Inactive)
REMARK    1  A    between atoms: C_1  and  O_2
REMARK    2  A    between atoms: O_2  and  C_3
REMARK    3  A    between atoms: C_7  and  N_8
REMARK    4  A    between atoms: C_9  and  C_10
REMARK    5  A    between atoms: C_17  and  O_18
REMARK    6  A    between atoms: O_18  and  C_19
REMARK    7  A    between atoms: C_19  and  C_20
REMARK    8  A    between atoms: C_20  and  C_21
REMARK    9  A    between atoms: C_21  and  C_22
REMARK   10  A    between atoms: C_22  and  C_23
REMARK   11  A    between atoms: C_23  and  C_24
REMARK   12  A    between atoms: C_24  and  O_25
REMARK   13  A    between atoms: O_25  and  C_26
REMARK                            x       y       z     vdW  Elec       q    Type
REMARK                         _______ _______ _______ _____ _____    ______ ____
ROOT
ATOM      1  C   UNL     1       2.058   7.609  18.878  0.00  0.00    +0.000 A 
ATOM      2  C   UNL     1       1.516   8.910  18.832  0.00  0.00    +0.000 A 
ATOM      3  C   UNL     1       1.049   9.524  19.997  0.00  0.00    +0.000 A 
ATOM      4  C   UNL     1       0.518  10.881  20.037  0.00  0.00    +0.000 A 
ATOM      5  C   UNL     1      -0.117  11.329  21.136  0.00  0.00    +0.000 A 
ATOM      6  C   UNL     1      -0.317  10.354  22.255  0.00  0.00    +0.000 A 
ATOM      7  O   UNL     1      -1.235  10.485  23.060  0.00  0.00    +0.000 OA
ATOM      8  O   UNL     1       0.641   9.371  22.389  0.00  0.00    +0.000 OA
ATOM      9  C   UNL     1       1.154   8.842  21.196  0.00  0.00    +0.000 A 
ATOM     10  C   UNL     1       1.718   7.582  21.277  0.00  0.00    +0.000 A 
ATOM     11  C   UNL     1       2.174   6.944  20.113  0.00  0.00    +0.000 A 
ENDROOT
BRANCH   5  12
ATOM     12  N   UNL     1      -0.613  12.612  21.322  0.00  0.00    +0.000 N 
ATOM     13  C   UNL     1      -1.822  13.117  20.830  0.00  0.00    +0.000 C 
ATOM     14  C   UNL     1      -2.090  14.565  21.121  0.00  0.00    +0.000 C 
ATOM     15  O   UNL     1      -2.658  12.444  20.224  0.00  0.00    +0.000 OA
ATOM     16  H   UNL     1      -0.016  13.241  21.850  0.00  0.00    +0.000 HD
ENDBRANCH   5  12
BRANCH   1  18
ATOM     17  C   UNL     1       3.848   7.389  17.318  0.00  0.00    +0.000 C 
ATOM     18  O   UNL     1       2.488   7.146  17.659  0.00  0.00    +0.000 OA
ENDBRANCH   1  18
BRANCH  11  19
ATOM     19  O   UNL     1       2.751   5.711  20.136  0.00  0.00    +0.000 OA
BRANCH  19  20
ATOM     20  C   UNL     1       2.158   4.700  20.948  0.00  0.00    +0.000 C 
BRANCH  20  21
ATOM     21  C   UNL     1       0.916   4.177  20.237  0.00  0.00    +0.000 C 
BRANCH  21  22
ATOM     22  C   UNL     1       1.299   3.375  18.997  0.00  0.00    +0.000 C 
BRANCH  22  23
ATOM     23  C   UNL     1       2.171   2.173  19.349  0.00  0.00    +0.000 C 
BRANCH  23  24
ATOM     24  C   UNL     1       3.171   1.850  18.241  0.00  0.00    +0.000 C 
BRANCH  24  25
ATOM     25  C   UNL     1       3.981   3.070  17.813  0.00  0.00    +0.000 C 
BRANCH  25  26
ATOM     26  O   UNL     1       4.926   3.364  18.841  0.00  0.00    +0.000 OA
BRANCH  26  27
ATOM     27  C   UNL     1       5.758   4.382  18.540  0.00  0.00    +0.000 A 
ATOM     28  C   UNL     1       6.163   4.728  17.258  0.00  0.00    +0.000 A 
ATOM     29  N   UNL     1       7.004   5.749  17.399  0.00  0.00    +0.000 N 
ATOM     30  O   UNL     1       7.683   6.444  16.614  0.00  0.00    +0.000 OA
ATOM     31  O   UNL     1       7.113   6.056  18.801  0.00  0.00    +0.000 OA
ATOM     32  N   UNL     1       6.294   5.156  19.485  0.00  0.00    +0.000 NA
ENDBRANCH  26  27
ENDBRANCH  25  26
ENDBRANCH  24  25
ENDBRANCH  23  24
ENDBRANCH  22  23
ENDBRANCH  21  22
ENDBRANCH  20  21
ENDBRANCH  19  20
ENDBRANCH  11  19
TORSDOF 11
ENDMDL
MODEL 2
REMARK VINA RESULT:      -6.9      1.792      2.046
REMARK  Name = 
REMARK  13 active torsions:
REMARK  status: ('A' for Active; 'I' for Inactive)
REMARK    1  A    between atoms: C_1  and  O_2
REMARK    2  A    between atoms: O_2  and  C_3
REMARK    3  A    between atoms: C_7  and  N_8
REMARK    4  A    between atoms: C_9  and  C_10
REMARK    5  A    between atoms: C_17  and  O_18
REMARK    6  A    between atoms: O_18  and  C_19
REMARK    7  A    between atoms: C_19  and  C_20
REMARK    8  A    between atoms: C_20  and  C_21
REMARK    9  A    between atoms: C_21  and  C_22
REMARK   10  A    between atoms: C_22  and  C_23
REMARK   11  A    between atoms: C_23  and  C_24
REMARK   12  A    between atoms: C_24  and  O_25
REMARK   13  A    between atoms: O_25  and  C_26
REMARK                            x       y       z     vdW  Elec       q    Type
REMARK                         _______ _______ _______ _____ _____    ______ ____
ROOT
ATOM      1  C   UNL     1       2.366   7.660  18.456  0.00  0.00    +0.000 A 
ATOM      2  C   UNL     1       1.981   8.921  17.956  0.00  0.00    +0.000 A 
ATOM      3  C   UNL     1       1.312   9.833  18.777  0.00  0.00    +0.000 A 
ATOM      4  C   UNL     1       0.922  11.170  18.347  0.00  0.00    +0.000 A 
ATOM      5  C   UNL     1       0.091  11.911  19.104  0.00  0.00    +0.000 A 
ATOM      6  C   UNL     1      -0.464  11.268  20.338  0.00  0.00    +0.000 A 
ATOM      7  O   UNL     1      -1.530  11.635  20.825  0.00  0.00    +0.000 OA
ATOM      8  O   UNL     1       0.334  10.323  20.948  0.00  0.00    +0.000 OA
ATOM      9  C   UNL     1       1.062   9.484  20.092  0.00  0.00    +0.000 A 
ATOM     10  C   UNL     1       1.464   8.271  20.619  0.00  0.00    +0.000 A 
ATOM     11  C   UNL     1       2.119   7.337  19.803  0.00  0.00    +0.000 A 
ENDROOT
BRANCH   5  12
ATOM     12  N   UNL     1      -0.307  13.213  18.838  0.00  0.00    +0.000 N 
ATOM     13  C   UNL     1       0.409  14.379  19.131  0.00  0.00    +0.000 C 
ATOM     14  C   UNL     1      -0.281  15.670  18.797  0.00  0.00    +0.000 C 
ATOM     15  O   UNL     1       1.549  14.392  19.601  0.00  0.00    +0.000 OA
ATOM     16  H   UNL     1      -1.222  13.314  18.409  0.00  0.00    +0.000 HD
ENDBRANCH   5  12
BRANCH   1  18
ATOM     17  C   UNL     1       4.421   7.116  17.374  0.00  0.00    +0.000 C 
ATOM     18  O   UNL     1       3.027   6.881  17.537  0.00  0.00    +0.000 OA
ENDBRANCH   1  18
BRANCH  11  19
ATOM     19  O   UNL     1       2.552   6.133  20.272  0.00  0.00    +0.000 OA
BRANCH  19  20
ATOM     20  C   UNL     1       1.626   5.050  20.309  0.00  0.00    +0.000 C 
BRANCH  20  21
ATOM     21  C   UNL     1       2.090   4.055  21.366  0.00  0.00    +0.000 C 
BRANCH  21  22
ATOM     22  C   UNL     1       2.345   2.685  20.745  0.00  0.00    +0.000 C 
BRANCH  22  23
ATOM     23  C   UNL     1       2.089   2.690  19.241  0.00  0.00    +0.000 C 
BRANCH  23  24
ATOM     24  C   UNL     1       3.340   2.318  18.448  0.00  0.00    +0.000 C 
BRANCH  24  25
ATOM     25  C   UNL     1       4.021   3.536  17.830  0.00  0.00    +0.000 C 
BRANCH  25  26
ATOM     26  O   UNL     1       4.569   3.152  16.570  0.00  0.00    +0.000 OA
BRANCH  26  27
ATOM     27  C   UNL     1       5.655   3.866  16.209  0.00  0.00    +0.000 A 
ATOM     28  C   UNL     1       5.898   4.354  14.932  0.00  0.00    +0.000 A 
ATOM     29  N   UNL     1       7.081   4.959  14.987  0.00  0.00    +0.000 N 
ATOM     30  O   UNL     1       7.806   5.549  14.158  0.00  0.00    +0.000 OA
ATOM     31  O   UNL     1       7.580   4.859  16.333  0.00  0.00    +0.000 OA
ATOM     32  N   UNL     1       6.629   4.155  17.073  0.00  0.00    +0.000 NA
ENDBRANCH  26  27
ENDBRANCH  25  26
ENDBRANCH  24  25
ENDBRANCH  23  24
ENDBRANCH  22  23
ENDBRANCH  21  22
ENDBRANCH  20  21
ENDBRANCH  19  20
ENDBRANCH  11  19
TORSDOF 11
ENDMDL
MODEL 3
REMARK VINA RESULT:      -6.8      1.990      4.000
REMARK  Name = 
REMARK  13 active torsions:
REMARK  status: ('A' for Active; 'I' for Inactive)
REMARK    1  A    between atoms: C_1  and  O_2
REMARK    2  A    between atoms: O_2  and  C_3
REMARK    3  A    between atoms: C_7  and  N_8
REMARK    4  A    between atoms: C_9  and  C_10
REMARK    5  A    between atoms: C_17  and  O_18
REMARK    6  A    between atoms: O_18  and  C_19
REMARK    7  A    between atoms: C_19  and  C_20
REMARK    8  A    between atoms: C_20  and  C_21
REMARK    9  A    between atoms: C_21  and  C_22
REMARK   10  A    between atoms: C_22  and  C_23
REMARK   11  A    between atoms: C_23  and  C_24
REMARK   12  A    between atoms: C_24  and  O_25
REMARK   13  A    between atoms: O_25  and  C_26
REMARK                            x       y       z     vdW  Elec       q    Type
REMARK                         _______ _______ _______ _____ _____    ______ ____
ROOT
ATOM      1  C   UNL     1       2.254   7.121  19.713  0.00  0.00    +0.000 A 
ATOM      2  C   UNL     1       1.361   7.856  20.520  0.00  0.00    +0.000 A 
ATOM      3  C   UNL     1       0.860   9.085  20.084  0.00  0.00    +0.000 A 
ATOM      4  C   UNL     1      -0.100   9.880  20.840  0.00  0.00    +0.000 A 
ATOM      5  C   UNL     1      -0.369  11.147  20.476  0.00  0.00    +0.000 A 
ATOM      6  C   UNL     1       0.416  11.710  19.330  0.00  0.00    +0.000 A 
ATOM      7  O   UNL     1       0.597  12.918  19.212  0.00  0.00    +0.000 OA
ATOM      8  O   UNL     1       0.828  10.809  18.370  0.00  0.00    +0.000 OA
ATOM      9  C   UNL     1       1.237   9.552  18.838  0.00  0.00    +0.000 A 
ATOM     10  C   UNL     1       2.079   8.835  18.009  0.00  0.00    +0.000 A 
ATOM     11  C   UNL     1       2.605   7.607  18.439  0.00  0.00    +0.000 A 
ENDROOT
BRANCH   5  12
ATOM     12  N   UNL     1      -1.301  11.984  21.073  0.00  0.00    +0.000 N 
ATOM     13  C   UNL     1      -1.132  12.708  22.258  0.00  0.00    +0.000 C 
ATOM     14  C   UNL     1      -2.327  13.490  22.721  0.00  0.00    +0.000 C 
ATOM     15  O   UNL     1      -0.077  12.758  22.895  0.00  0.00    +0.000 OA
ATOM     16  H   UNL     1      -2.198  12.049  20.601  0.00  0.00    +0.000 HD
ENDBRANCH   5  12
BRANCH   1  18
ATOM     17  C   UNL     1       1.622   5.093  20.796  0.00  0.00    +0.000 C 
ATOM     18  O   UNL     1       2.646   5.928  20.267  0.00  0.00    +0.000 OA
ENDBRANCH   1  18
BRANCH  11  19
ATOM     19  O   UNL     1       3.427   6.851  17.659  0.00  0.00    +0.000 OA
BRANCH  19  20
ATOM     20  C   UNL     1       4.509   7.496  16.992  0.00  0.00    +0.000 C 
BRANCH  20  21
ATOM     21  C   UNL     1       4.970   6.604  15.846  0.00  0.00    +0.000 C 
BRANCH  21  22
ATOM     22  C   UNL     1       6.275   5.898  16.199  0.00  0.00    +0.000 C 
BRANCH  22  23
ATOM     23  C   UNL     1       6.973   6.562  17.383  0.00  0.00    +0.000 C 
BRANCH  23  24
ATOM     24  C   UNL     1       7.230   5.575  18.520  0.00  0.00    +0.000 C 
BRANCH  24  25
ATOM     25  C   UNL     1       5.966   5.261  19.315  0.00  0.00    +0.000 C 
BRANCH  25  26
ATOM     26  O   UNL     1       5.838   3.844  19.414  0.00  0.00    +0.000 OA
BRANCH  26  27
ATOM     27  C   UNL     1       4.637   3.377  19.015  0.00  0.00    +0.000 A 
ATOM     28  C   UNL     1       3.832   2.519  19.751  0.00  0.00    +0.000 A 
ATOM     29  N   UNL     1       2.767   2.270  18.994  0.00  0.00    +0.000 N 
ATOM     30  O   UNL     1       1.743   1.567  19.122  0.00  0.00    +0.000 OA
ATOM     31  O   UNL     1       2.905   3.004  17.763  0.00  0.00    +0.000 OA
ATOM     32  N   UNL     1       4.115   3.696  17.830  0.00  0.00    +0.000 NA
ENDBRANCH  26  27
ENDBRANCH  25  26
ENDBRANCH  24  25
ENDBRANCH  23  24
ENDBRANCH  22  23
ENDBRANCH  21  22
ENDBRANCH  20  21
ENDBRANCH  19  20
ENDBRANCH  11  19
TORSDOF 11
ENDMDL
MODEL 4
REMARK VINA RESULT:      -6.8      2.892      4.077
REMARK  Name = 
REMARK  13 active torsions:
REMARK  status: ('A' for Active; 'I' for Inactive)
REMARK    1  A    between atoms: C_1  and  O_2
REMARK    2  A    between atoms: O_2  and  C_3
REMARK    3  A    between atoms: C_7  and  N_8
REMARK    4  A    between atoms: C_9  and  C_10
REMARK    5  A    between atoms: C_17  and  O_18
REMARK    6  A    between atoms: O_18  and  C_19
REMARK    7  A    between atoms: C_19  and  C_20
REMARK    8  A    between atoms: C_20  and  C_21
REMARK    9  A    between atoms: C_21  and  C_22
REMARK   10  A    between atoms: C_22  and  C_23
REMARK   11  A    between atoms: C_23  and  C_24
REMARK   12  A    between atoms: C_24  and  O_25
REMARK   13  A    between atoms: O_25  and  C_26
REMARK                            x       y       z     vdW  Elec       q    Type
REMARK                         _______ _______ _______ _____ _____    ______ ____
ROOT
ATOM      1  C   UNL     1       0.539  10.390  20.142  0.00  0.00    +0.000 A 
ATOM      2  C   UNL     1      -0.707  11.048  20.076  0.00  0.00    +0.000 A 
ATOM      3  C   UNL     1      -1.515  10.920  18.943  0.00  0.00    +0.000 A 
ATOM      4  C   UNL     1      -2.832  11.532  18.819  0.00  0.00    +0.000 A 
ATOM      5  C   UNL     1      -3.459  11.558  17.628  0.00  0.00    +0.000 A 
ATOM      6  C   UNL     1      -2.711  11.013  16.450  0.00  0.00    +0.000 A 
ATOM      7  O   UNL     1      -2.958  11.387  15.307  0.00  0.00    +0.000 OA
ATOM      8  O   UNL     1      -1.810  10.002  16.712  0.00  0.00    +0.000 OA
ATOM      9  C   UNL     1      -1.082  10.117  17.904  0.00  0.00    +0.000 A 
ATOM     10  C   UNL     1       0.116   9.428  17.959  0.00  0.00    +0.000 A 
ATOM     11  C   UNL     1       0.948   9.561  19.081  0.00  0.00    +0.000 A 
ENDROOT
BRANCH   5  12
ATOM     12  N   UNL     1      -4.733  12.054  17.391  0.00  0.00    +0.000 N 
ATOM     13  C   UNL     1      -5.894  11.746  18.109  0.00  0.00    +0.000 C 
ATOM     14  C   UNL     1      -7.160  12.371  17.601  0.00  0.00    +0.000 C 
ATOM     15  O   UNL     1      -5.916  11.040  19.119  0.00  0.00    +0.000 OA
ATOM     16  H   UNL     1      -4.818  12.684  16.599  0.00  0.00    +0.000 HD
ENDBRANCH   5  12
BRANCH   1  18
ATOM     17  C   UNL     1       0.925   9.707  22.394  0.00  0.00    +0.000 C 
ATOM     18  O   UNL     1       1.211  10.598  21.321  0.00  0.00    +0.000 OA
ENDBRANCH   1  18
BRANCH  11  19
ATOM     19  O   UNL     1       2.131   8.894  19.196  0.00  0.00    +0.000 OA
BRANCH  19  20
ATOM     20  C   UNL     1       2.095   7.489  19.431  0.00  0.00    +0.000 C 
BRANCH  20  21
ATOM     21  C   UNL     1       2.717   6.783  18.232  0.00  0.00    +0.000 C 
BRANCH  21  22
ATOM     22  C   UNL     1       2.379   5.295  18.245  0.00  0.00    +0.000 C 
BRANCH  22  23
ATOM     23  C   UNL     1       2.505   4.700  19.645  0.00  0.00    +0.000 C 
BRANCH  23  24
ATOM     24  C   UNL     1       3.571   3.608  19.706  0.00  0.00    +0.000 C 
BRANCH  24  25
ATOM     25  C   UNL     1       4.432   3.564  18.448  0.00  0.00    +0.000 C 
BRANCH  25  26
ATOM     26  O   UNL     1       5.734   4.043  18.778  0.00  0.00    +0.000 OA
BRANCH  26  27
ATOM     27  C   UNL     1       6.151   5.065  18.003  0.00  0.00    +0.000 A 
ATOM     28  C   UNL     1       7.083   6.023  18.380  0.00  0.00    +0.000 A 
ATOM     29  N   UNL     1       7.181   6.866  17.357  0.00  0.00    +0.000 N 
ATOM     30  O   UNL     1       7.832   7.910  17.138  0.00  0.00    +0.000 OA
ATOM     31  O   UNL     1       6.301   6.416  16.312  0.00  0.00    +0.000 OA
ATOM     32  N   UNL     1       5.670   5.260  16.774  0.00  0.00    +0.000 NA
ENDBRANCH  26  27
ENDBRANCH  25  26
ENDBRANCH  24  25
ENDBRANCH  23  24
ENDBRANCH  22  23
ENDBRANCH  21  22
ENDBRANCH  20  21
ENDBRANCH  19  20
ENDBRANCH  11  19
TORSDOF 11
ENDMDL
MODEL 5
REMARK VINA RESULT:      -6.8      4.441      5.956
REMARK  Name = 
REMARK  13 active torsions:
REMARK  status: ('A' for Active; 'I' for Inactive)
REMARK    1  A    between atoms: C_1  and  O_2
REMARK    2  A    between atoms: O_2  and  C_3
REMARK    3  A    between atoms: C_7  and  N_8
REMARK    4  A    between atoms: C_9  and  C_10
REMARK    5  A    between atoms: C_17  and  O_18
REMARK    6  A    between atoms: O_18  and  C_19
REMARK    7  A    between atoms: C_19  and  C_20
REMARK    8  A    between atoms: C_20  and  C_21
REMARK    9  A    between atoms: C_21  and  C_22
REMARK   10  A    between atoms: C_22  and  C_23
REMARK   11  A    between atoms: C_23  and  C_24
REMARK   12  A    between atoms: C_24  and  O_25
REMARK   13  A    between atoms: O_25  and  C_26
REMARK                            x       y       z     vdW  Elec       q    Type
REMARK                         _______ _______ _______ _____ _____    ______ ____
ROOT
ATOM      1  C   UNL     1       2.892   6.364  19.408  0.00  0.00    +0.000 A 
ATOM      2  C   UNL     1       1.986   7.000  20.282  0.00  0.00    +0.000 A 
ATOM      3  C   UNL     1       1.459   8.255  19.966  0.00  0.00    +0.000 A 
ATOM      4  C   UNL     1       0.485   8.953  20.795  0.00  0.00    +0.000 A 
ATOM      5  C   UNL     1       0.189  10.244  20.554  0.00  0.00    +0.000 A 
ATOM      6  C   UNL     1       0.959  10.929  19.466  0.00  0.00    +0.000 A 
ATOM      7  O   UNL     1       1.115  12.147  19.465  0.00  0.00    +0.000 OA
ATOM      8  O   UNL     1       1.388  10.134  18.425  0.00  0.00    +0.000 OA
ATOM      9  C   UNL     1       1.823   8.846  18.770  0.00  0.00    +0.000 A 
ATOM     10  C   UNL     1       2.678   8.229  17.876  0.00  0.00    +0.000 A 
ATOM     11  C   UNL     1       3.230   6.977  18.187  0.00  0.00    +0.000 A 
ENDROOT
BRANCH   5  12
ATOM     12  N   UNL     1      -0.759  11.001  21.228  0.00  0.00    +0.000 N 
ATOM     13  C   UNL     1      -0.949  11.056  22.613  0.00  0.00    +0.000 C 
ATOM     14  C   UNL     1      -2.093  11.907  23.081  0.00  0.00    +0.000 C 
ATOM     15  O   UNL     1      -0.227  10.487  23.434  0.00  0.00    +0.000 OA
ATOM     16  H   UNL     1      -1.383  11.546  20.641  0.00  0.00    +0.000 HD
ENDBRANCH   5  12
BRANCH   1  18
ATOM     17  C   UNL     1       2.482   4.468  20.796  0.00  0.00    +0.000 C 
ATOM     18  O   UNL     1       3.310   5.132  19.846  0.00  0.00    +0.000 OA
ENDBRANCH   1  18
BRANCH  11  19
ATOM     19  O   UNL     1       4.065   6.315  17.338  0.00  0.00    +0.000 OA
BRANCH  19  20
ATOM     20  C   UNL     1       5.368   6.850  17.118  0.00  0.00    +0.000 C 
BRANCH  20  21
ATOM     21  C   UNL     1       6.360   6.073  17.976  0.00  0.00    +0.000 C 
BRANCH  21  22
ATOM     22  C   UNL     1       7.734   6.734  17.949  0.00  0.00    +0.000 C 
BRANCH  22  23
ATOM     23  C   UNL     1       7.637   8.223  17.629  0.00  0.00    +0.000 C 
BRANCH  23  24
ATOM     24  C   UNL     1       8.584   9.055  18.492  0.00  0.00    +0.000 C 
BRANCH  24  25
ATOM     25  C   UNL     1       8.658  10.510  18.039  0.00  0.00    +0.000 C 
BRANCH  25  26
ATOM     26  O   UNL     1      10.022  10.830  17.777  0.00  0.00    +0.000 OA
BRANCH  26  27
ATOM     27  C   UNL     1      10.389  12.052  18.213  0.00  0.00    +0.000 A 
ATOM     28  C   UNL     1       9.909  13.254  17.710  0.00  0.00    +0.000 A 
ATOM     29  N   UNL     1      10.544  14.214  18.376  0.00  0.00    +0.000 N 
ATOM     30  O   UNL     1      10.537  15.463  18.339  0.00  0.00    +0.000 OA
ATOM     31  O   UNL     1      11.431  13.595  19.326  0.00  0.00    +0.000 OA
ATOM     32  N   UNL     1      11.290  12.214  19.183  0.00  0.00    +0.000 NA
ENDBRANCH  26  27
ENDBRANCH  25  26
ENDBRANCH  24  25
ENDBRANCH  23  24
ENDBRANCH  22  23
ENDBRANCH  21  22
ENDBRANCH  20  21
ENDBRANCH  19  20
ENDBRANCH  11  19
TORSDOF 11
ENDMDL
MODEL 6
REMARK VINA RESULT:      -6.8      1.747      1.941
REMARK  Name = 
REMARK  13 active torsions:
REMARK  status: ('A' for Active; 'I' for Inactive)
REMARK    1  A    between atoms: C_1  and  O_2
REMARK    2  A    between atoms: O_2  and  C_3
REMARK    3  A    between atoms: C_7  and  N_8
REMARK    4  A    between atoms: C_9  and  C_10
REMARK    5  A    between atoms: C_17  and  O_18
REMARK    6  A    between atoms: O_18  and  C_19
REMARK    7  A    between atoms: C_19  and  C_20
REMARK    8  A    between atoms: C_20  and  C_21
REMARK    9  A    between atoms: C_21  and  C_22
REMARK   10  A    between atoms: C_22  and  C_23
REMARK   11  A    between atoms: C_23  and  C_24
REMARK   12  A    between atoms: C_24  and  O_25
REMARK   13  A    between atoms: O_25  and  C_26
REMARK                            x       y       z     vdW  Elec       q    Type
REMARK                         _______ _______ _______ _____ _____    ______ ____
ROOT
ATOM      1  C   UNL     1       2.287   7.283  19.011  0.00  0.00    +0.000 A 
ATOM      2  C   UNL     1       2.072   8.591  18.531  0.00  0.00    +0.000 A 
ATOM      3  C   UNL     1       1.370   9.522  19.302  0.00  0.00    +0.000 A 
ATOM      4  C   UNL     1       1.148  10.903  18.894  0.00  0.00    +0.000 A 
ATOM      5  C   UNL     1       0.280  11.679  19.570  0.00  0.00    +0.000 A 
ATOM      6  C   UNL     1      -0.487  11.036  20.685  0.00  0.00    +0.000 A 
ATOM      7  O   UNL     1      -1.577  11.471  21.044  0.00  0.00    +0.000 OA
ATOM      8  O   UNL     1       0.144  10.003  21.345  0.00  0.00    +0.000 OA
ATOM      9  C   UNL     1       0.915   9.142  20.551  0.00  0.00    +0.000 A 
ATOM     10  C   UNL     1       1.146   7.879  21.064  0.00  0.00    +0.000 A 
ATOM     11  C   UNL     1       1.833   6.927  20.295  0.00  0.00    +0.000 A 
ENDROOT
BRANCH   5  12
ATOM     12  N   UNL     1       0.025  13.021  19.322  0.00  0.00    +0.000 N 
ATOM     13  C   UNL     1       0.796  14.108  19.747  0.00  0.00    +0.000 C 
ATOM     14  C   UNL     1       0.259  15.465  19.398  0.00  0.00    +0.000 C 
ATOM     15  O   UNL     1       1.872  14.004  20.341  0.00  0.00    +0.000 OA
ATOM     16  H   UNL     1      -0.823  13.216  18.798  0.00  0.00    +0.000 HD
ENDBRANCH   5  12
BRANCH   1  18
ATOM     17  C   UNL     1       3.876   7.148  17.238  0.00  0.00    +0.000 C 
ATOM     18  O   UNL     1       3.004   6.489  18.150  0.00  0.00    +0.000 OA
ENDBRANCH   1  18
BRANCH  11  19
ATOM     19  O   UNL     1       2.102   5.673  20.754  0.00  0.00    +0.000 OA
BRANCH  19  20
ATOM     20  C   UNL     1       1.143   4.645  20.517  0.00  0.00    +0.000 C 
BRANCH  20  21
ATOM     21  C   UNL     1       1.654   3.354  21.144  0.00  0.00    +0.000 C 
BRANCH  21  22
ATOM     22  C   UNL     1       1.645   2.217  20.127  0.00  0.00    +0.000 C 
BRANCH  22  23
ATOM     23  C   UNL     1       2.744   2.386  19.082  0.00  0.00    +0.000 C 
BRANCH  23  24
ATOM     24  C   UNL     1       4.093   2.709  19.720  0.00  0.00    +0.000 C 
BRANCH  24  25
ATOM     25  C   UNL     1       4.622   4.078  19.304  0.00  0.00    +0.000 C 
BRANCH  25  26
ATOM     26  O   UNL     1       5.971   3.926  18.870  0.00  0.00    +0.000 OA
BRANCH  26  27
ATOM     27  C   UNL     1       6.157   4.199  17.562  0.00  0.00    +0.000 A 
ATOM     28  C   UNL     1       7.279   4.818  17.028  0.00  0.00    +0.000 A 
ATOM     29  N   UNL     1       7.051   4.936  15.724  0.00  0.00    +0.000 N 
ATOM     30  O   UNL     1       7.683   5.421  14.761  0.00  0.00    +0.000 OA
ATOM     31  O   UNL     1       5.763   4.363  15.435  0.00  0.00    +0.000 OA
ATOM     32  N   UNL     1       5.236   3.904  16.643  0.00  0.00    +0.000 NA
ENDBRANCH  26  27
ENDBRANCH  25  26
ENDBRANCH  24  25
ENDBRANCH  23  24
ENDBRANCH  22  23
ENDBRANCH  21  22
ENDBRANCH  20  21
ENDBRANCH  19  20
ENDBRANCH  11  19
TORSDOF 11
ENDMDL
MODEL 7
REMARK VINA RESULT:      -6.7      3.290      9.439
REMARK  Name = 
REMARK  13 active torsions:
REMARK  status: ('A' for Active; 'I' for Inactive)
REMARK    1  A    between atoms: C_1  and  O_2
REMARK    2  A    between atoms: O_2  and  C_3
REMARK    3  A    between atoms: C_7  and  N_8
REMARK    4  A    between atoms: C_9  and  C_10
REMARK    5  A    between atoms: C_17  and  O_18
REMARK    6  A    between atoms: O_18  and  C_19
REMARK    7  A    between atoms: C_19  and  C_20
REMARK    8  A    between atoms: C_20  and  C_21
REMARK    9  A    between atoms: C_21  and  C_22
REMARK   10  A    between atoms: C_22  and  C_23
REMARK   11  A    between atoms: C_23  and  C_24
REMARK   12  A    between atoms: C_24  and  O_25
REMARK   13  A    between atoms: O_25  and  C_26
REMARK                            x       y       z     vdW  Elec       q    Type
REMARK                         _______ _______ _______ _____ _____    ______ ____
ROOT
ATOM      1  C   UNL     1       2.070   4.406  18.949  0.00  0.00    +0.000 A 
ATOM      2  C   UNL     1       2.698   3.718  17.891  0.00  0.00    +0.000 A 
ATOM      3  C   UNL     1       3.776   4.295  17.213  0.00  0.00    +0.000 A 
ATOM      4  C   UNL     1       4.504   3.629  16.141  0.00  0.00    +0.000 A 
ATOM      5  C   UNL     1       5.378   4.317  15.384  0.00  0.00    +0.000 A 
ATOM      6  C   UNL     1       5.496   5.788  15.643  0.00  0.00    +0.000 A 
ATOM      7  O   UNL     1       5.874   6.563  14.769  0.00  0.00    +0.000 OA
ATOM      8  O   UNL     1       5.257   6.203  16.937  0.00  0.00    +0.000 OA
ATOM      9  C   UNL     1       4.228   5.537  17.618  0.00  0.00    +0.000 A 
ATOM     10  C   UNL     1       3.657   6.216  18.679  0.00  0.00    +0.000 A 
ATOM     11  C   UNL     1       2.562   5.660  19.357  0.00  0.00    +0.000 A 
ENDROOT
BRANCH   5  12
ATOM     12  N   UNL     1       6.175   3.790  14.377  0.00  0.00    +0.000 N 
ATOM     13  C   UNL     1       5.786   3.529  13.059  0.00  0.00    +0.000 C 
ATOM     14  C   UNL     1       6.828   2.892  12.185  0.00  0.00    +0.000 C 
ATOM     15  O   UNL     1       4.682   3.818  12.592  0.00  0.00    +0.000 OA
ATOM     16  H   UNL     1       7.124   3.554  14.647  0.00  0.00    +0.000 HD
ENDBRANCH   5  12
BRANCH   1  18
ATOM     17  C   UNL     1       1.376   2.806  20.576  0.00  0.00    +0.000 C 
ATOM     18  O   UNL     1       1.038   3.707  19.527  0.00  0.00    +0.000 OA
ENDBRANCH   1  18
BRANCH  11  19
ATOM     19  O   UNL     1       1.970   6.277  20.418  0.00  0.00    +0.000 OA
BRANCH  19  20
ATOM     20  C   UNL     1       1.697   7.672  20.323  0.00  0.00    +0.000 C 
BRANCH  20  21
ATOM     21  C   UNL     1       1.020   8.121  21.612  0.00  0.00    +0.000 C 
BRANCH  21  22
ATOM     22  C   UNL     1       0.169   9.364  21.374  0.00  0.00    +0.000 C 
BRANCH  22  23
ATOM     23  C   UNL     1       0.380   9.932  19.973  0.00  0.00    +0.000 C 
BRANCH  23  24
ATOM     24  C   UNL     1      -0.132  11.366  19.856  0.00  0.00    +0.000 C 
BRANCH  24  25
ATOM     25  C   UNL     1      -1.562  11.432  19.327  0.00  0.00    +0.000 C 
BRANCH  25  26
ATOM     26  O   UNL     1      -1.801  10.271  18.534  0.00  0.00    +0.000 OA
BRANCH  26  27
ATOM     27  C   UNL     1      -2.551  10.505  17.438  0.00  0.00    +0.000 A 
ATOM     28  C   UNL     1      -2.410   9.850  16.221  0.00  0.00    +0.000 A 
ATOM     29  N   UNL     1      -3.302  10.397  15.402  0.00  0.00    +0.000 N 
ATOM     30  O   UNL     1      -3.612  10.232  14.202  0.00  0.00    +0.000 OA
ATOM     31  O   UNL     1      -4.027  11.407  16.128  0.00  0.00    +0.000 OA
ATOM     32  N   UNL     1      -3.510  11.432  17.424  0.00  0.00    +0.000 NA
ENDBRANCH  26  27
ENDBRANCH  25  26
ENDBRANCH  24  25
ENDBRANCH  23  24
ENDBRANCH  22  23
ENDBRANCH  21  22
ENDBRANCH  20  21
ENDBRANCH  19  20
ENDBRANCH  11  19
TORSDOF 11
ENDMDL
MODEL 8
REMARK VINA RESULT:      -6.7      1.833      2.105
REMARK  Name = 
REMARK  13 active torsions:
REMARK  status: ('A' for Active; 'I' for Inactive)
REMARK    1  A    between atoms: C_1  and  O_2
REMARK    2  A    between atoms: O_2  and  C_3
REMARK    3  A    between atoms: C_7  and  N_8
REMARK    4  A    between atoms: C_9  and  C_10
REMARK    5  A    between atoms: C_17  and  O_18
REMARK    6  A    between atoms: O_18  and  C_19
REMARK    7  A    between atoms: C_19  and  C_20
REMARK    8  A    between atoms: C_20  and  C_21
REMARK    9  A    between atoms: C_21  and  C_22
REMARK   10  A    between atoms: C_22  and  C_23
REMARK   11  A    between atoms: C_23  and  C_24
REMARK   12  A    between atoms: C_24  and  O_25
REMARK   13  A    between atoms: O_25  and  C_26
REMARK                            x       y       z     vdW  Elec       q    Type
REMARK                         _______ _______ _______ _____ _____    ______ ____
ROOT
ATOM      1  C   UNL     1       2.236   6.732  18.873  0.00  0.00    +0.000 A 
ATOM      2  C   UNL     1       2.181   8.009  18.277  0.00  0.00    +0.000 A 
ATOM      3  C   UNL     1       1.688   9.103  18.994  0.00  0.00    +0.000 A 
ATOM      4  C   UNL     1       1.641  10.460  18.464  0.00  0.00    +0.000 A 
ATOM      5  C   UNL     1       0.954  11.419  19.112  0.00  0.00    +0.000 A 
ATOM      6  C   UNL     1       0.191  11.005  20.334  0.00  0.00    +0.000 A 
ATOM      7  O   UNL     1      -0.792  11.634  20.716  0.00  0.00    +0.000 OA
ATOM      8  O   UNL     1       0.712   9.950  21.053  0.00  0.00    +0.000 OA
ATOM      9  C   UNL     1       1.282   8.912  20.302  0.00  0.00    +0.000 A 
ATOM     10  C   UNL     1       1.363   7.680  20.924  0.00  0.00    +0.000 A 
ATOM     11  C   UNL     1       1.838   6.568  20.212  0.00  0.00    +0.000 A 
ENDROOT
BRANCH   5  12
ATOM     12  N   UNL     1       0.881  12.756  18.747  0.00  0.00    +0.000 N 
ATOM     13  C   UNL     1       1.667  13.800  19.247  0.00  0.00    +0.000 C 
ATOM     14  C   UNL     1       1.338  15.169  18.729  0.00  0.00    +0.000 C 
ATOM     15  O   UNL     1       2.602  13.646  20.036  0.00  0.00    +0.000 OA
ATOM     16  H   UNL     1       0.165  12.985  18.064  0.00  0.00    +0.000 HD
ENDBRANCH   5  12
BRANCH   1  18
ATOM     17  C   UNL     1       1.836   4.861  17.449  0.00  0.00    +0.000 C 
ATOM     18  O   UNL     1       2.758   5.762  18.052  0.00  0.00    +0.000 OA
ENDBRANCH   1  18
BRANCH  11  19
ATOM     19  O   UNL     1       1.954   5.334  20.778  0.00  0.00    +0.000 OA
BRANCH  19  20
ATOM     20  C   UNL     1       0.907   4.391  20.565  0.00  0.00    +0.000 C 
BRANCH  20  21
ATOM     21  C   UNL     1       1.473   2.989  20.757  0.00  0.00    +0.000 C 
BRANCH  21  22
ATOM     22  C   UNL     1       2.838   3.045  21.436  0.00  0.00    +0.000 C 
BRANCH  22  23
ATOM     23  C   UNL     1       3.880   2.229  20.675  0.00  0.00    +0.000 C 
BRANCH  23  24
ATOM     24  C   UNL     1       3.698   2.341  19.163  0.00  0.00    +0.000 C 
BRANCH  24  25
ATOM     25  C   UNL     1       4.777   3.200  18.509  0.00  0.00    +0.000 C 
BRANCH  25  26
ATOM     26  O   UNL     1       5.384   4.004  19.519  0.00  0.00    +0.000 OA
BRANCH  26  27
ATOM     27  C   UNL     1       6.255   4.915  19.039  0.00  0.00    +0.000 A 
ATOM     28  C   UNL     1       6.225   5.448  17.758  0.00  0.00    +0.000 A 
ATOM     29  N   UNL     1       7.268   6.269  17.675  0.00  0.00    +0.000 N 
ATOM     30  O   UNL     1       7.748   6.993  16.776  0.00  0.00    +0.000 OA
ATOM     31  O   UNL     1       7.955   6.258  18.939  0.00  0.00    +0.000 OA
ATOM     32  N   UNL     1       7.265   5.380  19.775  0.00  0.00    +0.000 NA
ENDBRANCH  26  27
ENDBRANCH  25  26
ENDBRANCH  24  25
ENDBRANCH  23  24
ENDBRANCH  22  23
ENDBRANCH  21  22
ENDBRANCH  20  21
ENDBRANCH  19  20
ENDBRANCH  11  19
TORSDOF 11
ENDMDL
MODEL 9
REMARK VINA RESULT:      -6.6      2.737      4.260
REMARK  Name = 
REMARK  13 active torsions:
REMARK  status: ('A' for Active; 'I' for Inactive)
REMARK    1  A    between atoms: C_1  and  O_2
REMARK    2  A    between atoms: O_2  and  C_3
REMARK    3  A    between atoms: C_7  and  N_8
REMARK    4  A    between atoms: C_9  and  C_10
REMARK    5  A    between atoms: C_17  and  O_18
REMARK    6  A    between atoms: O_18  and  C_19
REMARK    7  A    between atoms: C_19  and  C_20
REMARK    8  A    between atoms: C_20  and  C_21
REMARK    9  A    between atoms: C_21  and  C_22
REMARK   10  A    between atoms: C_22  and  C_23
REMARK   11  A    between atoms: C_23  and  C_24
REMARK   12  A    between atoms: C_24  and  O_25
REMARK   13  A    between atoms: O_25  and  C_26
REMARK                            x       y       z     vdW  Elec       q    Type
REMARK                         _______ _______ _______ _____ _____    ______ ____
ROOT
ATOM      1  C   UNL     1      -1.893  10.305  17.406  0.00  0.00    +0.000 A 
ATOM      2  C   UNL     1      -2.870  11.145  17.981  0.00  0.00    +0.000 A 
ATOM      3  C   UNL     1      -2.679  11.683  19.256  0.00  0.00    +0.000 A 
ATOM      4  C   UNL     1      -3.619  12.593  19.897  0.00  0.00    +0.000 A 
ATOM      5  C   UNL     1      -3.489  12.896  21.202  0.00  0.00    +0.000 A 
ATOM      6  C   UNL     1      -2.402  12.197  21.960  0.00  0.00    +0.000 A 
ATOM      7  O   UNL     1      -2.474  12.033  23.175  0.00  0.00    +0.000 OA
ATOM      8  O   UNL     1      -1.280  11.846  21.238  0.00  0.00    +0.000 OA
ATOM      9  C   UNL     1      -1.504  11.398  19.929  0.00  0.00    +0.000 A 
ATOM     10  C   UNL     1      -0.513  10.611  19.373  0.00  0.00    +0.000 A 
ATOM     11  C   UNL     1      -0.698  10.047  18.101  0.00  0.00    +0.000 A 
ENDROOT
BRANCH   5  12
ATOM     12  N   UNL     1      -4.278  13.790  21.912  0.00  0.00    +0.000 N 
ATOM     13  C   UNL     1      -5.475  13.499  22.575  0.00  0.00    +0.000 C 
ATOM     14  C   UNL     1      -6.167  14.668  23.214  0.00  0.00    +0.000 C 
ATOM     15  O   UNL     1      -5.950  12.366  22.683  0.00  0.00    +0.000 OA
ATOM     16  H   UNL     1      -3.951  14.751  21.923  0.00  0.00    +0.000 HD
ENDBRANCH   5  12
BRANCH   1  18
ATOM     17  C   UNL     1      -3.037  10.719  15.354  0.00  0.00    +0.000 C 
ATOM     18  O   UNL     1      -2.215   9.867  16.145  0.00  0.00    +0.000 OA
ENDBRANCH   1  18
BRANCH  11  19
ATOM     19  O   UNL     1       0.251   9.277  17.499  0.00  0.00    +0.000 OA
BRANCH  19  20
ATOM     20  C   UNL     1       1.609   9.438  17.902  0.00  0.00    +0.000 C 
BRANCH  20  21
ATOM     21  C   UNL     1       2.108   8.110  18.457  0.00  0.00    +0.000 C 
BRANCH  21  22
ATOM     22  C   UNL     1       3.307   7.605  17.660  0.00  0.00    +0.000 C 
BRANCH  22  23
ATOM     23  C   UNL     1       3.439   6.087  17.740  0.00  0.00    +0.000 C 
BRANCH  23  24
ATOM     24  C   UNL     1       4.496   5.555  16.775  0.00  0.00    +0.000 C 
BRANCH  24  25
ATOM     25  C   UNL     1       5.204   6.672  16.014  0.00  0.00    +0.000 C 
BRANCH  25  26
ATOM     26  O   UNL     1       6.594   6.359  15.948  0.00  0.00    +0.000 OA
BRANCH  26  27
ATOM     27  C   UNL     1       7.075   5.774  17.064  0.00  0.00    +0.000 A 
ATOM     28  C   UNL     1       7.043   6.335  18.334  0.00  0.00    +0.000 A 
ATOM     29  N   UNL     1       7.648   5.465  19.137  0.00  0.00    +0.000 N 
ATOM     30  O   UNL     1       7.928   5.439  20.355  0.00  0.00    +0.000 OA
ATOM     31  O   UNL     1       8.052   4.328  18.352  0.00  0.00    +0.000 OA
ATOM     32  N   UNL     1       7.659   4.575  17.037  0.00  0.00    +0.000 NA
ENDBRANCH  26  27
ENDBRANCH  25  26
ENDBRANCH  24  25
ENDBRANCH  23  24
ENDBRANCH  22  23
ENDBRANCH  21  22
ENDBRANCH  20  21
ENDBRANCH  19  20
ENDBRANCH  11  19
TORSDOF 11
ENDMDL
