MODEL 1
REMARK VINA RESULT:      -8.1      0.000      0.000
REMARK  Name = 
REMARK  5 active torsions:
REMARK  status: ('A' for Active; 'I' for Inactive)
REMARK    1  A    between atoms: C_1  and  C_2
REMARK    2  A    between atoms: C_5  and  C_6
REMARK    3  A    between atoms: C_9  and  C_10
REMARK    4  A    between atoms: C_13  and  C_14
REMARK    5  A    between atoms: N_15  and  C_16
REMARK                            x       y       z     vdW  Elec       q    Type
REMARK                         _______ _______ _______ _____ _____    ______ ____
ROOT
ATOM      1  C   UNL     1       1.628   8.979  19.731  0.00  0.00    +0.000 A 
ATOM      2  C   UNL     1       2.042   8.362  18.539  0.00  0.00    +0.000 A 
ATOM      3  C   UNL     1       2.227   6.963  18.466  0.00  0.00    +0.000 A 
ATOM      4  C   UNL     1       2.044   6.172  19.605  0.00  0.00    +0.000 A 
ATOM      5  C   UNL     1       1.615   6.779  20.792  0.00  0.00    +0.000 A 
ATOM      6  C   UNL     1       1.414   8.159  20.851  0.00  0.00    +0.000 A 
ENDROOT
BRANCH   1  10
ATOM      7  C   UNL     1      -0.934  10.842  18.438  0.00  0.00    +0.000 C 
ATOM      8  O   UNL     1      -0.934  10.094  19.676  0.00  0.00    +0.000 OA
ATOM      9  O   UNL     1       0.097  10.674  20.554  0.00  0.00    +0.000 OA
ATOM     10  C   UNL     1       1.353  10.483  19.872  0.00  0.00    +0.000 C 
ATOM     11  O   UNL     1       1.354  11.188  18.609  0.00  0.00    +0.000 OA
ATOM     12  O   UNL     1       0.042  11.894  18.480  0.00  0.00    +0.000 OA
BRANCH   7  17
ATOM     13  C   UNL     1      -6.584  11.987  17.499  0.00  0.00    +0.000 C 
ATOM     14  C   UNL     1      -5.127  11.703  17.706  0.00  0.00    +0.000 A 
ATOM     15  C   UNL     1      -4.501  12.104  18.883  0.00  0.00    +0.000 A 
ATOM     16  C   UNL     1      -3.143  11.863  19.071  0.00  0.00    +0.000 A 
ATOM     17  C   UNL     1      -2.358  11.227  18.089  0.00  0.00    +0.000 A 
ATOM     18  C   UNL     1      -2.990  10.832  16.903  0.00  0.00    +0.000 A 
ATOM     19  C   UNL     1      -4.362  11.071  16.716  0.00  0.00    +0.000 A 
ENDBRANCH   7  17
ENDBRANCH   1  10
BRANCH   4  20
ATOM     20  C   UNL     1       2.203   4.703  19.694  0.00  0.00    +0.000 C 
ATOM     21  N   UNL     1       3.033   3.848  19.182  0.00  0.00    +0.000 NA
BRANCH  21  22
ATOM     22  C   UNL     1       4.106   4.104  18.333  0.00  0.00    +0.000 A 
ATOM     23  C   UNL     1       5.383   4.474  18.760  0.00  0.00    +0.000 A 
ATOM     24  C   UNL     1       6.389   4.753  17.831  0.00  0.00    +0.000 A 
ATOM     25  C   UNL     1       6.145   4.575  16.471  0.00  0.00    +0.000 A 
ATOM     26 CL   UNL     1       7.378   4.932  15.328  0.00  0.00    +0.000 Cl
ATOM     27  C   UNL     1       4.913   4.098  16.035  0.00  0.00    +0.000 A 
ATOM     28  C   UNL     1       3.901   3.870  16.967  0.00  0.00    +0.000 A 
ENDBRANCH  21  22
ENDBRANCH   4  20
TORSDOF 4
ENDMDL
MODEL 2
REMARK VINA RESULT:      -7.9      0.191      1.300
REMARK  Name = 
REMARK  5 active torsions:
REMARK  status: ('A' for Active; 'I' for Inactive)
REMARK    1  A    between atoms: C_1  and  C_2
REMARK    2  A    between atoms: C_5  and  C_6
REMARK    3  A    between atoms: C_9  and  C_10
REMARK    4  A    between atoms: C_13  and  C_14
REMARK    5  A    between atoms: N_15  and  C_16
REMARK                            x       y       z     vdW  Elec       q    Type
REMARK                         _______ _______ _______ _____ _____    ______ ____
ROOT
ATOM      1  C   UNL     1       1.586   8.975  19.673  0.00  0.00    +0.000 A 
ATOM      2  C   UNL     1       2.010   8.314  18.509  0.00  0.00    +0.000 A 
ATOM      3  C   UNL     1       2.215   6.916  18.495  0.00  0.00    +0.000 A 
ATOM      4  C   UNL     1       2.040   6.171  19.666  0.00  0.00    +0.000 A 
ATOM      5  C   UNL     1       1.602   6.821  20.826  0.00  0.00    +0.000 A 
ATOM      6  C   UNL     1       1.381   8.200  20.827  0.00  0.00    +0.000 A 
ENDROOT
BRANCH   1  10
ATOM      7  C   UNL     1      -1.130  10.710  18.525  0.00  0.00    +0.000 C 
ATOM      8  O   UNL     1      -0.995  10.038  19.799  0.00  0.00    +0.000 OA
ATOM      9  O   UNL     1       0.100  10.690  20.538  0.00  0.00    +0.000 OA
ATOM     10  C   UNL     1       1.290  10.480  19.752  0.00  0.00    +0.000 C 
ATOM     11  O   UNL     1       1.155  11.106  18.454  0.00  0.00    +0.000 OA
ATOM     12  O   UNL     1      -0.180  11.780  18.411  0.00  0.00    +0.000 OA
BRANCH   7  17
ATOM     13  C   UNL     1      -6.586  12.342  17.225  0.00  0.00    +0.000 C 
ATOM     14  C   UNL     1      -5.197  11.915  17.592  0.00  0.00    +0.000 A 
ATOM     15  C   UNL     1      -4.441  11.163  16.696  0.00  0.00    +0.000 A 
ATOM     16  C   UNL     1      -3.160  10.744  17.041  0.00  0.00    +0.000 A 
ATOM     17  C   UNL     1      -2.590  11.047  18.293  0.00  0.00    +0.000 A 
ATOM     18  C   UNL     1      -3.356  11.796  19.195  0.00  0.00    +0.000 A 
ATOM     19  C   UNL     1      -4.648  12.224  18.845  0.00  0.00    +0.000 A 
ENDBRANCH   7  17
ENDBRANCH   1  10
BRANCH   4  20
ATOM     20  C   UNL     1       2.219   4.710  19.817  0.00  0.00    +0.000 C 
ATOM     21  N   UNL     1       3.011   3.833  19.281  0.00  0.00    +0.000 NA
BRANCH  21  22
ATOM     22  C   UNL     1       4.008   4.050  18.334  0.00  0.00    +0.000 A 
ATOM     23  C   UNL     1       3.818   3.982  16.953  0.00  0.00    +0.000 A 
ATOM     24  C   UNL     1       4.890   4.174  16.078  0.00  0.00    +0.000 A 
ATOM     25  C   UNL     1       6.142   4.523  16.581  0.00  0.00    +0.000 A 
ATOM     26 CL   UNL     1       7.464   4.745  15.506  0.00  0.00    +0.000 Cl
ATOM     27  C   UNL     1       6.322   4.706  17.948  0.00  0.00    +0.000 A 
ATOM     28  C   UNL     1       5.256   4.464  18.816  0.00  0.00    +0.000 A 
ENDBRANCH  21  22
ENDBRANCH   4  20
TORSDOF 4
ENDMDL
MODEL 3
REMARK VINA RESULT:      -7.9      2.450      3.358
REMARK  Name = 
REMARK  5 active torsions:
REMARK  status: ('A' for Active; 'I' for Inactive)
REMARK    1  A    between atoms: C_1  and  C_2
REMARK    2  A    between atoms: C_5  and  C_6
REMARK    3  A    between atoms: C_9  and  C_10
REMARK    4  A    between atoms: C_13  and  C_14
REMARK    5  A    between atoms: N_15  and  C_16
REMARK                            x       y       z     vdW  Elec       q    Type
REMARK                         _______ _______ _______ _____ _____    ______ ____
ROOT
ATOM      1  C   UNL     1       1.416   9.774  19.499  0.00  0.00    +0.000 A 
ATOM      2  C   UNL     1       1.575   8.606  20.262  0.00  0.00    +0.000 A 
ATOM      3  C   UNL     1       2.139   7.437  19.701  0.00  0.00    +0.000 A 
ATOM      4  C   UNL     1       2.505   7.414  18.352  0.00  0.00    +0.000 A 
ATOM      5  C   UNL     1       2.364   8.581  17.590  0.00  0.00    +0.000 A 
ATOM      6  C   UNL     1       1.827   9.739  18.156  0.00  0.00    +0.000 A 
ENDROOT
BRANCH   1  10
ATOM      7  C   UNL     1      -1.496  11.397  18.727  0.00  0.00    +0.000 C 
ATOM      8  O   UNL     1      -1.312  10.347  19.705  0.00  0.00    +0.000 OA
ATOM      9  O   UNL     1      -0.381  10.845  20.732  0.00  0.00    +0.000 OA
ATOM     10  C   UNL     1       0.864  11.097  20.051  0.00  0.00    +0.000 C 
ATOM     11  O   UNL     1       0.690  12.113  19.037  0.00  0.00    +0.000 OA
ATOM     12  O   UNL     1      -0.737  12.562  19.084  0.00  0.00    +0.000 OA
BRANCH   7  17
ATOM     13  C   UNL     1      -7.070  12.516  17.385  0.00  0.00    +0.000 C 
ATOM     14  C   UNL     1      -5.650  12.215  17.761  0.00  0.00    +0.000 A 
ATOM     15  C   UNL     1      -4.779  11.680  16.816  0.00  0.00    +0.000 A 
ATOM     16  C   UNL     1      -3.467  11.377  17.166  0.00  0.00    +0.000 A 
ATOM     17  C   UNL     1      -2.978  11.584  18.470  0.00  0.00    +0.000 A 
ATOM     18  C   UNL     1      -3.860  12.114  19.421  0.00  0.00    +0.000 A 
ATOM     19  C   UNL     1      -5.183  12.425  19.066  0.00  0.00    +0.000 A 
ENDBRANCH   7  17
ENDBRANCH   1  10
BRANCH   4  20
ATOM     20  C   UNL     1       3.100   6.275  17.618  0.00  0.00    +0.000 C 
ATOM     21  N   UNL     1       3.146   4.994  17.816  0.00  0.00    +0.000 NA
BRANCH  21  22
ATOM     22  C   UNL     1       2.590   4.273  18.869  0.00  0.00    +0.000 A 
ATOM     23  C   UNL     1       1.246   3.906  18.957  0.00  0.00    +0.000 A 
ATOM     24  C   UNL     1       0.769   3.217  20.076  0.00  0.00    +0.000 A 
ATOM     25  C   UNL     1       1.656   2.815  21.072  0.00  0.00    +0.000 A 
ATOM     26 CL   UNL     1       1.067   1.980  22.454  0.00  0.00    +0.000 Cl
ATOM     27  C   UNL     1       3.017   3.073  20.946  0.00  0.00    +0.000 A 
ATOM     28  C   UNL     1       3.475   3.803  19.849  0.00  0.00    +0.000 A 
ENDBRANCH  21  22
ENDBRANCH   4  20
TORSDOF 4
ENDMDL
MODEL 4
REMARK VINA RESULT:      -7.9      4.403      9.924
REMARK  Name = 
REMARK  5 active torsions:
REMARK  status: ('A' for Active; 'I' for Inactive)
REMARK    1  A    between atoms: C_1  and  C_2
REMARK    2  A    between atoms: C_5  and  C_6
REMARK    3  A    between atoms: C_9  and  C_10
REMARK    4  A    between atoms: C_13  and  C_14
REMARK    5  A    between atoms: N_15  and  C_16
REMARK                            x       y       z     vdW  Elec       q    Type
REMARK                         _______ _______ _______ _____ _____    ______ ____
ROOT
ATOM      1  C   UNL     1      -0.618  10.582  18.899  0.00  0.00    +0.000 A 
ATOM      2  C   UNL     1      -1.436   9.528  18.462  0.00  0.00    +0.000 A 
ATOM      3  C   UNL     1      -2.615   9.775  17.723  0.00  0.00    +0.000 A 
ATOM      4  C   UNL     1      -3.011  11.088  17.454  0.00  0.00    +0.000 A 
ATOM      5  C   UNL     1      -2.191  12.144  17.872  0.00  0.00    +0.000 A 
ATOM      6  C   UNL     1      -1.016  11.893  18.584  0.00  0.00    +0.000 A 
ENDROOT
BRANCH   1  10
ATOM      7  C   UNL     1       1.682   8.063  18.641  0.00  0.00    +0.000 C 
ATOM      8  O   UNL     1       1.600   9.259  17.832  0.00  0.00    +0.000 OA
ATOM      9  O   UNL     1       1.798  10.418  18.718  0.00  0.00    +0.000 OA
ATOM     10  C   UNL     1       0.704  10.392  19.657  0.00  0.00    +0.000 C 
ATOM     11  O   UNL     1       0.743   9.180  20.445  0.00  0.00    +0.000 OA
ATOM     12  O   UNL     1       1.942   8.395  20.014  0.00  0.00    +0.000 OA
BRANCH   7  17
ATOM     13  C   UNL     1       5.390   4.050  16.575  0.00  0.00    +0.000 C 
ATOM     14  C   UNL     1       4.445   5.100  17.076  0.00  0.00    +0.000 A 
ATOM     15  C   UNL     1       3.226   4.728  17.637  0.00  0.00    +0.000 A 
ATOM     16  C   UNL     1       2.335   5.700  18.083  0.00  0.00    +0.000 A 
ATOM     17  C   UNL     1       2.619   7.075  17.975  0.00  0.00    +0.000 A 
ATOM     18  C   UNL     1       3.843   7.445  17.403  0.00  0.00    +0.000 A 
ATOM     19  C   UNL     1       4.745   6.464  16.958  0.00  0.00    +0.000 A 
ENDBRANCH   7  17
ENDBRANCH   1  10
BRANCH   4  20
ATOM     20  C   UNL     1      -4.213  11.512  16.703  0.00  0.00    +0.000 C 
ATOM     21  N   UNL     1      -5.446  11.756  17.027  0.00  0.00    +0.000 NA
BRANCH  21  22
ATOM     22  C   UNL     1      -6.025  11.688  18.291  0.00  0.00    +0.000 A 
ATOM     23  C   UNL     1      -6.655  10.558  18.814  0.00  0.00    +0.000 A 
ATOM     24  C   UNL     1      -7.246  10.596  20.080  0.00  0.00    +0.000 A 
ATOM     25  C   UNL     1      -7.130  11.742  20.865  0.00  0.00    +0.000 A 
ATOM     26 CL   UNL     1      -7.870  11.793  22.415  0.00  0.00    +0.000 Cl
ATOM     27  C   UNL     1      -6.408  12.837  20.404  0.00  0.00    +0.000 A 
ATOM     28  C   UNL     1      -5.864  12.806  19.120  0.00  0.00    +0.000 A 
ENDBRANCH  21  22
ENDBRANCH   4  20
TORSDOF 4
ENDMDL
MODEL 5
REMARK VINA RESULT:      -7.9      0.741      1.177
REMARK  Name = 
REMARK  5 active torsions:
REMARK  status: ('A' for Active; 'I' for Inactive)
REMARK    1  A    between atoms: C_1  and  C_2
REMARK    2  A    between atoms: C_5  and  C_6
REMARK    3  A    between atoms: C_9  and  C_10
REMARK    4  A    between atoms: C_13  and  C_14
REMARK    5  A    between atoms: N_15  and  C_16
REMARK                            x       y       z     vdW  Elec       q    Type
REMARK                         _______ _______ _______ _____ _____    ______ ____
ROOT
ATOM      1  C   UNL     1       1.342   9.650  19.752  0.00  0.00    +0.000 A 
ATOM      2  C   UNL     1       1.824   8.911  18.659  0.00  0.00    +0.000 A 
ATOM      3  C   UNL     1       2.073   7.524  18.767  0.00  0.00    +0.000 A 
ATOM      4  C   UNL     1       1.882   6.871  19.989  0.00  0.00    +0.000 A 
ATOM      5  C   UNL     1       1.385   7.598  21.078  0.00  0.00    +0.000 A 
ATOM      6  C   UNL     1       1.122   8.965  20.959  0.00  0.00    +0.000 A 
ENDROOT
BRANCH   1  10
ATOM      7  C   UNL     1      -1.479  11.178  18.562  0.00  0.00    +0.000 C 
ATOM      8  O   UNL     1      -1.268  10.640  19.888  0.00  0.00    +0.000 OA
ATOM      9  O   UNL     1      -0.167  11.395  20.511  0.00  0.00    +0.000 OA
ATOM     10  C   UNL     1       0.996  11.145  19.696  0.00  0.00    +0.000 C 
ATOM     11  O   UNL     1       0.786  11.636  18.352  0.00  0.00    +0.000 OA
ATOM     12  O   UNL     1      -0.572  12.261  18.303  0.00  0.00    +0.000 OA
BRANCH   7  17
ATOM     13  C   UNL     1      -7.032  12.600  17.436  0.00  0.00    +0.000 C 
ATOM     14  C   UNL     1      -5.617  12.222  17.757  0.00  0.00    +0.000 A 
ATOM     15  C   UNL     1      -4.815  11.637  16.780  0.00  0.00    +0.000 A 
ATOM     16  C   UNL     1      -3.508  11.263  17.080  0.00  0.00    +0.000 A 
ATOM     17  C   UNL     1      -2.958  11.446  18.363  0.00  0.00    +0.000 A 
ATOM     18  C   UNL     1      -3.771  12.027  19.345  0.00  0.00    +0.000 A 
ATOM     19  C   UNL     1      -5.088  12.409  19.042  0.00  0.00    +0.000 A 
ENDBRANCH   7  17
ENDBRANCH   1  10
BRANCH   4  20
ATOM     20  C   UNL     1       2.101   5.434  20.266  0.00  0.00    +0.000 C 
ATOM     21  N   UNL     1       2.935   4.543  19.825  0.00  0.00    +0.000 NA
BRANCH  21  22
ATOM     22  C   UNL     1       3.952   4.714  18.890  0.00  0.00    +0.000 A 
ATOM     23  C   UNL     1       5.213   5.237  19.178  0.00  0.00    +0.000 A 
ATOM     24  C   UNL     1       6.159   5.411  18.163  0.00  0.00    +0.000 A 
ATOM     25  C   UNL     1       5.874   4.978  16.869  0.00  0.00    +0.000 A 
ATOM     26 CL   UNL     1       7.031   5.206  15.619  0.00  0.00    +0.000 Cl
ATOM     27  C   UNL     1       4.665   4.351  16.589  0.00  0.00    +0.000 A 
ATOM     28  C   UNL     1       3.710   4.226  17.599  0.00  0.00    +0.000 A 
ENDBRANCH  21  22
ENDBRANCH   4  20
TORSDOF 4
ENDMDL
MODEL 6
REMARK VINA RESULT:      -7.9      4.333      9.832
REMARK  Name = 
REMARK  5 active torsions:
REMARK  status: ('A' for Active; 'I' for Inactive)
REMARK    1  A    between atoms: C_1  and  C_2
REMARK    2  A    between atoms: C_5  and  C_6
REMARK    3  A    between atoms: C_9  and  C_10
REMARK    4  A    between atoms: C_13  and  C_14
REMARK    5  A    between atoms: N_15  and  C_16
REMARK                            x       y       z     vdW  Elec       q    Type
REMARK                         _______ _______ _______ _____ _____    ______ ____
ROOT
ATOM      1  C   UNL     1      -0.418  10.648  18.972  0.00  0.00    +0.000 A 
ATOM      2  C   UNL     1      -0.665  11.937  18.473  0.00  0.00    +0.000 A 
ATOM      3  C   UNL     1      -1.833  12.222  17.730  0.00  0.00    +0.000 A 
ATOM      4  C   UNL     1      -2.745  11.203  17.439  0.00  0.00    +0.000 A 
ATOM      5  C   UNL     1      -2.513   9.919  17.948  0.00  0.00    +0.000 A 
ATOM      6  C   UNL     1      -1.367   9.648  18.699  0.00  0.00    +0.000 A 
ENDROOT
BRANCH   1  10
ATOM      7  C   UNL     1       1.732   8.006  18.652  0.00  0.00    +0.000 C 
ATOM      8  O   UNL     1       1.815   9.287  17.986  0.00  0.00    +0.000 OA
ATOM      9  O   UNL     1       1.988  10.322  19.020  0.00  0.00    +0.000 OA
ATOM     10  C   UNL     1       0.798  10.274  19.833  0.00  0.00    +0.000 C 
ATOM     11  O   UNL     1       0.672   8.982  20.471  0.00  0.00    +0.000 OA
ATOM     12  O   UNL     1       1.859   8.162  20.073  0.00  0.00    +0.000 OA
BRANCH   7  17
ATOM     13  C   UNL     1       5.456   4.037  16.531  0.00  0.00    +0.000 C 
ATOM     14  C   UNL     1       4.507   5.077  17.046  0.00  0.00    +0.000 A 
ATOM     15  C   UNL     1       3.295   4.690  17.612  0.00  0.00    +0.000 A 
ATOM     16  C   UNL     1       2.399   5.652  18.071  0.00  0.00    +0.000 A 
ATOM     17  C   UNL     1       2.672   7.030  17.972  0.00  0.00    +0.000 A 
ATOM     18  C   UNL     1       3.889   7.414  17.394  0.00  0.00    +0.000 A 
ATOM     19  C   UNL     1       4.795   6.444  16.935  0.00  0.00    +0.000 A 
ENDBRANCH   7  17
ENDBRANCH   1  10
BRANCH   4  20
ATOM     20  C   UNL     1      -4.004  11.336  16.673  0.00  0.00    +0.000 C 
ATOM     21  N   UNL     1      -5.247  11.522  16.997  0.00  0.00    +0.000 NA
BRANCH  21  22
ATOM     22  C   UNL     1      -5.783  11.667  18.273  0.00  0.00    +0.000 A 
ATOM     23  C   UNL     1      -5.586  12.779  19.094  0.00  0.00    +0.000 A 
ATOM     24  C   UNL     1      -6.131  12.818  20.381  0.00  0.00    +0.000 A 
ATOM     25  C   UNL     1      -6.952  11.780  20.817  0.00  0.00    +0.000 A 
ATOM     26 CL   UNL     1      -7.611  11.822  22.404  0.00  0.00    +0.000 Cl
ATOM     27  C   UNL     1      -7.252  10.719  19.970  0.00  0.00    +0.000 A 
ATOM     28  C   UNL     1      -6.663  10.666  18.706  0.00  0.00    +0.000 A 
ENDBRANCH  21  22
ENDBRANCH   4  20
TORSDOF 4
ENDMDL
MODEL 7
REMARK VINA RESULT:      -7.8      2.422      3.099
REMARK  Name = 
REMARK  5 active torsions:
REMARK  status: ('A' for Active; 'I' for Inactive)
REMARK    1  A    between atoms: C_1  and  C_2
REMARK    2  A    between atoms: C_5  and  C_6
REMARK    3  A    between atoms: C_9  and  C_10
REMARK    4  A    between atoms: C_13  and  C_14
REMARK    5  A    between atoms: N_15  and  C_16
REMARK                            x       y       z     vdW  Elec       q    Type
REMARK                         _______ _______ _______ _____ _____    ______ ____
ROOT
ATOM      1  C   UNL     1       1.407   9.426  19.708  0.00  0.00    +0.000 A 
ATOM      2  C   UNL     1       1.701   9.613  18.348  0.00  0.00    +0.000 A 
ATOM      3  C   UNL     1       2.311   8.592  17.585  0.00  0.00    +0.000 A 
ATOM      4  C   UNL     1       2.675   7.386  18.192  0.00  0.00    +0.000 A 
ATOM      5  C   UNL     1       2.370   7.186  19.544  0.00  0.00    +0.000 A 
ATOM      6  C   UNL     1       1.748   8.192  20.287  0.00  0.00    +0.000 A 
ENDROOT
BRANCH   1  10
ATOM      7  C   UNL     1      -1.345  11.336  19.011  0.00  0.00    +0.000 C 
ATOM      8  O   UNL     1      -1.325   9.989  19.537  0.00  0.00    +0.000 OA
ATOM      9  O   UNL     1      -0.652  10.026  20.847  0.00  0.00    +0.000 OA
ATOM     10  C   UNL     1       0.696  10.465  20.588  0.00  0.00    +0.000 C 
ATOM     11  O   UNL     1       0.695  11.794  20.018  0.00  0.00    +0.000 OA
ATOM     12  O   UNL     1      -0.727  12.250  19.930  0.00  0.00    +0.000 OA
BRANCH   7  17
ATOM     13  C   UNL     1      -6.930  12.235  17.557  0.00  0.00    +0.000 C 
ATOM     14  C   UNL     1      -5.486  12.016  17.897  0.00  0.00    +0.000 A 
ATOM     15  C   UNL     1      -5.005  12.381  19.152  0.00  0.00    +0.000 A 
ATOM     16  C   UNL     1      -3.661  12.201  19.465  0.00  0.00    +0.000 A 
ATOM     17  C   UNL     1      -2.747  11.665  18.538  0.00  0.00    +0.000 A 
ATOM     18  C   UNL     1      -3.233  11.307  17.274  0.00  0.00    +0.000 A 
ATOM     19  C   UNL     1      -4.591  11.483  16.959  0.00  0.00    +0.000 A 
ENDBRANCH   7  17
ENDBRANCH   1  10
BRANCH   4  20
ATOM     20  C   UNL     1       3.323   6.228  17.536  0.00  0.00    +0.000 C 
ATOM     21  N   UNL     1       3.363   4.954  17.780  0.00  0.00    +0.000 NA
BRANCH  21  22
ATOM     22  C   UNL     1       2.744   4.265  18.819  0.00  0.00    +0.000 A 
ATOM     23  C   UNL     1       1.386   3.945  18.860  0.00  0.00    +0.000 A 
ATOM     24  C   UNL     1       0.844   3.285  19.967  0.00  0.00    +0.000 A 
ATOM     25  C   UNL     1       1.680   2.863  20.999  0.00  0.00    +0.000 A 
ATOM     26 CL   UNL     1       1.011   2.065  22.367  0.00  0.00    +0.000 Cl
ATOM     27  C   UNL     1       3.053   3.073  20.922  0.00  0.00    +0.000 A 
ATOM     28  C   UNL     1       3.575   3.776  19.835  0.00  0.00    +0.000 A 
ENDBRANCH  21  22
ENDBRANCH   4  20
TORSDOF 4
ENDMDL
MODEL 8
REMARK VINA RESULT:      -7.7      0.496      1.036
REMARK  Name = 
REMARK  5 active torsions:
REMARK  status: ('A' for Active; 'I' for Inactive)
REMARK    1  A    between atoms: C_1  and  C_2
REMARK    2  A    between atoms: C_5  and  C_6
REMARK    3  A    between atoms: C_9  and  C_10
REMARK    4  A    between atoms: C_13  and  C_14
REMARK    5  A    between atoms: N_15  and  C_16
REMARK                            x       y       z     vdW  Elec       q    Type
REMARK                         _______ _______ _______ _____ _____    ______ ____
ROOT
ATOM      1  C   UNL     1       1.710   8.381  19.781  0.00  0.00    +0.000 A 
ATOM      2  C   UNL     1       1.431   7.614  20.924  0.00  0.00    +0.000 A 
ATOM      3  C   UNL     1       1.582   6.208  20.915  0.00  0.00    +0.000 A 
ATOM      4  C   UNL     1       1.970   5.553  19.742  0.00  0.00    +0.000 A 
ATOM      5  C   UNL     1       2.266   6.314  18.604  0.00  0.00    +0.000 A 
ATOM      6  C   UNL     1       2.135   7.704  18.626  0.00  0.00    +0.000 A 
ENDROOT
BRANCH   1  10
ATOM      7  C   UNL     1      -0.684  10.369  18.357  0.00  0.00    +0.000 C 
ATOM      8  O   UNL     1      -0.701   9.792  19.683  0.00  0.00    +0.000 OA
ATOM      9  O   UNL     1       0.440  10.347  20.431  0.00  0.00    +0.000 OA
ATOM     10  C   UNL     1       1.623   9.914  19.730  0.00  0.00    +0.000 C 
ATOM     11  O   UNL     1       1.635  10.443  18.384  0.00  0.00    +0.000 OA
ATOM     12  O   UNL     1       0.411  11.287  18.216  0.00  0.00    +0.000 OA
BRANCH   7  17
ATOM     13  C   UNL     1      -6.209  12.052  17.487  0.00  0.00    +0.000 C 
ATOM     14  C   UNL     1      -4.784  11.626  17.675  0.00  0.00    +0.000 A 
ATOM     15  C   UNL     1      -4.081  12.034  18.805  0.00  0.00    +0.000 A 
ATOM     16  C   UNL     1      -2.751  11.661  18.974  0.00  0.00    +0.000 A 
ATOM     17  C   UNL     1      -2.070  10.881  18.019  0.00  0.00    +0.000 A 
ATOM     18  C   UNL     1      -2.779  10.479  16.880  0.00  0.00    +0.000 A 
ATOM     19  C   UNL     1      -4.124  10.851  16.712  0.00  0.00    +0.000 A 
ENDBRANCH   7  17
ENDBRANCH   1  10
BRANCH   4  20
ATOM     20  C   UNL     1       2.167   4.096  19.568  0.00  0.00    +0.000 C 
ATOM     21  N   UNL     1       3.034   3.368  18.936  0.00  0.00    +0.000 NA
BRANCH  21  22
ATOM     22  C   UNL     1       4.123   3.798  18.183  0.00  0.00    +0.000 A 
ATOM     23  C   UNL     1       5.344   4.209  18.720  0.00  0.00    +0.000 A 
ATOM     24  C   UNL     1       6.369   4.667  17.886  0.00  0.00    +0.000 A 
ATOM     25  C   UNL     1       6.205   4.629  16.503  0.00  0.00    +0.000 A 
ATOM     26 CL   UNL     1       7.459   5.205  15.478  0.00  0.00    +0.000 Cl
ATOM     27  C   UNL     1       5.037   4.116  15.948  0.00  0.00    +0.000 A 
ATOM     28  C   UNL     1       4.003   3.708  16.790  0.00  0.00    +0.000 A 
ENDBRANCH  21  22
ENDBRANCH   4  20
TORSDOF 4
ENDMDL
MODEL 9
REMARK VINA RESULT:      -7.7      4.375      9.859
REMARK  Name = 
REMARK  5 active torsions:
REMARK  status: ('A' for Active; 'I' for Inactive)
REMARK    1  A    between atoms: C_1  and  C_2
REMARK    2  A    between atoms: C_5  and  C_6
REMARK    3  A    between atoms: C_9  and  C_10
REMARK    4  A    between atoms: C_13  and  C_14
REMARK    5  A    between atoms: N_15  and  C_16
REMARK                            x       y       z     vdW  Elec       q    Type
REMARK                         _______ _______ _______ _____ _____    ______ ____
ROOT
ATOM      1  C   UNL     1      -0.703  10.572  18.958  0.00  0.00    +0.000 A 
ATOM      2  C   UNL     1      -1.212   9.596  18.086  0.00  0.00    +0.000 A 
ATOM      3  C   UNL     1      -2.334   9.860  17.269  0.00  0.00    +0.000 A 
ATOM      4  C   UNL     1      -2.986  11.094  17.352  0.00  0.00    +0.000 A 
ATOM      5  C   UNL     1      -2.474  12.077  18.207  0.00  0.00    +0.000 A 
ATOM      6  C   UNL     1      -1.352  11.817  18.997  0.00  0.00    +0.000 A 
ENDROOT
BRANCH   1  10
ATOM      7  C   UNL     1       1.629   8.068  18.889  0.00  0.00    +0.000 C 
ATOM      8  O   UNL     1       1.615   9.274  18.089  0.00  0.00    +0.000 OA
ATOM      9  O   UNL     1       1.721  10.423  19.005  0.00  0.00    +0.000 OA
ATOM     10  C   UNL     1       0.543  10.379  19.835  0.00  0.00    +0.000 C 
ATOM     11  O   UNL     1       0.516   9.157  20.609  0.00  0.00    +0.000 OA
ATOM     12  O   UNL     1       1.755   8.385  20.283  0.00  0.00    +0.000 OA
BRANCH   7  17
ATOM     13  C   UNL     1       5.344   4.502  16.132  0.00  0.00    +0.000 C 
ATOM     14  C   UNL     1       4.390   5.395  16.868  0.00  0.00    +0.000 A 
ATOM     15  C   UNL     1       4.577   6.774  16.853  0.00  0.00    +0.000 A 
ATOM     16  C   UNL     1       3.708   7.606  17.553  0.00  0.00    +0.000 A 
ATOM     17  C   UNL     1       2.631   7.094  18.302  0.00  0.00    +0.000 A 
ATOM     18  C   UNL     1       2.451   5.705  18.321  0.00  0.00    +0.000 A 
ATOM     19  C   UNL     1       3.325   4.865  17.610  0.00  0.00    +0.000 A 
ENDBRANCH   7  17
ENDBRANCH   1  10
BRANCH   4  20
ATOM     20  C   UNL     1      -4.170  11.521  16.572  0.00  0.00    +0.000 C 
ATOM     21  N   UNL     1      -5.399  11.806  16.874  0.00  0.00    +0.000 NA
BRANCH  21  22
ATOM     22  C   UNL     1      -5.993  11.794  18.132  0.00  0.00    +0.000 A 
ATOM     23  C   UNL     1      -6.163  12.920  18.940  0.00  0.00    +0.000 A 
ATOM     24  C   UNL     1      -6.735  12.805  20.210  0.00  0.00    +0.000 A 
ATOM     25  C   UNL     1      -7.220  11.572  20.641  0.00  0.00    +0.000 A 
ATOM     26 CL   UNL     1      -7.910  11.426  22.209  0.00  0.00    +0.000 Cl
ATOM     27  C   UNL     1      -7.162  10.462  19.804  0.00  0.00    +0.000 A 
ATOM     28  C   UNL     1      -6.546  10.579  18.558  0.00  0.00    +0.000 A 
ENDBRANCH  21  22
ENDBRANCH   4  20
TORSDOF 4
ENDMDL
