MODEL 1
REMARK VINA RESULT:      -7.1      0.000      0.000
REMARK  Name = 
REMARK  9 active torsions:
REMARK  status: ('A' for Active; 'I' for Inactive)
REMARK    1  A    between atoms: N_1  and  S_2
REMARK    2  A    between atoms: S_2  and  N_5
REMARK    3  A    between atoms: N_5  and  C_6
REMARK    4  A    between atoms: C_6  and  C_7
REMARK    5  A    between atoms: C_7  and  C_8
REMARK    6  A    between atoms: C_8  and  C_9
REMARK    7  A    between atoms: C_9  and  C_10
REMARK    8  A    between atoms: C_10  and  C_11
REMARK    9  A    between atoms: N_13  and  C_14
REMARK                            x       y       z     vdW  Elec       q    Type
REMARK                         _______ _______ _______ _____ _____    ______ ____
ROOT
ATOM      1  C   UNL     1       2.018   4.272  20.513  0.00  0.00    +0.000 C 
ATOM      2  O   UNL     1       0.800   4.188  20.384  0.00  0.00    +0.000 OA
ATOM      3  N   UNL     1       2.808   5.366  20.203  0.00  0.00    +0.000 N 
ATOM      4  H   UNL     1       3.808   5.214  20.161  0.00  0.00    +0.000 HD
ENDROOT
BRANCH   3   5
ATOM      5  C   UNL     1       2.337   6.616  19.748  0.00  0.00    +0.000 A 
ATOM      6  C   UNL     1       2.525   7.065  18.443  0.00  0.00    +0.000 A 
ATOM      7  C   UNL     1       2.114   8.348  18.069  0.00  0.00    +0.000 A 
ATOM      8  C   UNL     1       1.521   9.213  18.971  0.00  0.00    +0.000 A 
ATOM      9  N   UNL     1       1.210  10.457  18.574  0.00  0.00    +0.000 NA
ATOM     10  C   UNL     1       0.665  11.293  19.480  0.00  0.00    +0.000 A 
ATOM     11  C   UNL     1       0.382  10.935  20.784  0.00  0.00    +0.000 A 
ATOM     12  C   UNL     1       0.686   9.638  21.187  0.00  0.00    +0.000 A 
ATOM     13  C   UNL     1       1.281   8.748  20.281  0.00  0.00    +0.000 A 
ATOM     14  C   UNL     1       1.666   7.443  20.653  0.00  0.00    +0.000 A 
ENDBRANCH   3   5
BRANCH   1  15
ATOM     15  C   UNL     1       2.803   3.097  21.058  0.00  0.00    +0.000 C 
BRANCH  15  16
ATOM     16  C   UNL     1       3.848   2.595  20.064  0.00  0.00    +0.000 C 
BRANCH  16  17
ATOM     17  C   UNL     1       3.262   2.104  18.733  0.00  0.00    +0.000 C 
BRANCH  17  18
ATOM     18  C   UNL     1       3.589   2.967  17.507  0.00  0.00    +0.000 C 
BRANCH  18  19
ATOM     19  C   UNL     1       4.804   3.882  17.664  0.00  0.00    +0.000 C 
BRANCH  19  20
ATOM     20  N   UNL     1       5.776   3.631  16.577  0.00  0.00    +0.000 NA
ATOM     21  H   UNL     1       6.192   2.703  16.659  0.00  0.00    +0.000 HD
BRANCH  20  22
ATOM     22  S   UNL     1       7.051   4.709  16.540  0.00  0.00    +0.000 S 
ATOM     23  O   UNL     1       7.437   4.913  15.173  0.00  0.00    +0.000 OA
ATOM     24  O   UNL     1       7.971   4.408  17.602  0.00  0.00    +0.000 OA
BRANCH  22  25
ATOM     25  N   UNL     1       6.169   6.036  17.019  0.00  0.00    +0.000 NA
ATOM     26  H   UNL     1       6.749   6.871  16.927  0.00  0.00    +0.000 HD
ATOM     27  H   UNL     1       5.879   5.904  17.988  0.00  0.00    +0.000 HD
ENDBRANCH  22  25
ENDBRANCH  20  22
ENDBRANCH  19  20
ENDBRANCH  18  19
ENDBRANCH  17  18
ENDBRANCH  16  17
ENDBRANCH  15  16
ENDBRANCH   1  15
TORSDOF 9
ENDMDL
MODEL 2
REMARK VINA RESULT:      -7.0      1.847      2.722
REMARK  Name = 
REMARK  9 active torsions:
REMARK  status: ('A' for Active; 'I' for Inactive)
REMARK    1  A    between atoms: N_1  and  S_2
REMARK    2  A    between atoms: S_2  and  N_5
REMARK    3  A    between atoms: N_5  and  C_6
REMARK    4  A    between atoms: C_6  and  C_7
REMARK    5  A    between atoms: C_7  and  C_8
REMARK    6  A    between atoms: C_8  and  C_9
REMARK    7  A    between atoms: C_9  and  C_10
REMARK    8  A    between atoms: C_10  and  C_11
REMARK    9  A    between atoms: N_13  and  C_14
REMARK                            x       y       z     vdW  Elec       q    Type
REMARK                         _______ _______ _______ _____ _____    ______ ____
ROOT
ATOM      1  C   UNL     1       2.274   4.276  17.700  0.00  0.00    +0.000 C 
ATOM      2  O   UNL     1       1.095   4.382  17.372  0.00  0.00    +0.000 OA
ATOM      3  N   UNL     1       3.007   5.178  18.453  0.00  0.00    +0.000 N 
ATOM      4  H   UNL     1       4.012   5.061  18.460  0.00  0.00    +0.000 HD
ENDROOT
BRANCH   3   5
ATOM      5  C   UNL     1       2.501   6.355  19.043  0.00  0.00    +0.000 A 
ATOM      6  C   UNL     1       2.013   6.399  20.346  0.00  0.00    +0.000 A 
ATOM      7  C   UNL     1       1.444   7.571  20.852  0.00  0.00    +0.000 A 
ATOM      8  C   UNL     1       1.337   8.716  20.084  0.00  0.00    +0.000 A 
ATOM      9  N   UNL     1       0.719   9.791  20.599  0.00  0.00    +0.000 NA
ATOM     10  C   UNL     1       0.596  10.884  19.819  0.00  0.00    +0.000 A 
ATOM     11  C   UNL     1       1.093  10.971  18.533  0.00  0.00    +0.000 A 
ATOM     12  C   UNL     1       1.752   9.863  18.010  0.00  0.00    +0.000 A 
ATOM     13  C   UNL     1       1.874   8.697  18.780  0.00  0.00    +0.000 A 
ATOM     14  C   UNL     1       2.478   7.525  18.278  0.00  0.00    +0.000 A 
ENDBRANCH   3   5
BRANCH   1  15
ATOM     15  C   UNL     1       3.072   3.062  17.269  0.00  0.00    +0.000 C 
BRANCH  15  16
ATOM     16  C   UNL     1       4.559   3.377  17.118  0.00  0.00    +0.000 C 
BRANCH  16  17
ATOM     17  C   UNL     1       4.960   3.845  15.713  0.00  0.00    +0.000 C 
BRANCH  17  18
ATOM     18  C   UNL     1       5.474   5.288  15.618  0.00  0.00    +0.000 C 
BRANCH  18  19
ATOM     19  C   UNL     1       6.991   5.444  15.725  0.00  0.00    +0.000 C 
BRANCH  19  20
ATOM     20  N   UNL     1       7.333   6.369  16.828  0.00  0.00    +0.000 NA
ATOM     21  H   UNL     1       8.265   6.764  16.705  0.00  0.00    +0.000 HD
BRANCH  20  22
ATOM     22  S   UNL     1       7.326   5.659  18.340  0.00  0.00    +0.000 S 
ATOM     23  O   UNL     1       8.029   4.411  18.261  0.00  0.00    +0.000 OA
ATOM     24  O   UNL     1       6.032   5.820  18.944  0.00  0.00    +0.000 OA
BRANCH  22  25
ATOM     25  N   UNL     1       8.340   6.767  19.056  0.00  0.00    +0.000 NA
ATOM     26  H   UNL     1       7.796   7.584  19.334  0.00  0.00    +0.000 HD
ATOM     27  H   UNL     1       9.065   7.027  18.387  0.00  0.00    +0.000 HD
ENDBRANCH  22  25
ENDBRANCH  20  22
ENDBRANCH  19  20
ENDBRANCH  18  19
ENDBRANCH  17  18
ENDBRANCH  16  17
ENDBRANCH  15  16
ENDBRANCH   1  15
TORSDOF 9
ENDMDL
MODEL 3
REMARK VINA RESULT:      -7.0      5.373      7.292
REMARK  Name = 
REMARK  9 active torsions:
REMARK  status: ('A' for Active; 'I' for Inactive)
REMARK    1  A    between atoms: N_1  and  S_2
REMARK    2  A    between atoms: S_2  and  N_5
REMARK    3  A    between atoms: N_5  and  C_6
REMARK    4  A    between atoms: C_6  and  C_7
REMARK    5  A    between atoms: C_7  and  C_8
REMARK    6  A    between atoms: C_8  and  C_9
REMARK    7  A    between atoms: C_9  and  C_10
REMARK    8  A    between atoms: C_10  and  C_11
REMARK    9  A    between atoms: N_13  and  C_14
REMARK                            x       y       z     vdW  Elec       q    Type
REMARK                         _______ _______ _______ _____ _____    ______ ____
ROOT
ATOM      1  C   UNL     1       7.267   5.954  19.052  0.00  0.00    +0.000 C 
ATOM      2  O   UNL     1       7.446   5.261  20.050  0.00  0.00    +0.000 OA
ATOM      3  N   UNL     1       6.214   5.858  18.158  0.00  0.00    +0.000 N 
ATOM      4  H   UNL     1       6.314   6.347  17.277  0.00  0.00    +0.000 HD
ENDROOT
BRANCH   3   5
ATOM      5  C   UNL     1       5.112   4.986  18.278  0.00  0.00    +0.000 A 
ATOM      6  C   UNL     1       4.833   3.987  17.349  0.00  0.00    +0.000 A 
ATOM      7  C   UNL     1       3.679   3.208  17.470  0.00  0.00    +0.000 A 
ATOM      8  C   UNL     1       2.777   3.401  18.501  0.00  0.00    +0.000 A 
ATOM      9  N   UNL     1       1.652   2.669  18.529  0.00  0.00    +0.000 NA
ATOM     10  C   UNL     1       0.772   2.900  19.524  0.00  0.00    +0.000 A 
ATOM     11  C   UNL     1       0.974   3.824  20.531  0.00  0.00    +0.000 A 
ATOM     12  C   UNL     1       2.151   4.565  20.511  0.00  0.00    +0.000 A 
ATOM     13  C   UNL     1       3.078   4.375  19.476  0.00  0.00    +0.000 A 
ATOM     14  C   UNL     1       4.257   5.142  19.373  0.00  0.00    +0.000 A 
ENDBRANCH   3   5
BRANCH   1  15
ATOM     15  C   UNL     1       8.260   7.042  18.700  0.00  0.00    +0.000 C 
BRANCH  15  16
ATOM     16  C   UNL     1       7.769   7.916  17.548  0.00  0.00    +0.000 C 
BRANCH  16  17
ATOM     17  C   UNL     1       7.983   9.419  17.767  0.00  0.00    +0.000 C 
BRANCH  17  18
ATOM     18  C   UNL     1       8.949   9.792  18.899  0.00  0.00    +0.000 C 
BRANCH  18  19
ATOM     19  C   UNL     1       9.894  10.954  18.588  0.00  0.00    +0.000 C 
BRANCH  19  20
ATOM     20  N   UNL     1       9.349  12.216  19.138  0.00  0.00    +0.000 NA
ATOM     21  H   UNL     1       8.350  12.301  18.949  0.00  0.00    +0.000 HD
BRANCH  20  22
ATOM     22  S   UNL     1      10.058  13.594  18.514  0.00  0.00    +0.000 S 
ATOM     23  O   UNL     1      11.191  13.205  17.723  0.00  0.00    +0.000 OA
ATOM     24  O   UNL     1      10.091  14.619  19.520  0.00  0.00    +0.000 OA
BRANCH  22  25
ATOM     25  N   UNL     1       8.818  13.971  17.472  0.00  0.00    +0.000 NA
ATOM     26  H   UNL     1       9.211  14.367  16.617  0.00  0.00    +0.000 HD
ATOM     27  H   UNL     1       8.199  14.641  17.929  0.00  0.00    +0.000 HD
ENDBRANCH  22  25
ENDBRANCH  20  22
ENDBRANCH  19  20
ENDBRANCH  18  19
ENDBRANCH  17  18
ENDBRANCH  16  17
ENDBRANCH  15  16
ENDBRANCH   1  15
TORSDOF 9
ENDMDL
MODEL 4
REMARK VINA RESULT:      -7.0      1.332      1.525
REMARK  Name = 
REMARK  9 active torsions:
REMARK  status: ('A' for Active; 'I' for Inactive)
REMARK    1  A    between atoms: N_1  and  S_2
REMARK    2  A    between atoms: S_2  and  N_5
REMARK    3  A    between atoms: N_5  and  C_6
REMARK    4  A    between atoms: C_6  and  C_7
REMARK    5  A    between atoms: C_7  and  C_8
REMARK    6  A    between atoms: C_8  and  C_9
REMARK    7  A    between atoms: C_9  and  C_10
REMARK    8  A    between atoms: C_10  and  C_11
REMARK    9  A    between atoms: N_13  and  C_14
REMARK                            x       y       z     vdW  Elec       q    Type
REMARK                         _______ _______ _______ _____ _____    ______ ____
ROOT
ATOM      1  C   UNL     1       1.863   4.706  20.559  0.00  0.00    +0.000 C 
ATOM      2  O   UNL     1       0.643   4.628  20.447  0.00  0.00    +0.000 OA
ATOM      3  N   UNL     1       2.654   5.794  20.234  0.00  0.00    +0.000 N 
ATOM      4  H   UNL     1       3.653   5.637  20.179  0.00  0.00    +0.000 HD
ENDROOT
BRANCH   3   5
ATOM      5  C   UNL     1       2.184   7.045  19.781  0.00  0.00    +0.000 A 
ATOM      6  C   UNL     1       2.402   7.512  18.488  0.00  0.00    +0.000 A 
ATOM      7  C   UNL     1       1.990   8.795  18.118  0.00  0.00    +0.000 A 
ATOM      8  C   UNL     1       1.363   9.643  19.013  0.00  0.00    +0.000 A 
ATOM      9  N   UNL     1       1.051  10.889  18.622  0.00  0.00    +0.000 NA
ATOM     10  C   UNL     1       0.473  11.708  19.524  0.00  0.00    +0.000 A 
ATOM     11  C   UNL     1       0.158  11.332  20.815  0.00  0.00    +0.000 A 
ATOM     12  C   UNL     1       0.464  10.033  21.210  0.00  0.00    +0.000 A 
ATOM     13  C   UNL     1       1.092   9.160  20.311  0.00  0.00    +0.000 A 
ATOM     14  C   UNL     1       1.479   7.854  20.678  0.00  0.00    +0.000 A 
ENDBRANCH   3   5
BRANCH   1  15
ATOM     15  C   UNL     1       2.650   3.528  21.097  0.00  0.00    +0.000 C 
BRANCH  15  16
ATOM     16  C   UNL     1       2.492   2.286  20.223  0.00  0.00    +0.000 C 
BRANCH  16  17
ATOM     17  C   UNL     1       2.395   2.586  18.721  0.00  0.00    +0.000 C 
BRANCH  17  18
ATOM     18  C   UNL     1       3.705   2.449  17.933  0.00  0.00    +0.000 C 
BRANCH  18  19
ATOM     19  C   UNL     1       4.514   3.740  17.792  0.00  0.00    +0.000 C 
BRANCH  19  20
ATOM     20  N   UNL     1       5.533   3.823  18.862  0.00  0.00    +0.000 NA
ATOM     21  H   UNL     1       5.098   3.907  19.781  0.00  0.00    +0.000 HD
BRANCH  20  22
ATOM     22  S   UNL     1       6.569   5.125  18.717  0.00  0.00    +0.000 S 
ATOM     23  O   UNL     1       7.153   5.388  20.001  0.00  0.00    +0.000 OA
ATOM     24  O   UNL     1       5.970   6.129  17.881  0.00  0.00    +0.000 OA
BRANCH  22  25
ATOM     25  N   UNL     1       7.708   4.337  17.796  0.00  0.00    +0.000 NA
ATOM     26  H   UNL     1       7.556   4.565  16.813  0.00  0.00    +0.000 HD
ATOM     27  H   UNL     1       7.617   3.332  17.951  0.00  0.00    +0.000 HD
ENDBRANCH  22  25
ENDBRANCH  20  22
ENDBRANCH  19  20
ENDBRANCH  18  19
ENDBRANCH  17  18
ENDBRANCH  16  17
ENDBRANCH  15  16
ENDBRANCH   1  15
TORSDOF 9
ENDMDL
MODEL 5
REMARK VINA RESULT:      -7.0      5.327      7.366
REMARK  Name = 
REMARK  9 active torsions:
REMARK  status: ('A' for Active; 'I' for Inactive)
REMARK    1  A    between atoms: N_1  and  S_2
REMARK    2  A    between atoms: S_2  and  N_5
REMARK    3  A    between atoms: N_5  and  C_6
REMARK    4  A    between atoms: C_6  and  C_7
REMARK    5  A    between atoms: C_7  and  C_8
REMARK    6  A    between atoms: C_8  and  C_9
REMARK    7  A    between atoms: C_9  and  C_10
REMARK    8  A    between atoms: C_10  and  C_11
REMARK    9  A    between atoms: N_13  and  C_14
REMARK                            x       y       z     vdW  Elec       q    Type
REMARK                         _______ _______ _______ _____ _____    ______ ____
ROOT
ATOM      1  C   UNL     1       7.335   6.046  18.178  0.00  0.00    +0.000 C 
ATOM      2  O   UNL     1       7.874   4.972  17.925  0.00  0.00    +0.000 OA
ATOM      3  N   UNL     1       5.976   6.281  18.294  0.00  0.00    +0.000 N 
ATOM      4  H   UNL     1       5.674   7.248  18.293  0.00  0.00    +0.000 HD
ENDROOT
BRANCH   3   5
ATOM      5  C   UNL     1       4.964   5.302  18.213  0.00  0.00    +0.000 A 
ATOM      6  C   UNL     1       4.747   4.530  17.075  0.00  0.00    +0.000 A 
ATOM      7  C   UNL     1       3.675   3.636  17.018  0.00  0.00    +0.000 A 
ATOM      8  C   UNL     1       2.794   3.489  18.073  0.00  0.00    +0.000 A 
ATOM      9  N   UNL     1       1.742   2.665  17.936  0.00  0.00    +0.000 NA
ATOM     10  C   UNL     1       0.878   2.567  18.966  0.00  0.00    +0.000 A 
ATOM     11  C   UNL     1       1.027   3.241  20.163  0.00  0.00    +0.000 A 
ATOM     12  C   UNL     1       2.129   4.077  20.310  0.00  0.00    +0.000 A 
ATOM     13  C   UNL     1       3.035   4.229  19.250  0.00  0.00    +0.000 A 
ATOM     14  C   UNL     1       4.134   5.110  19.322  0.00  0.00    +0.000 A 
ENDBRANCH   3   5
BRANCH   1  15
ATOM     15  C   UNL     1       8.182   7.284  18.394  0.00  0.00    +0.000 C 
BRANCH  15  16
ATOM     16  C   UNL     1       7.656   8.483  17.609  0.00  0.00    +0.000 C 
BRANCH  16  17
ATOM     17  C   UNL     1       8.428   9.785  17.862  0.00  0.00    +0.000 C 
BRANCH  17  18
ATOM     18  C   UNL     1       9.163   9.868  19.206  0.00  0.00    +0.000 C 
BRANCH  18  19
ATOM     19  C   UNL     1      10.116  11.055  19.352  0.00  0.00    +0.000 C 
BRANCH  19  20
ATOM     20  N   UNL     1      10.681  11.420  18.033  0.00  0.00    +0.000 NA
ATOM     21  H   UNL     1      11.690  11.274  18.009  0.00  0.00    +0.000 HD
BRANCH  20  22
ATOM     22  S   UNL     1      10.433  13.015  17.604  0.00  0.00    +0.000 S 
ATOM     23  O   UNL     1       9.023  13.280  17.628  0.00  0.00    +0.000 OA
ATOM     24  O   UNL     1      11.300  13.363  16.512  0.00  0.00    +0.000 OA
BRANCH  22  25
ATOM     25  N   UNL     1      11.095  13.670  18.983  0.00  0.00    +0.000 NA
ATOM     26  H   UNL     1      10.910  14.675  18.994  0.00  0.00    +0.000 HD
ATOM     27  H   UNL     1      12.099  13.488  18.982  0.00  0.00    +0.000 HD
ENDBRANCH  22  25
ENDBRANCH  20  22
ENDBRANCH  19  20
ENDBRANCH  18  19
ENDBRANCH  17  18
ENDBRANCH  16  17
ENDBRANCH  15  16
ENDBRANCH   1  15
TORSDOF 9
ENDMDL
MODEL 6
REMARK VINA RESULT:      -7.0      1.165      1.504
REMARK  Name = 
REMARK  9 active torsions:
REMARK  status: ('A' for Active; 'I' for Inactive)
REMARK    1  A    between atoms: N_1  and  S_2
REMARK    2  A    between atoms: S_2  and  N_5
REMARK    3  A    between atoms: N_5  and  C_6
REMARK    4  A    between atoms: C_6  and  C_7
REMARK    5  A    between atoms: C_7  and  C_8
REMARK    6  A    between atoms: C_8  and  C_9
REMARK    7  A    between atoms: C_9  and  C_10
REMARK    8  A    between atoms: C_10  and  C_11
REMARK    9  A    between atoms: N_13  and  C_14
REMARK                            x       y       z     vdW  Elec       q    Type
REMARK                         _______ _______ _______ _____ _____    ______ ____
ROOT
ATOM      1  C   UNL     1       2.468   4.773  19.759  0.00  0.00    +0.000 C 
ATOM      2  O   UNL     1       1.282   4.455  19.769  0.00  0.00    +0.000 OA
ATOM      3  N   UNL     1       2.977   6.060  19.718  0.00  0.00    +0.000 N 
ATOM      4  H   UNL     1       3.961   6.158  19.500  0.00  0.00    +0.000 HD
ENDROOT
BRANCH   3   5
ATOM      5  C   UNL     1       2.214   7.246  19.753  0.00  0.00    +0.000 A 
ATOM      6  C   UNL     1       2.106   8.109  18.665  0.00  0.00    +0.000 A 
ATOM      7  C   UNL     1       1.409   9.314  18.783  0.00  0.00    +0.000 A 
ATOM      8  C   UNL     1       0.813   9.696  19.971  0.00  0.00    +0.000 A 
ATOM      9  N   UNL     1       0.215  10.896  20.045  0.00  0.00    +0.000 NA
ATOM     10  C   UNL     1      -0.328  11.261  21.224  0.00  0.00    +0.000 A 
ATOM     11  C   UNL     1      -0.329  10.461  22.350  0.00  0.00    +0.000 A 
ATOM     12  C   UNL     1       0.273   9.210  22.264  0.00  0.00    +0.000 A 
ATOM     13  C   UNL     1       0.874   8.806  21.063  0.00  0.00    +0.000 A 
ATOM     14  C   UNL     1       1.551   7.574  20.939  0.00  0.00    +0.000 A 
ENDBRANCH   3   5
BRANCH   1  15
ATOM     15  C   UNL     1       3.538   3.702  19.791  0.00  0.00    +0.000 C 
BRANCH  15  16
ATOM     16  C   UNL     1       3.409   2.728  18.622  0.00  0.00    +0.000 C 
BRANCH  16  17
ATOM     17  C   UNL     1       3.301   3.408  17.250  0.00  0.00    +0.000 C 
BRANCH  17  18
ATOM     18  C   UNL     1       4.610   3.981  16.691  0.00  0.00    +0.000 C 
BRANCH  18  19
ATOM     19  C   UNL     1       4.729   5.505  16.752  0.00  0.00    +0.000 C 
BRANCH  19  20
ATOM     20  N   UNL     1       5.660   5.901  17.833  0.00  0.00    +0.000 NA
ATOM     21  H   UNL     1       5.567   6.891  18.057  0.00  0.00    +0.000 HD
BRANCH  20  22
ATOM     22  S   UNL     1       7.271   5.656  17.468  0.00  0.00    +0.000 S 
ATOM     23  O   UNL     1       7.480   5.977  16.086  0.00  0.00    +0.000 OA
ATOM     24  O   UNL     1       7.731   4.446  18.094  0.00  0.00    +0.000 OA
BRANCH  22  25
ATOM     25  N   UNL     1       7.849   6.925  18.376  0.00  0.00    +0.000 NA
ATOM     26  H   UNL     1       8.009   6.604  19.332  0.00  0.00    +0.000 HD
ATOM     27  H   UNL     1       7.161   7.679  18.359  0.00  0.00    +0.000 HD
ENDBRANCH  22  25
ENDBRANCH  20  22
ENDBRANCH  19  20
ENDBRANCH  18  19
ENDBRANCH  17  18
ENDBRANCH  16  17
ENDBRANCH  15  16
ENDBRANCH   1  15
TORSDOF 9
ENDMDL
MODEL 7
REMARK VINA RESULT:      -6.9      3.037      3.944
REMARK  Name = 
REMARK  9 active torsions:
REMARK  status: ('A' for Active; 'I' for Inactive)
REMARK    1  A    between atoms: N_1  and  S_2
REMARK    2  A    between atoms: S_2  and  N_5
REMARK    3  A    between atoms: N_5  and  C_6
REMARK    4  A    between atoms: C_6  and  C_7
REMARK    5  A    between atoms: C_7  and  C_8
REMARK    6  A    between atoms: C_8  and  C_9
REMARK    7  A    between atoms: C_9  and  C_10
REMARK    8  A    between atoms: C_10  and  C_11
REMARK    9  A    between atoms: N_13  and  C_14
REMARK                            x       y       z     vdW  Elec       q    Type
REMARK                         _______ _______ _______ _____ _____    ______ ____
ROOT
ATOM      1  C   UNL     1       2.979   6.013  18.058  0.00  0.00    +0.000 C 
ATOM      2  O   UNL     1       1.956   5.344  18.180  0.00  0.00    +0.000 OA
ATOM      3  N   UNL     1       3.116   7.366  18.319  0.00  0.00    +0.000 N 
ATOM      4  H   UNL     1       3.952   7.818  17.972  0.00  0.00    +0.000 HD
ENDROOT
BRANCH   3   5
ATOM      5  C   UNL     1       2.112   8.206  18.845  0.00  0.00    +0.000 A 
ATOM      6  C   UNL     1       1.413   9.127  18.069  0.00  0.00    +0.000 A 
ATOM      7  C   UNL     1       0.490   9.995  18.659  0.00  0.00    +0.000 A 
ATOM      8  C   UNL     1       0.245   9.980  20.020  0.00  0.00    +0.000 A 
ATOM      9  N   UNL     1      -0.601  10.884  20.540  0.00  0.00    +0.000 NA
ATOM     10  C   UNL     1      -0.796  10.872  21.874  0.00  0.00    +0.000 A 
ATOM     11  C   UNL     1      -0.200   9.968  22.731  0.00  0.00    +0.000 A 
ATOM     12  C   UNL     1       0.659   9.019  22.186  0.00  0.00    +0.000 A 
ATOM     13  C   UNL     1       0.912   9.017  20.806  0.00  0.00    +0.000 A 
ATOM     14  C   UNL     1       1.820   8.118  20.210  0.00  0.00    +0.000 A 
ENDBRANCH   3   5
BRANCH   1  15
ATOM     15  C   UNL     1       4.257   5.359  17.576  0.00  0.00    +0.000 C 
BRANCH  15  16
ATOM     16  C   UNL     1       3.985   4.070  16.803  0.00  0.00    +0.000 C 
BRANCH  16  17
ATOM     17  C   UNL     1       3.880   2.821  17.686  0.00  0.00    +0.000 C 
BRANCH  17  18
ATOM     18  C   UNL     1       2.514   2.122  17.684  0.00  0.00    +0.000 C 
BRANCH  18  19
ATOM     19  C   UNL     1       2.002   1.695  19.061  0.00  0.00    +0.000 C 
BRANCH  19  20
ATOM     20  N   UNL     1       1.552   2.879  19.827  0.00  0.00    +0.000 NA
ATOM     21  H   UNL     1       1.770   3.745  19.333  0.00  0.00    +0.000 HD
BRANCH  20  22
ATOM     22  S   UNL     1       2.250   3.018  21.338  0.00  0.00    +0.000 S 
ATOM     23  O   UNL     1       3.579   2.482  21.278  0.00  0.00    +0.000 OA
ATOM     24  O   UNL     1       1.287   2.677  22.349  0.00  0.00    +0.000 OA
BRANCH  22  25
ATOM     25  N   UNL     1       2.372   4.677  21.321  0.00  0.00    +0.000 NA
ATOM     26  H   UNL     1       2.694   4.976  20.399  0.00  0.00    +0.000 HD
ATOM     27  H   UNL     1       3.032   4.964  22.044  0.00  0.00    +0.000 HD
ENDBRANCH  22  25
ENDBRANCH  20  22
ENDBRANCH  19  20
ENDBRANCH  18  19
ENDBRANCH  17  18
ENDBRANCH  16  17
ENDBRANCH  15  16
ENDBRANCH   1  15
TORSDOF 9
ENDMDL
MODEL 8
REMARK VINA RESULT:      -6.8      0.987      1.294
REMARK  Name = 
REMARK  9 active torsions:
REMARK  status: ('A' for Active; 'I' for Inactive)
REMARK    1  A    between atoms: N_1  and  S_2
REMARK    2  A    between atoms: S_2  and  N_5
REMARK    3  A    between atoms: N_5  and  C_6
REMARK    4  A    between atoms: C_6  and  C_7
REMARK    5  A    between atoms: C_7  and  C_8
REMARK    6  A    between atoms: C_8  and  C_9
REMARK    7  A    between atoms: C_9  and  C_10
REMARK    8  A    between atoms: C_10  and  C_11
REMARK    9  A    between atoms: N_13  and  C_14
REMARK                            x       y       z     vdW  Elec       q    Type
REMARK                         _______ _______ _______ _____ _____    ______ ____
ROOT
ATOM      1  C   UNL     1       2.119   4.267  20.171  0.00  0.00    +0.000 C 
ATOM      2  O   UNL     1       0.893   4.191  20.184  0.00  0.00    +0.000 OA
ATOM      3  N   UNL     1       2.874   5.378  19.833  0.00  0.00    +0.000 N 
ATOM      4  H   UNL     1       3.861   5.228  19.663  0.00  0.00    +0.000 HD
ENDROOT
BRANCH   3   5
ATOM      5  C   UNL     1       2.361   6.652  19.511  0.00  0.00    +0.000 A 
ATOM      6  C   UNL     1       2.429   7.194  18.231  0.00  0.00    +0.000 A 
ATOM      7  C   UNL     1       1.984   8.496  17.987  0.00  0.00    +0.000 A 
ATOM      8  C   UNL     1       1.472   9.290  18.997  0.00  0.00    +0.000 A 
ATOM      9  N   UNL     1       1.123  10.556  18.718  0.00  0.00    +0.000 NA
ATOM     10  C   UNL     1       0.659  11.321  19.726  0.00  0.00    +0.000 A 
ATOM     11  C   UNL     1       0.496  10.870  21.022  0.00  0.00    +0.000 A 
ATOM     12  C   UNL     1       0.837   9.551  21.303  0.00  0.00    +0.000 A 
ATOM     13  C   UNL     1       1.351   8.732  20.287  0.00  0.00    +0.000 A 
ATOM     14  C   UNL     1       1.771   7.407  20.530  0.00  0.00    +0.000 A 
ENDBRANCH   3   5
BRANCH   1  15
ATOM     15  C   UNL     1       2.955   3.062  20.549  0.00  0.00    +0.000 C 
BRANCH  15  16
ATOM     16  C   UNL     1       4.179   2.908  19.649  0.00  0.00    +0.000 C 
BRANCH  16  17
ATOM     17  C   UNL     1       3.848   2.501  18.207  0.00  0.00    +0.000 C 
BRANCH  17  18
ATOM     18  C   UNL     1       3.916   3.629  17.168  0.00  0.00    +0.000 C 
BRANCH  18  19
ATOM     19  C   UNL     1       5.325   4.136  16.854  0.00  0.00    +0.000 C 
BRANCH  19  20
ATOM     20  N   UNL     1       5.713   5.193  17.816  0.00  0.00    +0.000 NA
ATOM     21  H   UNL     1       5.146   6.032  17.693  0.00  0.00    +0.000 HD
BRANCH  20  22
ATOM     22  S   UNL     1       7.304   5.683  17.685  0.00  0.00    +0.000 S 
ATOM     23  O   UNL     1       7.722   6.219  18.949  0.00  0.00    +0.000 OA
ATOM     24  O   UNL     1       7.505   6.341  16.423  0.00  0.00    +0.000 OA
BRANCH  22  25
ATOM     25  N   UNL     1       7.945   4.154  17.547  0.00  0.00    +0.000 NA
ATOM     26  H   UNL     1       7.883   3.685  18.452  0.00  0.00    +0.000 HD
ATOM     27  H   UNL     1       8.918   4.233  17.248  0.00  0.00    +0.000 HD
ENDBRANCH  22  25
ENDBRANCH  20  22
ENDBRANCH  19  20
ENDBRANCH  18  19
ENDBRANCH  17  18
ENDBRANCH  16  17
ENDBRANCH  15  16
ENDBRANCH   1  15
TORSDOF 9
ENDMDL
MODEL 9
REMARK VINA RESULT:      -6.8      1.809      2.175
REMARK  Name = 
REMARK  9 active torsions:
REMARK  status: ('A' for Active; 'I' for Inactive)
REMARK    1  A    between atoms: N_1  and  S_2
REMARK    2  A    between atoms: S_2  and  N_5
REMARK    3  A    between atoms: N_5  and  C_6
REMARK    4  A    between atoms: C_6  and  C_7
REMARK    5  A    between atoms: C_7  and  C_8
REMARK    6  A    between atoms: C_8  and  C_9
REMARK    7  A    between atoms: C_9  and  C_10
REMARK    8  A    between atoms: C_10  and  C_11
REMARK    9  A    between atoms: N_13  and  C_14
REMARK                            x       y       z     vdW  Elec       q    Type
REMARK                         _______ _______ _______ _____ _____    ______ ____
ROOT
ATOM      1  C   UNL     1       2.968   5.002  19.052  0.00  0.00    +0.000 C 
ATOM      2  O   UNL     1       1.835   4.542  19.167  0.00  0.00    +0.000 OA
ATOM      3  N   UNL     1       3.315   6.341  19.006  0.00  0.00    +0.000 N 
ATOM      4  H   UNL     1       4.253   6.563  18.697  0.00  0.00    +0.000 HD
ENDROOT
BRANCH   3   5
ATOM      5  C   UNL     1       2.425   7.425  19.158  0.00  0.00    +0.000 A 
ATOM      6  C   UNL     1       2.113   8.299  18.120  0.00  0.00    +0.000 A 
ATOM      7  C   UNL     1       1.293   9.408  18.348  0.00  0.00    +0.000 A 
ATOM      8  C   UNL     1       0.773   9.681  19.600  0.00  0.00    +0.000 A 
ATOM      9  N   UNL     1       0.048  10.798  19.776  0.00  0.00    +0.000 NA
ATOM     10  C   UNL     1      -0.418  11.061  21.013  0.00  0.00    +0.000 A 
ATOM     11  C   UNL     1      -0.218  10.236  22.102  0.00  0.00    +0.000 A 
ATOM     12  C   UNL     1       0.515   9.069  21.912  0.00  0.00    +0.000 A 
ATOM     13  C   UNL     1       1.042   8.774  20.646  0.00  0.00    +0.000 A 
ATOM     14  C   UNL     1       1.844   7.637  20.412  0.00  0.00    +0.000 A 
ENDBRANCH   3   5
BRANCH   1  15
ATOM     15  C   UNL     1       4.155   4.067  18.941  0.00  0.00    +0.000 C 
BRANCH  15  16
ATOM     16  C   UNL     1       4.019   3.106  17.762  0.00  0.00    +0.000 C 
BRANCH  16  17
ATOM     17  C   UNL     1       4.334   3.738  16.400  0.00  0.00    +0.000 C 
BRANCH  17  18
ATOM     18  C   UNL     1       5.823   3.965  16.104  0.00  0.00    +0.000 C 
BRANCH  18  19
ATOM     19  C   UNL     1       6.155   5.306  15.448  0.00  0.00    +0.000 C 
BRANCH  19  20
ATOM     20  N   UNL     1       7.364   5.893  16.071  0.00  0.00    +0.000 NA
ATOM     21  H   UNL     1       7.955   5.171  16.482  0.00  0.00    +0.000 HD
BRANCH  20  22
ATOM     22  S   UNL     1       7.039   6.982  17.294  0.00  0.00    +0.000 S 
ATOM     23  O   UNL     1       5.616   7.100  17.435  0.00  0.00    +0.000 OA
ATOM     24  O   UNL     1       7.936   8.101  17.196  0.00  0.00    +0.000 OA
BRANCH  22  25
ATOM     25  N   UNL     1       7.593   6.020  18.534  0.00  0.00    +0.000 NA
ATOM     26  H   UNL     1       6.794   5.665  19.061  0.00  0.00    +0.000 HD
ATOM     27  H   UNL     1       8.202   6.577  19.134  0.00  0.00    +0.000 HD
ENDBRANCH  22  25
ENDBRANCH  20  22
ENDBRANCH  19  20
ENDBRANCH  18  19
ENDBRANCH  17  18
ENDBRANCH  16  17
ENDBRANCH  15  16
ENDBRANCH   1  15
TORSDOF 9
ENDMDL
