MODEL 1
REMARK VINA RESULT:      -6.5      0.000      0.000
REMARK  Name = 
REMARK  2 active torsions:
REMARK  status: ('A' for Active; 'I' for Inactive)
REMARK    1  A    between atoms: C_2  and  C_3
REMARK    2  A    between atoms: C_7  and  N_8
REMARK                            x       y       z     vdW  Elec       q    Type
REMARK                         _______ _______ _______ _____ _____    ______ ____
ROOT
ATOM      1  C   UNL     1       5.775   4.124  16.338  0.00  0.00    +0.000 A 
ATOM      2  C   UNL     1       6.829   4.528  17.144  0.00  0.00    +0.000 A 
ATOM      3  N   UNL     1       6.733   4.685  18.481  0.00  0.00    +0.000 NA
ATOM      4  C   UNL     1       5.510   4.455  19.026  0.00  0.00    +0.000 A 
ATOM      5  C   UNL     1       4.370   4.057  18.321  0.00  0.00    +0.000 A 
ATOM      6  C   UNL     1       4.545   3.866  16.945  0.00  0.00    +0.000 A 
ENDROOT
BRANCH   5   7
ATOM      7  N   UNL     1       3.113   3.950  18.878  0.00  0.00    +0.000 N 
ATOM      8  C   UNL     1       1.965   3.502  18.079  0.00  0.00    +0.000 C 
ATOM      9  C   UNL     1       1.022   2.690  18.996  0.00  0.00    +0.000 C 
ATOM     10  N   UNL     1       0.570   3.442  20.186  0.00  0.00    +0.000 NA
ATOM     11  C   UNL     1       1.740   3.967  20.923  0.00  0.00    +0.000 C 
ATOM     12  C   UNL     1       2.739   4.763  20.045  0.00  0.00    +0.000 C 
ATOM     13  H   UNL     1       0.057   2.806  20.797  0.00  0.00    +0.000 HD
ENDBRANCH   5   7
BRANCH   1  15
ATOM     14  C   UNL     1       6.084   3.950  13.731  0.00  0.00    +0.000 C 
ATOM     15  C   UNL     1       5.927   4.036  14.921  0.00  0.00    +0.000 C 
ENDBRANCH   1  15
TORSDOF 2
ENDMDL
MODEL 2
REMARK VINA RESULT:      -6.4      0.545      1.383
REMARK  Name = 
REMARK  2 active torsions:
REMARK  status: ('A' for Active; 'I' for Inactive)
REMARK    1  A    between atoms: C_2  and  C_3
REMARK    2  A    between atoms: C_7  and  N_8
REMARK                            x       y       z     vdW  Elec       q    Type
REMARK                         _______ _______ _______ _____ _____    ______ ____
ROOT
ATOM      1  C   UNL     1       5.729   4.098  16.442  0.00  0.00    +0.000 A 
ATOM      2  C   UNL     1       6.726   4.650  17.231  0.00  0.00    +0.000 A 
ATOM      3  N   UNL     1       6.636   4.782  18.572  0.00  0.00    +0.000 NA
ATOM      4  C   UNL     1       5.473   4.369  19.137  0.00  0.00    +0.000 A 
ATOM      5  C   UNL     1       4.390   3.809  18.451  0.00  0.00    +0.000 A 
ATOM      6  C   UNL     1       4.564   3.656  17.070  0.00  0.00    +0.000 A 
ENDROOT
BRANCH   5   7
ATOM      7  N   UNL     1       3.175   3.512  19.031  0.00  0.00    +0.000 N 
ATOM      8  C   UNL     1       2.797   4.079  20.332  0.00  0.00    +0.000 C 
ATOM      9  C   UNL     1       1.270   4.324  20.331  0.00  0.00    +0.000 C 
ATOM     10  N   UNL     1       0.482   3.106  20.042  0.00  0.00    +0.000 NA
ATOM     11  C   UNL     1       0.946   2.497  18.775  0.00  0.00    +0.000 C 
ATOM     12  C   UNL     1       2.475   2.261  18.707  0.00  0.00    +0.000 C 
ATOM     13  H   UNL     1      -0.498   3.370  19.938  0.00  0.00    +0.000 HD
ENDBRANCH   5   7
BRANCH   1  15
ATOM     14  C   UNL     1       6.003   3.980  13.828  0.00  0.00    +0.000 C 
ATOM     15  C   UNL     1       5.864   4.043  15.022  0.00  0.00    +0.000 C 
ENDBRANCH   1  15
TORSDOF 2
ENDMDL
MODEL 3
REMARK VINA RESULT:      -6.3      1.622      2.559
REMARK  Name = 
REMARK  2 active torsions:
REMARK  status: ('A' for Active; 'I' for Inactive)
REMARK    1  A    between atoms: C_2  and  C_3
REMARK    2  A    between atoms: C_7  and  N_8
REMARK                            x       y       z     vdW  Elec       q    Type
REMARK                         _______ _______ _______ _____ _____    ______ ____
ROOT
ATOM      1  C   UNL     1       6.099   4.217  14.385  0.00  0.00    +0.000 A 
ATOM      2  C   UNL     1       7.200   5.024  14.621  0.00  0.00    +0.000 A 
ATOM      3  N   UNL     1       7.418   5.676  15.784  0.00  0.00    +0.000 NA
ATOM      4  C   UNL     1       6.464   5.532  16.739  0.00  0.00    +0.000 A 
ATOM      5  C   UNL     1       5.305   4.758  16.619  0.00  0.00    +0.000 A 
ATOM      6  C   UNL     1       5.160   4.071  15.407  0.00  0.00    +0.000 A 
ENDROOT
BRANCH   5   7
ATOM      7  N   UNL     1       4.294   4.727  17.555  0.00  0.00    +0.000 N 
ATOM      8  C   UNL     1       4.539   5.116  18.950  0.00  0.00    +0.000 C 
ATOM      9  C   UNL     1       3.263   5.797  19.497  0.00  0.00    +0.000 C 
ATOM     10  N   UNL     1       2.056   4.947  19.395  0.00  0.00    +0.000 NA
ATOM     11  C   UNL     1       1.883   4.486  17.999  0.00  0.00    +0.000 C 
ATOM     12  C   UNL     1       3.144   3.826  17.387  0.00  0.00    +0.000 C 
ATOM     13  H   UNL     1       1.244   5.504  19.659  0.00  0.00    +0.000 HD
ENDBRANCH   5   7
BRANCH   1  15
ATOM     14  C   UNL     1       5.703   3.107  12.033  0.00  0.00    +0.000 C 
ATOM     15  C   UNL     1       5.898   3.605  13.111  0.00  0.00    +0.000 C 
ENDBRANCH   1  15
TORSDOF 2
ENDMDL
MODEL 4
REMARK VINA RESULT:      -6.3      1.801      2.511
REMARK  Name = 
REMARK  2 active torsions:
REMARK  status: ('A' for Active; 'I' for Inactive)
REMARK    1  A    between atoms: C_2  and  C_3
REMARK    2  A    between atoms: C_7  and  N_8
REMARK                            x       y       z     vdW  Elec       q    Type
REMARK                         _______ _______ _______ _____ _____    ______ ____
ROOT
ATOM      1  C   UNL     1       6.089   4.147  14.205  0.00  0.00    +0.000 A 
ATOM      2  C   UNL     1       7.201   4.963  14.336  0.00  0.00    +0.000 A 
ATOM      3  N   UNL     1       7.554   5.570  15.490  0.00  0.00    +0.000 NA
ATOM      4  C   UNL     1       6.730   5.369  16.550  0.00  0.00    +0.000 A 
ATOM      5  C   UNL     1       5.575   4.581  16.542  0.00  0.00    +0.000 A 
ATOM      6  C   UNL     1       5.287   3.942  15.329  0.00  0.00    +0.000 A 
ENDROOT
BRANCH   5   7
ATOM      7  N   UNL     1       4.689   4.493  17.595  0.00  0.00    +0.000 N 
ATOM      8  C   UNL     1       4.102   3.205  17.987  0.00  0.00    +0.000 C 
ATOM      9  C   UNL     1       3.915   3.204  19.522  0.00  0.00    +0.000 C 
ATOM     10  N   UNL     1       3.088   4.328  20.013  0.00  0.00    +0.000 NA
ATOM     11  C   UNL     1       3.641   5.610  19.524  0.00  0.00    +0.000 C 
ATOM     12  C   UNL     1       3.882   5.656  17.994  0.00  0.00    +0.000 C 
ATOM     13  H   UNL     1       3.112   4.328  21.032  0.00  0.00    +0.000 HD
ENDBRANCH   5   7
BRANCH   1  15
ATOM     14  C   UNL     1       5.436   3.083  11.889  0.00  0.00    +0.000 C 
ATOM     15  C   UNL     1       5.737   3.585  12.941  0.00  0.00    +0.000 C 
ENDBRANCH   1  15
TORSDOF 2
ENDMDL
MODEL 5
REMARK VINA RESULT:      -6.2      1.369      1.934
REMARK  Name = 
REMARK  2 active torsions:
REMARK  status: ('A' for Active; 'I' for Inactive)
REMARK    1  A    between atoms: C_2  and  C_3
REMARK    2  A    between atoms: C_7  and  N_8
REMARK                            x       y       z     vdW  Elec       q    Type
REMARK                         _______ _______ _______ _____ _____    ______ ____
ROOT
ATOM      1  C   UNL     1       5.114   4.953  15.908  0.00  0.00    +0.000 A 
ATOM      2  C   UNL     1       5.278   6.311  16.128  0.00  0.00    +0.000 A 
ATOM      3  N   UNL     1       4.721   6.976  17.163  0.00  0.00    +0.000 NA
ATOM      4  C   UNL     1       3.938   6.243  17.995  0.00  0.00    +0.000 A 
ATOM      5  C   UNL     1       3.684   4.873  17.873  0.00  0.00    +0.000 A 
ATOM      6  C   UNL     1       4.327   4.232  16.807  0.00  0.00    +0.000 A 
ENDROOT
BRANCH   5   7
ATOM      7  N   UNL     1       2.787   4.179  18.657  0.00  0.00    +0.000 N 
ATOM      8  C   UNL     1       2.631   4.487  20.084  0.00  0.00    +0.000 C 
ATOM      9  C   UNL     1       1.149   4.268  20.469  0.00  0.00    +0.000 C 
ATOM     10  N   UNL     1       0.661   2.904  20.171  0.00  0.00    +0.000 NA
ATOM     11  C   UNL     1       0.918   2.578  18.751  0.00  0.00    +0.000 C 
ATOM     12  C   UNL     1       2.382   2.811  18.300  0.00  0.00    +0.000 C 
ATOM     13  H   UNL     1      -0.345   2.875  20.337  0.00  0.00    +0.000 HD
ENDBRANCH   5   7
BRANCH   1  15
ATOM     14  C   UNL     1       6.152   3.816  13.774  0.00  0.00    +0.000 C 
ATOM     15  C   UNL     1       5.681   4.322  14.759  0.00  0.00    +0.000 C 
ENDBRANCH   1  15
TORSDOF 2
ENDMDL
MODEL 6
REMARK VINA RESULT:      -6.1      1.441      1.894
REMARK  Name = 
REMARK  2 active torsions:
REMARK  status: ('A' for Active; 'I' for Inactive)
REMARK    1  A    between atoms: C_2  and  C_3
REMARK    2  A    between atoms: C_7  and  N_8
REMARK                            x       y       z     vdW  Elec       q    Type
REMARK                         _______ _______ _______ _____ _____    ______ ____
ROOT
ATOM      1  C   UNL     1       6.129   4.132  14.696  0.00  0.00    +0.000 A 
ATOM      2  C   UNL     1       7.223   4.891  15.083  0.00  0.00    +0.000 A 
ATOM      3  N   UNL     1       7.396   5.374  16.332  0.00  0.00    +0.000 NA
ATOM      4  C   UNL     1       6.406   5.106  17.221  0.00  0.00    +0.000 A 
ATOM      5  C   UNL     1       5.251   4.365  16.951  0.00  0.00    +0.000 A 
ATOM      6  C   UNL     1       5.151   3.853  15.651  0.00  0.00    +0.000 A 
ENDROOT
BRANCH   5   7
ATOM      7  N   UNL     1       4.204   4.213  17.835  0.00  0.00    +0.000 N 
ATOM      8  C   UNL     1       3.056   5.129  17.816  0.00  0.00    +0.000 C 
ATOM      9  C   UNL     1       1.788   4.328  18.193  0.00  0.00    +0.000 C 
ATOM     10  N   UNL     1       1.893   3.646  19.501  0.00  0.00    +0.000 NA
ATOM     11  C   UNL     1       3.109   2.804  19.533  0.00  0.00    +0.000 C 
ATOM     12  C   UNL     1       4.407   3.547  19.130  0.00  0.00    +0.000 C 
ATOM     13  H   UNL     1       1.076   3.047  19.621  0.00  0.00    +0.000 HD
ENDBRANCH   5   7
BRANCH   1  15
ATOM     14  C   UNL     1       5.839   3.314  12.212  0.00  0.00    +0.000 C 
ATOM     15  C   UNL     1       5.976   3.704  13.342  0.00  0.00    +0.000 C 
ENDBRANCH   1  15
TORSDOF 2
ENDMDL
MODEL 7
REMARK VINA RESULT:      -6.1      1.426      1.490
REMARK  Name = 
REMARK  2 active torsions:
REMARK  status: ('A' for Active; 'I' for Inactive)
REMARK    1  A    between atoms: C_2  and  C_3
REMARK    2  A    between atoms: C_7  and  N_8
REMARK                            x       y       z     vdW  Elec       q    Type
REMARK                         _______ _______ _______ _____ _____    ______ ____
ROOT
ATOM      1  C   UNL     1       5.082   5.044  16.044  0.00  0.00    +0.000 A 
ATOM      2  C   UNL     1       5.356   6.383  16.270  0.00  0.00    +0.000 A 
ATOM      3  N   UNL     1       4.793   7.108  17.260  0.00  0.00    +0.000 NA
ATOM      4  C   UNL     1       3.888   6.459  18.037  0.00  0.00    +0.000 A 
ATOM      5  C   UNL     1       3.517   5.117  17.903  0.00  0.00    +0.000 A 
ATOM      6  C   UNL     1       4.171   4.408  16.888  0.00  0.00    +0.000 A 
ENDROOT
BRANCH   5   7
ATOM      7  N   UNL     1       2.507   4.516  18.624  0.00  0.00    +0.000 N 
ATOM      8  C   UNL     1       1.447   3.753  17.953  0.00  0.00    +0.000 C 
ATOM      9  C   UNL     1       1.036   2.579  18.873  0.00  0.00    +0.000 C 
ATOM     10  N   UNL     1       0.599   3.014  20.217  0.00  0.00    +0.000 NA
ATOM     11  C   UNL     1       1.641   3.862  20.835  0.00  0.00    +0.000 C 
ATOM     12  C   UNL     1       2.117   5.036  19.943  0.00  0.00    +0.000 C 
ATOM     13  H   UNL     1       0.463   2.186  20.798  0.00  0.00    +0.000 HD
ENDBRANCH   5   7
BRANCH   1  15
ATOM     14  C   UNL     1       6.138   3.746  14.013  0.00  0.00    +0.000 C 
ATOM     15  C   UNL     1       5.667   4.352  14.940  0.00  0.00    +0.000 C 
ENDBRANCH   1  15
TORSDOF 2
ENDMDL
MODEL 8
REMARK VINA RESULT:      -6.0      1.547      1.832
REMARK  Name = 
REMARK  2 active torsions:
REMARK  status: ('A' for Active; 'I' for Inactive)
REMARK    1  A    between atoms: C_2  and  C_3
REMARK    2  A    between atoms: C_7  and  N_8
REMARK                            x       y       z     vdW  Elec       q    Type
REMARK                         _______ _______ _______ _____ _____    ______ ____
ROOT
ATOM      1  C   UNL     1       5.129   4.925  15.919  0.00  0.00    +0.000 A 
ATOM      2  C   UNL     1       5.182   6.295  16.119  0.00  0.00    +0.000 A 
ATOM      3  N   UNL     1       4.637   6.919  17.186  0.00  0.00    +0.000 NA
ATOM      4  C   UNL     1       3.982   6.127  18.073  0.00  0.00    +0.000 A 
ATOM      5  C   UNL     1       3.848   4.738  17.977  0.00  0.00    +0.000 A 
ATOM      6  C   UNL     1       4.474   4.146  16.873  0.00  0.00    +0.000 A 
ENDROOT
BRANCH   5   7
ATOM      7  N   UNL     1       3.073   3.974  18.824  0.00  0.00    +0.000 N 
ATOM      8  C   UNL     1       3.653   2.856  19.579  0.00  0.00    +0.000 C 
ATOM      9  C   UNL     1       2.932   2.767  20.945  0.00  0.00    +0.000 C 
ATOM     10  N   UNL     1       1.466   2.614  20.825  0.00  0.00    +0.000 NA
ATOM     11  C   UNL     1       0.916   3.696  19.979  0.00  0.00    +0.000 C 
ATOM     12  C   UNL     1       1.623   3.854  18.610  0.00  0.00    +0.000 C 
ATOM     13  H   UNL     1       1.055   2.686  21.756  0.00  0.00    +0.000 HD
ENDBRANCH   5   7
BRANCH   1  15
ATOM     14  C   UNL     1       6.114   3.858  13.725  0.00  0.00    +0.000 C 
ATOM     15  C   UNL     1       5.673   4.335  14.738  0.00  0.00    +0.000 C 
ENDBRANCH   1  15
TORSDOF 2
ENDMDL
MODEL 9
REMARK VINA RESULT:      -6.0      1.667      2.386
REMARK  Name = 
REMARK  2 active torsions:
REMARK  status: ('A' for Active; 'I' for Inactive)
REMARK    1  A    between atoms: C_2  and  C_3
REMARK    2  A    between atoms: C_7  and  N_8
REMARK                            x       y       z     vdW  Elec       q    Type
REMARK                         _______ _______ _______ _____ _____    ______ ____
ROOT
ATOM      1  C   UNL     1       6.085   5.995  17.168  0.00  0.00    +0.000 A 
ATOM      2  C   UNL     1       6.410   4.995  16.265  0.00  0.00    +0.000 A 
ATOM      3  N   UNL     1       5.626   3.923  16.018  0.00  0.00    +0.000 NA
ATOM      4  C   UNL     1       4.478   3.841  16.739  0.00  0.00    +0.000 A 
ATOM      5  C   UNL     1       4.046   4.775  17.687  0.00  0.00    +0.000 A 
ATOM      6  C   UNL     1       4.880   5.887  17.863  0.00  0.00    +0.000 A 
ENDROOT
BRANCH   5   7
ATOM      7  N   UNL     1       2.941   4.606  18.493  0.00  0.00    +0.000 N 
ATOM      8  C   UNL     1       1.719   3.973  17.981  0.00  0.00    +0.000 C 
ATOM      9  C   UNL     1       1.068   3.171  19.132  0.00  0.00    +0.000 C 
ATOM     10  N   UNL     1       0.772   3.992  20.325  0.00  0.00    +0.000 NA
ATOM     11  C   UNL     1       1.996   4.698  20.766  0.00  0.00    +0.000 C 
ATOM     12  C   UNL     1       2.710   5.492  19.644  0.00  0.00    +0.000 C 
ATOM     13  H   UNL     1       0.462   3.375  21.076  0.00  0.00    +0.000 HD
ENDBRANCH   5   7
BRANCH   1  15
ATOM     14  C   UNL     1       7.773   7.957  17.640  0.00  0.00    +0.000 C 
ATOM     15  C   UNL     1       6.988   7.070  17.427  0.00  0.00    +0.000 C 
ENDBRANCH   1  15
TORSDOF 2
ENDMDL
