MODEL 1
REMARK VINA RESULT:      -7.3      0.000      0.000
REMARK  Name = 
REMARK  5 active torsions:
REMARK  status: ('A' for Active; 'I' for Inactive)
REMARK    1  A    between atoms: C_1  and  C_2
REMARK    2  A    between atoms: C_4  and  N_5
REMARK    3  A    between atoms: N_9  and  C_10
REMARK    4  A    between atoms: C_10  and  C_11
REMARK    5  A    between atoms: N_13  and  C_14
REMARK                            x       y       z     vdW  Elec       q    Type
REMARK                         _______ _______ _______ _____ _____    ______ ____
ROOT
ATOM      1  C   UNL     1       3.292   5.098  18.543  0.00  0.00    +0.000 C 
ATOM      2  O   UNL     1       2.221   4.771  18.038  0.00  0.00    +0.000 OA
ATOM      3  N   UNL     1       3.579   6.362  19.051  0.00  0.00    +0.000 N 
ATOM      4  H   UNL     1       4.548   6.656  19.015  0.00  0.00    +0.000 HD
ENDROOT
BRANCH   3   5
ATOM      5  C   UNL     1       2.613   7.389  19.050  0.00  0.00    +0.000 A 
ATOM      6  C   UNL     1       2.382   8.179  17.918  0.00  0.00    +0.000 A 
ATOM      7  C   UNL     1       1.483   9.246  17.980  0.00  0.00    +0.000 A 
ATOM      8  C   UNL     1       0.838   9.524  19.178  0.00  0.00    +0.000 A 
ATOM      9  F   UNL     1       0.023  10.585  19.258  0.00  0.00    +0.000 F 
ATOM     10  C   UNL     1       1.031   8.724  20.297  0.00  0.00    +0.000 A 
ATOM     11  C   UNL     1       1.897   7.630  20.227  0.00  0.00    +0.000 A 
ENDBRANCH   3   5
BRANCH   1  12
ATOM     12  C   UNL     1       4.433   4.112  18.629  0.00  0.00    +0.000 C 
BRANCH  12  18
ATOM     13  C   UNL     1       7.149   5.508  19.212  0.00  0.00    +0.000 C 
ATOM     14  C   UNL     1       6.686   5.023  17.883  0.00  0.00    +0.000 A 
ATOM     15  N   UNL     1       7.349   5.173  16.752  0.00  0.00    +0.000 NA
ATOM     16  C   UNL     1       6.555   4.616  15.774  0.00  0.00    +0.000 A 
ATOM     17  C   UNL     1       5.397   4.109  16.317  0.00  0.00    +0.000 A 
ATOM     18  N   UNL     1       5.488   4.368  17.663  0.00  0.00    +0.000 N 
BRANCH  16  19
ATOM     19  N   UNL     1       6.948   4.628  14.380  0.00  0.00    +0.000 N 
ATOM     20  O   UNL     1       7.791   5.481  14.055  0.00  0.00    +0.000 OA
ATOM     21  O   UNL     1       6.428   3.802  13.621  0.00  0.00    +0.000 OA
ENDBRANCH  16  19
ENDBRANCH  12  18
ENDBRANCH   1  12
TORSDOF 4
ENDMDL
MODEL 2
REMARK VINA RESULT:      -7.1      1.629      2.604
REMARK  Name = 
REMARK  5 active torsions:
REMARK  status: ('A' for Active; 'I' for Inactive)
REMARK    1  A    between atoms: C_1  and  C_2
REMARK    2  A    between atoms: C_4  and  N_5
REMARK    3  A    between atoms: N_9  and  C_10
REMARK    4  A    between atoms: C_10  and  C_11
REMARK    5  A    between atoms: N_13  and  C_14
REMARK                            x       y       z     vdW  Elec       q    Type
REMARK                         _______ _______ _______ _____ _____    ______ ____
ROOT
ATOM      1  C   UNL     1       2.369   5.349  20.124  0.00  0.00    +0.000 C 
ATOM      2  O   UNL     1       1.204   5.142  20.453  0.00  0.00    +0.000 OA
ATOM      3  N   UNL     1       2.880   6.588  19.745  0.00  0.00    +0.000 N 
ATOM      4  H   UNL     1       3.655   6.579  19.093  0.00  0.00    +0.000 HD
ENDROOT
BRANCH   3   5
ATOM      5  C   UNL     1       2.072   7.743  19.740  0.00  0.00    +0.000 A 
ATOM      6  C   UNL     1       1.402   8.177  20.890  0.00  0.00    +0.000 A 
ATOM      7  C   UNL     1       0.539   9.273  20.828  0.00  0.00    +0.000 A 
ATOM      8  C   UNL     1       0.338   9.913  19.612  0.00  0.00    +0.000 A 
ATOM      9  F   UNL     1      -0.538  10.924  19.535  0.00  0.00    +0.000 F 
ATOM     10  C   UNL     1       1.026   9.515  18.471  0.00  0.00    +0.000 A 
ATOM     11  C   UNL     1       1.923   8.447  18.540  0.00  0.00    +0.000 A 
ENDBRANCH   3   5
BRANCH   1  12
ATOM     12  C   UNL     1       3.369   4.219  20.084  0.00  0.00    +0.000 C 
BRANCH  12  18
ATOM     13  C   UNL     1       2.653   3.223  17.228  0.00  0.00    +0.000 C 
ATOM     14  C   UNL     1       3.963   3.789  17.650  0.00  0.00    +0.000 A 
ATOM     15  N   UNL     1       5.026   3.892  16.874  0.00  0.00    +0.000 NA
ATOM     16  C   UNL     1       6.016   4.431  17.664  0.00  0.00    +0.000 A 
ATOM     17  C   UNL     1       5.550   4.670  18.936  0.00  0.00    +0.000 A 
ATOM     18  N   UNL     1       4.238   4.262  18.920  0.00  0.00    +0.000 N 
BRANCH  16  19
ATOM     19  N   UNL     1       7.353   4.658  17.154  0.00  0.00    +0.000 N 
ATOM     20  O   UNL     1       7.442   5.385  16.151  0.00  0.00    +0.000 OA
ATOM     21  O   UNL     1       8.300   4.123  17.743  0.00  0.00    +0.000 OA
ENDBRANCH  16  19
ENDBRANCH  12  18
ENDBRANCH   1  12
TORSDOF 4
ENDMDL
MODEL 3
REMARK VINA RESULT:      -7.1      3.166      3.743
REMARK  Name = 
REMARK  5 active torsions:
REMARK  status: ('A' for Active; 'I' for Inactive)
REMARK    1  A    between atoms: C_1  and  C_2
REMARK    2  A    between atoms: C_4  and  N_5
REMARK    3  A    between atoms: N_9  and  C_10
REMARK    4  A    between atoms: C_10  and  C_11
REMARK    5  A    between atoms: N_13  and  C_14
REMARK                            x       y       z     vdW  Elec       q    Type
REMARK                         _______ _______ _______ _____ _____    ______ ____
ROOT
ATOM      1  C   UNL     1       5.459   4.611  19.373  0.00  0.00    +0.000 C 
ATOM      2  O   UNL     1       5.535   3.418  19.657  0.00  0.00    +0.000 OA
ATOM      3  N   UNL     1       4.269   5.312  19.193  0.00  0.00    +0.000 N 
ATOM      4  H   UNL     1       4.297   6.096  18.553  0.00  0.00    +0.000 HD
ENDROOT
BRANCH   3   5
ATOM      5  C   UNL     1       3.017   4.685  19.362  0.00  0.00    +0.000 A 
ATOM      6  C   UNL     1       2.402   4.597  20.617  0.00  0.00    +0.000 A 
ATOM      7  C   UNL     1       1.207   3.891  20.763  0.00  0.00    +0.000 A 
ATOM      8  C   UNL     1       0.646   3.264  19.658  0.00  0.00    +0.000 A 
ATOM      9  F   UNL     1      -0.467   2.532  19.808  0.00  0.00    +0.000 F 
ATOM     10  C   UNL     1       1.228   3.376  18.401  0.00  0.00    +0.000 A 
ATOM     11  C   UNL     1       2.401   4.117  18.243  0.00  0.00    +0.000 A 
ENDBRANCH   3   5
BRANCH   1  12
ATOM     12  C   UNL     1       6.709   5.432  19.164  0.00  0.00    +0.000 C 
BRANCH  12  18
ATOM     13  C   UNL     1       7.832   8.032  17.883  0.00  0.00    +0.000 C 
ATOM     14  C   UNL     1       7.508   6.773  17.158  0.00  0.00    +0.000 A 
ATOM     15  N   UNL     1       7.600   6.609  15.852  0.00  0.00    +0.000 NA
ATOM     16  C   UNL     1       7.176   5.324  15.604  0.00  0.00    +0.000 A 
ATOM     17  C   UNL     1       6.830   4.690  16.775  0.00  0.00    +0.000 A 
ATOM     18  N   UNL     1       7.047   5.619  17.763  0.00  0.00    +0.000 N 
BRANCH  16  19
ATOM     19  N   UNL     1       7.107   4.794  14.257  0.00  0.00    +0.000 N 
ATOM     20  O   UNL     1       6.407   3.780  14.101  0.00  0.00    +0.000 OA
ATOM     21  O   UNL     1       7.737   5.380  13.368  0.00  0.00    +0.000 OA
ENDBRANCH  16  19
ENDBRANCH  12  18
ENDBRANCH   1  12
TORSDOF 4
ENDMDL
MODEL 4
REMARK VINA RESULT:      -7.0      1.670      2.434
REMARK  Name = 
REMARK  5 active torsions:
REMARK  status: ('A' for Active; 'I' for Inactive)
REMARK    1  A    between atoms: C_1  and  C_2
REMARK    2  A    between atoms: C_4  and  N_5
REMARK    3  A    between atoms: N_9  and  C_10
REMARK    4  A    between atoms: C_10  and  C_11
REMARK    5  A    between atoms: N_13  and  C_14
REMARK                            x       y       z     vdW  Elec       q    Type
REMARK                         _______ _______ _______ _____ _____    ______ ____
ROOT
ATOM      1  C   UNL     1       2.298   5.283  20.113  0.00  0.00    +0.000 C 
ATOM      2  O   UNL     1       1.108   5.018  20.260  0.00  0.00    +0.000 OA
ATOM      3  N   UNL     1       2.811   6.563  19.922  0.00  0.00    +0.000 N 
ATOM      4  H   UNL     1       3.665   6.634  19.382  0.00  0.00    +0.000 HD
ENDROOT
BRANCH   3   5
ATOM      5  C   UNL     1       1.971   7.695  19.913  0.00  0.00    +0.000 A 
ATOM      6  C   UNL     1       1.778   8.459  18.755  0.00  0.00    +0.000 A 
ATOM      7  C   UNL     1       1.012   9.625  18.804  0.00  0.00    +0.000 A 
ATOM      8  C   UNL     1       0.460  10.028  20.013  0.00  0.00    +0.000 A 
ATOM      9  F   UNL     1      -0.222  11.179  20.077  0.00  0.00    +0.000 F 
ATOM     10  C   UNL     1       0.613   9.258  21.160  0.00  0.00    +0.000 A 
ATOM     11  C   UNL     1       1.343   8.069  21.105  0.00  0.00    +0.000 A 
ENDBRANCH   3   5
BRANCH   1  12
ATOM     12  C   UNL     1       3.334   4.184  20.105  0.00  0.00    +0.000 C 
BRANCH  12  18
ATOM     13  C   UNL     1       2.558   3.332  17.219  0.00  0.00    +0.000 C 
ATOM     14  C   UNL     1       3.898   3.810  17.655  0.00  0.00    +0.000 A 
ATOM     15  N   UNL     1       4.964   3.882  16.879  0.00  0.00    +0.000 NA
ATOM     16  C   UNL     1       5.984   4.337  17.683  0.00  0.00    +0.000 A 
ATOM     17  C   UNL     1       5.534   4.555  18.965  0.00  0.00    +0.000 A 
ATOM     18  N   UNL     1       4.202   4.221  18.940  0.00  0.00    +0.000 N 
BRANCH  16  19
ATOM     19  N   UNL     1       7.330   4.508  17.177  0.00  0.00    +0.000 N 
ATOM     20  O   UNL     1       7.431   4.794  15.972  0.00  0.00    +0.000 OA
ATOM     21  O   UNL     1       8.272   4.362  17.965  0.00  0.00    +0.000 OA
ENDBRANCH  16  19
ENDBRANCH  12  18
ENDBRANCH   1  12
TORSDOF 4
ENDMDL
MODEL 5
REMARK VINA RESULT:      -7.0      3.123      4.448
REMARK  Name = 
REMARK  5 active torsions:
REMARK  status: ('A' for Active; 'I' for Inactive)
REMARK    1  A    between atoms: C_1  and  C_2
REMARK    2  A    between atoms: C_4  and  N_5
REMARK    3  A    between atoms: N_9  and  C_10
REMARK    4  A    between atoms: C_10  and  C_11
REMARK    5  A    between atoms: N_13  and  C_14
REMARK                            x       y       z     vdW  Elec       q    Type
REMARK                         _______ _______ _______ _____ _____    ______ ____
ROOT
ATOM      1  C   UNL     1       5.640   5.359  16.193  0.00  0.00    +0.000 C 
ATOM      2  O   UNL     1       4.961   6.345  15.917  0.00  0.00    +0.000 OA
ATOM      3  N   UNL     1       5.310   4.412  17.160  0.00  0.00    +0.000 N 
ATOM      4  H   UNL     1       6.082   3.940  17.614  0.00  0.00    +0.000 HD
ENDROOT
BRANCH   3   5
ATOM      5  C   UNL     1       4.112   4.504  17.897  0.00  0.00    +0.000 A 
ATOM      6  C   UNL     1       4.035   5.243  19.084  0.00  0.00    +0.000 A 
ATOM      7  C   UNL     1       2.859   5.239  19.837  0.00  0.00    +0.000 A 
ATOM      8  C   UNL     1       1.777   4.482  19.406  0.00  0.00    +0.000 A 
ATOM      9  F   UNL     1       0.669   4.425  20.159  0.00  0.00    +0.000 F 
ATOM     10  C   UNL     1       1.829   3.775  18.211  0.00  0.00    +0.000 A 
ATOM     11  C   UNL     1       2.989   3.812  17.434  0.00  0.00    +0.000 A 
ENDBRANCH   3   5
BRANCH   1  12
ATOM     12  C   UNL     1       6.951   5.106  15.489  0.00  0.00    +0.000 C 
BRANCH  12  18
ATOM     13  C   UNL     1       8.550   5.889  12.940  0.00  0.00    +0.000 C 
ATOM     14  C   UNL     1       7.456   4.882  13.008  0.00  0.00    +0.000 A 
ATOM     15  N   UNL     1       6.974   4.221  11.972  0.00  0.00    +0.000 NA
ATOM     16  C   UNL     1       5.963   3.429  12.469  0.00  0.00    +0.000 A 
ATOM     17  C   UNL     1       5.833   3.600  13.828  0.00  0.00    +0.000 A 
ATOM     18  N   UNL     1       6.790   4.526  14.166  0.00  0.00    +0.000 N 
BRANCH  16  19
ATOM     19  N   UNL     1       5.172   2.578  11.605  0.00  0.00    +0.000 N 
ATOM     20  O   UNL     1       5.675   1.483  11.302  0.00  0.00    +0.000 OA
ATOM     21  O   UNL     1       4.066   2.991  11.234  0.00  0.00    +0.000 OA
ENDBRANCH  16  19
ENDBRANCH  12  18
ENDBRANCH   1  12
TORSDOF 4
ENDMDL
MODEL 6
REMARK VINA RESULT:      -6.9      3.388      4.549
REMARK  Name = 
REMARK  5 active torsions:
REMARK  status: ('A' for Active; 'I' for Inactive)
REMARK    1  A    between atoms: C_1  and  C_2
REMARK    2  A    between atoms: C_4  and  N_5
REMARK    3  A    between atoms: N_9  and  C_10
REMARK    4  A    between atoms: C_10  and  C_11
REMARK    5  A    between atoms: N_13  and  C_14
REMARK                            x       y       z     vdW  Elec       q    Type
REMARK                         _______ _______ _______ _____ _____    ______ ____
ROOT
ATOM      1  C   UNL     1       5.701   5.169  16.257  0.00  0.00    +0.000 C 
ATOM      2  O   UNL     1       4.970   6.148  16.132  0.00  0.00    +0.000 OA
ATOM      3  N   UNL     1       5.446   4.088  17.097  0.00  0.00    +0.000 N 
ATOM      4  H   UNL     1       6.254   3.599  17.464  0.00  0.00    +0.000 HD
ENDROOT
BRANCH   3   5
ATOM      5  C   UNL     1       4.271   4.025  17.874  0.00  0.00    +0.000 A 
ATOM      6  C   UNL     1       3.082   3.491  17.364  0.00  0.00    +0.000 A 
ATOM      7  C   UNL     1       1.914   3.526  18.128  0.00  0.00    +0.000 A 
ATOM      8  C   UNL     1       1.940   4.112  19.387  0.00  0.00    +0.000 A 
ATOM      9  F   UNL     1       0.807   4.205  20.097  0.00  0.00    +0.000 F 
ATOM     10  C   UNL     1       3.124   4.612  19.918  0.00  0.00    +0.000 A 
ATOM     11  C   UNL     1       4.303   4.539  19.174  0.00  0.00    +0.000 A 
ENDBRANCH   3   5
BRANCH   1  12
ATOM     12  C   UNL     1       6.998   5.075  15.489  0.00  0.00    +0.000 C 
BRANCH  12  18
ATOM     13  C   UNL     1       8.591   5.882  12.945  0.00  0.00    +0.000 C 
ATOM     14  C   UNL     1       7.503   4.869  13.006  0.00  0.00    +0.000 A 
ATOM     15  N   UNL     1       7.025   4.211  11.967  0.00  0.00    +0.000 NA
ATOM     16  C   UNL     1       6.019   3.410  12.459  0.00  0.00    +0.000 A 
ATOM     17  C   UNL     1       5.888   3.573  13.819  0.00  0.00    +0.000 A 
ATOM     18  N   UNL     1       6.840   4.502  14.163  0.00  0.00    +0.000 N 
BRANCH  16  19
ATOM     19  N   UNL     1       5.232   2.560  11.589  0.00  0.00    +0.000 N 
ATOM     20  O   UNL     1       5.722   1.452  11.314  0.00  0.00    +0.000 OA
ATOM     21  O   UNL     1       4.143   2.986  11.188  0.00  0.00    +0.000 OA
ENDBRANCH  16  19
ENDBRANCH  12  18
ENDBRANCH   1  12
TORSDOF 4
ENDMDL
MODEL 7
REMARK VINA RESULT:      -6.9      3.057      3.940
REMARK  Name = 
REMARK  5 active torsions:
REMARK  status: ('A' for Active; 'I' for Inactive)
REMARK    1  A    between atoms: C_1  and  C_2
REMARK    2  A    between atoms: C_4  and  N_5
REMARK    3  A    between atoms: N_9  and  C_10
REMARK    4  A    between atoms: C_10  and  C_11
REMARK    5  A    between atoms: N_13  and  C_14
REMARK                            x       y       z     vdW  Elec       q    Type
REMARK                         _______ _______ _______ _____ _____    ______ ____
ROOT
ATOM      1  C   UNL     1       3.778   6.277  18.228  0.00  0.00    +0.000 C 
ATOM      2  O   UNL     1       3.636   6.833  19.314  0.00  0.00    +0.000 OA
ATOM      3  N   UNL     1       3.432   4.954  17.961  0.00  0.00    +0.000 N 
ATOM      4  H   UNL     1       3.972   4.480  17.248  0.00  0.00    +0.000 HD
ENDROOT
BRANCH   3   5
ATOM      5  C   UNL     1       2.845   4.137  18.948  0.00  0.00    +0.000 A 
ATOM      6  C   UNL     1       1.461   4.114  19.157  0.00  0.00    +0.000 A 
ATOM      7  C   UNL     1       0.922   3.362  20.202  0.00  0.00    +0.000 A 
ATOM      8  C   UNL     1       1.772   2.655  21.042  0.00  0.00    +0.000 A 
ATOM      9  F   UNL     1       1.263   1.984  22.085  0.00  0.00    +0.000 F 
ATOM     10  C   UNL     1       3.144   2.639  20.822  0.00  0.00    +0.000 A 
ATOM     11  C   UNL     1       3.683   3.356  19.751  0.00  0.00    +0.000 A 
ENDBRANCH   3   5
BRANCH   1  12
ATOM     12  C   UNL     1       4.385   7.015  17.059  0.00  0.00    +0.000 C 
BRANCH  12  18
ATOM     13  C   UNL     1       7.311   6.569  18.010  0.00  0.00    +0.000 C 
ATOM     14  C   UNL     1       6.722   6.068  16.739  0.00  0.00    +0.000 A 
ATOM     15  N   UNL     1       7.386   5.408  15.808  0.00  0.00    +0.000 NA
ATOM     16  C   UNL     1       6.481   5.168  14.799  0.00  0.00    +0.000 A 
ATOM     17  C   UNL     1       5.244   5.679  15.122  0.00  0.00    +0.000 A 
ATOM     18  N   UNL     1       5.404   6.248  16.362  0.00  0.00    +0.000 N 
BRANCH  16  19
ATOM     19  N   UNL     1       6.866   4.487  13.580  0.00  0.00    +0.000 N 
ATOM     20  O   UNL     1       7.745   5.038  12.898  0.00  0.00    +0.000 OA
ATOM     21  O   UNL     1       6.304   3.420  13.307  0.00  0.00    +0.000 OA
ENDBRANCH  16  19
ENDBRANCH  12  18
ENDBRANCH   1  12
TORSDOF 4
ENDMDL
MODEL 8
REMARK VINA RESULT:      -6.9      3.227      3.929
REMARK  Name = 
REMARK  5 active torsions:
REMARK  status: ('A' for Active; 'I' for Inactive)
REMARK    1  A    between atoms: C_1  and  C_2
REMARK    2  A    between atoms: C_4  and  N_5
REMARK    3  A    between atoms: N_9  and  C_10
REMARK    4  A    between atoms: C_10  and  C_11
REMARK    5  A    between atoms: N_13  and  C_14
REMARK                            x       y       z     vdW  Elec       q    Type
REMARK                         _______ _______ _______ _____ _____    ______ ____
ROOT
ATOM      1  C   UNL     1       3.954   5.168  17.862  0.00  0.00    +0.000 C 
ATOM      2  O   UNL     1       4.525   4.085  17.964  0.00  0.00    +0.000 OA
ATOM      3  N   UNL     1       2.838   5.551  18.602  0.00  0.00    +0.000 N 
ATOM      4  H   UNL     1       2.204   6.205  18.160  0.00  0.00    +0.000 HD
ENDROOT
BRANCH   3   5
ATOM      5  C   UNL     1       2.281   4.703  19.581  0.00  0.00    +0.000 A 
ATOM      6  C   UNL     1       2.715   4.731  20.911  0.00  0.00    +0.000 A 
ATOM      7  C   UNL     1       2.205   3.815  21.834  0.00  0.00    +0.000 A 
ATOM      8  C   UNL     1       1.281   2.867  21.414  0.00  0.00    +0.000 A 
ATOM      9  F   UNL     1       0.839   1.947  22.281  0.00  0.00    +0.000 F 
ATOM     10  C   UNL     1       0.815   2.854  20.105  0.00  0.00    +0.000 A 
ATOM     11  C   UNL     1       1.291   3.796  19.190  0.00  0.00    +0.000 A 
ENDBRANCH   3   5
BRANCH   1  12
ATOM     12  C   UNL     1       4.430   6.197  16.865  0.00  0.00    +0.000 C 
BRANCH  12  18
ATOM     13  C   UNL     1       7.461   6.460  17.501  0.00  0.00    +0.000 C 
ATOM     14  C   UNL     1       6.878   5.866  16.267  0.00  0.00    +0.000 A 
ATOM     15  N   UNL     1       7.578   5.419  15.242  0.00  0.00    +0.000 NA
ATOM     16  C   UNL     1       6.655   4.993  14.314  0.00  0.00    +0.000 A 
ATOM     17  C   UNL     1       5.374   5.172  14.783  0.00  0.00    +0.000 A 
ATOM     18  N   UNL     1       5.523   5.726  16.031  0.00  0.00    +0.000 N 
BRANCH  16  19
ATOM     19  N   UNL     1       7.061   4.465  13.028  0.00  0.00    +0.000 N 
ATOM     20  O   UNL     1       6.520   3.403  12.674  0.00  0.00    +0.000 OA
ATOM     21  O   UNL     1       7.902   5.096  12.378  0.00  0.00    +0.000 OA
ENDBRANCH  16  19
ENDBRANCH  12  18
ENDBRANCH   1  12
TORSDOF 4
ENDMDL
MODEL 9
REMARK VINA RESULT:      -6.9      3.322      3.879
REMARK  Name = 
REMARK  5 active torsions:
REMARK  status: ('A' for Active; 'I' for Inactive)
REMARK    1  A    between atoms: C_1  and  C_2
REMARK    2  A    between atoms: C_4  and  N_5
REMARK    3  A    between atoms: N_9  and  C_10
REMARK    4  A    between atoms: C_10  and  C_11
REMARK    5  A    between atoms: N_13  and  C_14
REMARK                            x       y       z     vdW  Elec       q    Type
REMARK                         _______ _______ _______ _____ _____    ______ ____
ROOT
ATOM      1  C   UNL     1       4.112   5.078  17.903  0.00  0.00    +0.000 C 
ATOM      2  O   UNL     1       4.873   4.154  18.179  0.00  0.00    +0.000 OA
ATOM      3  N   UNL     1       2.849   5.262  18.460  0.00  0.00    +0.000 N 
ATOM      4  H   UNL     1       2.162   5.729  17.882  0.00  0.00    +0.000 HD
ENDROOT
BRANCH   3   5
ATOM      5  C   UNL     1       2.347   4.384  19.442  0.00  0.00    +0.000 A 
ATOM      6  C   UNL     1       1.387   3.411  19.137  0.00  0.00    +0.000 A 
ATOM      7  C   UNL     1       0.845   2.619  20.150  0.00  0.00    +0.000 A 
ATOM      8  C   UNL     1       1.252   2.819  21.463  0.00  0.00    +0.000 A 
ATOM      9  F   UNL     1       0.687   2.105  22.446  0.00  0.00    +0.000 F 
ATOM     10  C   UNL     1       2.231   3.756  21.773  0.00  0.00    +0.000 A 
ATOM     11  C   UNL     1       2.807   4.520  20.756  0.00  0.00    +0.000 A 
ENDBRANCH   3   5
BRANCH   1  12
ATOM     12  C   UNL     1       4.501   6.112  16.874  0.00  0.00    +0.000 C 
BRANCH  12  18
ATOM     13  C   UNL     1       7.538   6.540  17.378  0.00  0.00    +0.000 C 
ATOM     14  C   UNL     1       6.937   5.892  16.181  0.00  0.00    +0.000 A 
ATOM     15  N   UNL     1       7.616   5.459  15.135  0.00  0.00    +0.000 NA
ATOM     16  C   UNL     1       6.678   4.968  14.255  0.00  0.00    +0.000 A 
ATOM     17  C   UNL     1       5.410   5.093  14.774  0.00  0.00    +0.000 A 
ATOM     18  N   UNL     1       5.582   5.679  16.004  0.00  0.00    +0.000 N 
BRANCH  16  19
ATOM     19  N   UNL     1       7.057   4.434  12.963  0.00  0.00    +0.000 N 
ATOM     20  O   UNL     1       7.911   5.078  12.331  0.00  0.00    +0.000 OA
ATOM     21  O   UNL     1       6.516   3.389  12.583  0.00  0.00    +0.000 OA
ENDBRANCH  16  19
ENDBRANCH  12  18
ENDBRANCH   1  12
TORSDOF 4
ENDMDL
