MODEL 1
REMARK VINA RESULT:      -7.3      0.000      0.000
REMARK  Name = 
REMARK  7 active torsions:
REMARK  status: ('A' for Active; 'I' for Inactive)
REMARK    1  A    between atoms: C_1  and  C_2
REMARK    2  A    between atoms: C_4  and  C_5
REMARK    3  A    between atoms: C_6  and  C_7
REMARK    4  A    between atoms: C_13  and  C_14
REMARK    5  A    between atoms: N_15  and  C_16
REMARK    6  A    between atoms: C_16  and  C_17
REMARK    7  A    between atoms: C_21  and  C_22
REMARK                            x       y       z     vdW  Elec       q    Type
REMARK                         _______ _______ _______ _____ _____    ______ ____
ROOT
ATOM      1  C   UNL     1      -3.552  12.782  20.422  0.00  0.00    +0.000 A 
ATOM      2  N   UNL     1      -4.423  12.227  19.597  0.00  0.00    +0.000 NA
ATOM      3  N   UNL     1      -3.731  11.550  18.615  0.00  0.00    +0.000 NA
ATOM      4  C   UNL     1      -2.449  11.731  18.839  0.00  0.00    +0.000 A 
ATOM      5  N   UNL     1      -2.306  12.588  19.902  0.00  0.00    +0.000 N 
ATOM      6  C   UNL     1      -1.009  13.055  20.335  0.00  0.00    +0.000 C 
ATOM      7  C   UNL     1       0.042  12.862  19.231  0.00  0.00    +0.000 C 
ATOM      8  C   UNL     1      -0.041  13.967  18.168  0.00  0.00    +0.000 C 
ATOM      9  N   UNL     1      -0.091  11.530  18.616  0.00  0.00    +0.000 N 
ATOM     10  C   UNL     1      -1.342  11.077  18.173  0.00  0.00    +0.000 C 
ATOM     11  O   UNL     1      -1.456  10.156  17.368  0.00  0.00    +0.000 OA
ENDROOT
BRANCH   1  17
ATOM     12  C   UNL     1      -5.280  15.999  24.220  0.00  0.00    +0.000 C 
ATOM     13  C   UNL     1      -4.680  14.888  23.436  0.00  0.00    +0.000 A 
ATOM     14  N   UNL     1      -4.004  13.889  23.952  0.00  0.00    +0.000 NA
ATOM     15  C   UNL     1      -3.534  13.054  22.943  0.00  0.00    +0.000 A 
ATOM     16  C   UNL     1      -2.689  11.894  23.341  0.00  0.00    +0.000 C 
ATOM     17  C   UNL     1      -3.915  13.415  21.656  0.00  0.00    +0.000 A 
ATOM     18  S   UNL     1      -4.831  14.866  21.734  0.00  0.00    +0.000 S 
ENDBRANCH   1  17
BRANCH   9  19
ATOM     19  C   UNL     1       1.085  10.691  18.428  0.00  0.00    +0.000 C 
BRANCH  19  20
ATOM     20  C   UNL     1       1.197   9.586  19.469  0.00  0.00    +0.000 A 
ATOM     21  C   UNL     1       0.524   9.756  20.695  0.00  0.00    +0.000 A 
ATOM     22  C   UNL     1       0.479   8.739  21.645  0.00  0.00    +0.000 A 
ATOM     23  C   UNL     1       1.088   7.517  21.381  0.00  0.00    +0.000 A 
ATOM     24  C   UNL     1       1.785   7.314  20.179  0.00  0.00    +0.000 A 
ATOM     25  C   UNL     1       1.878   8.371  19.250  0.00  0.00    +0.000 A 
ATOM     26 CL   UNL     1       2.842   8.164  17.824  0.00  0.00    +0.000 Cl
BRANCH  24  27
ATOM     27  C   UNL     1       2.362   5.952  19.881  0.00  0.00    +0.000 C 
ATOM     28  F   UNL     1       3.721   5.961  19.757  0.00  0.00    +0.000 F 
ATOM     29  F   UNL     1       2.103   5.047  20.865  0.00  0.00    +0.000 F 
ATOM     30  F   UNL     1       1.895   5.410  18.723  0.00  0.00    +0.000 F 
ENDBRANCH  24  27
ENDBRANCH  19  20
ENDBRANCH   9  19
TORSDOF 4
ENDMDL
MODEL 2
REMARK VINA RESULT:      -7.0      5.089      8.148
REMARK  Name = 
REMARK  7 active torsions:
REMARK  status: ('A' for Active; 'I' for Inactive)
REMARK    1  A    between atoms: C_1  and  C_2
REMARK    2  A    between atoms: C_4  and  C_5
REMARK    3  A    between atoms: C_6  and  C_7
REMARK    4  A    between atoms: C_13  and  C_14
REMARK    5  A    between atoms: N_15  and  C_16
REMARK    6  A    between atoms: C_16  and  C_17
REMARK    7  A    between atoms: C_21  and  C_22
REMARK                            x       y       z     vdW  Elec       q    Type
REMARK                         _______ _______ _______ _____ _____    ______ ____
ROOT
ATOM      1  C   UNL     1       1.630   8.282  20.287  0.00  0.00    +0.000 A 
ATOM      2  N   UNL     1       1.309   8.117  21.558  0.00  0.00    +0.000 NA
ATOM      3  N   UNL     1       0.491   9.157  21.945  0.00  0.00    +0.000 NA
ATOM      4  C   UNL     1       0.354   9.958  20.913  0.00  0.00    +0.000 A 
ATOM      5  N   UNL     1       1.144   9.494  19.890  0.00  0.00    +0.000 N 
ATOM      6  C   UNL     1       1.280  10.214  18.645  0.00  0.00    +0.000 C 
ATOM      7  C   UNL     1       0.846  11.679  18.807  0.00  0.00    +0.000 C 
ATOM      8  C   UNL     1       1.946  12.529  19.460  0.00  0.00    +0.000 C 
ATOM      9  N   UNL     1      -0.410  11.765  19.571  0.00  0.00    +0.000 N 
ATOM     10  C   UNL     1      -0.544  11.087  20.792  0.00  0.00    +0.000 C 
ATOM     11  O   UNL     1      -1.404  11.387  21.616  0.00  0.00    +0.000 OA
ENDROOT
BRANCH   1  17
ATOM     12  C   UNL     1       4.369   5.616  16.660  0.00  0.00    +0.000 C 
ATOM     13  C   UNL     1       3.564   6.034  17.838  0.00  0.00    +0.000 A 
ATOM     14  N   UNL     1       3.044   5.212  18.718  0.00  0.00    +0.000 NA
ATOM     15  C   UNL     1       2.306   5.920  19.661  0.00  0.00    +0.000 A 
ATOM     16  C   UNL     1       1.589   5.139  20.708  0.00  0.00    +0.000 C 
ATOM     17  C   UNL     1       2.324   7.301  19.506  0.00  0.00    +0.000 A 
ATOM     18  S   UNL     1       3.243   7.691  18.108  0.00  0.00    +0.000 S 
ENDBRANCH   1  17
BRANCH   9  19
ATOM     19  C   UNL     1      -1.507  12.590  19.084  0.00  0.00    +0.000 C 
BRANCH  19  20
ATOM     20  C   UNL     1      -2.631  11.773  18.461  0.00  0.00    +0.000 A 
ATOM     21  C   UNL     1      -2.292  10.808  17.491  0.00  0.00    +0.000 A 
ATOM     22  C   UNL     1      -3.248   9.941  16.967  0.00  0.00    +0.000 A 
ATOM     23  C   UNL     1      -4.561  10.003  17.419  0.00  0.00    +0.000 A 
ATOM     24  C   UNL     1      -4.943  10.963  18.370  0.00  0.00    +0.000 A 
ATOM     25  C   UNL     1      -3.982  11.878  18.849  0.00  0.00    +0.000 A 
ATOM     26 CL   UNL     1      -4.478  13.141  19.928  0.00  0.00    +0.000 Cl
BRANCH  24  27
ATOM     27  C   UNL     1      -6.353  10.951  18.905  0.00  0.00    +0.000 C 
ATOM     28  F   UNL     1      -7.060   9.845  18.532  0.00  0.00    +0.000 F 
ATOM     29  F   UNL     1      -6.398  10.956  20.267  0.00  0.00    +0.000 F 
ATOM     30  F   UNL     1      -7.096  12.013  18.490  0.00  0.00    +0.000 F 
ENDBRANCH  24  27
ENDBRANCH  19  20
ENDBRANCH   9  19
TORSDOF 4
ENDMDL
MODEL 3
REMARK VINA RESULT:      -6.9      4.716      7.634
REMARK  Name = 
REMARK  7 active torsions:
REMARK  status: ('A' for Active; 'I' for Inactive)
REMARK    1  A    between atoms: C_1  and  C_2
REMARK    2  A    between atoms: C_4  and  C_5
REMARK    3  A    between atoms: C_6  and  C_7
REMARK    4  A    between atoms: C_13  and  C_14
REMARK    5  A    between atoms: N_15  and  C_16
REMARK    6  A    between atoms: C_16  and  C_17
REMARK    7  A    between atoms: C_21  and  C_22
REMARK                            x       y       z     vdW  Elec       q    Type
REMARK                         _______ _______ _______ _____ _____    ______ ____
ROOT
ATOM      1  C   UNL     1      -0.242  12.115  21.727  0.00  0.00    +0.000 A 
ATOM      2  N   UNL     1      -0.209  11.137  22.615  0.00  0.00    +0.000 NA
ATOM      3  N   UNL     1      -1.344  11.209  23.394  0.00  0.00    +0.000 NA
ATOM      4  C   UNL     1      -2.034  12.252  22.991  0.00  0.00    +0.000 A 
ATOM      5  N   UNL     1      -1.316  12.904  22.018  0.00  0.00    +0.000 N 
ATOM      6  C   UNL     1      -1.773  14.146  21.439  0.00  0.00    +0.000 C 
ATOM      7  C   UNL     1      -2.825  14.817  22.334  0.00  0.00    +0.000 C 
ATOM      8  C   UNL     1      -2.178  15.562  23.511  0.00  0.00    +0.000 C 
ATOM      9  N   UNL     1      -3.805  13.827  22.812  0.00  0.00    +0.000 N 
ATOM     10  C   UNL     1      -3.372  12.628  23.396  0.00  0.00    +0.000 C 
ATOM     11  O   UNL     1      -4.106  11.943  24.104  0.00  0.00    +0.000 OA
ENDROOT
BRANCH   1  17
ATOM     12  C   UNL     1       3.403  13.662  18.251  0.00  0.00    +0.000 C 
ATOM     13  C   UNL     1       2.350  12.934  19.006  0.00  0.00    +0.000 A 
ATOM     14  N   UNL     1       1.762  11.835  18.597  0.00  0.00    +0.000 NA
ATOM     15  C   UNL     1       0.787  11.443  19.509  0.00  0.00    +0.000 A 
ATOM     16  C   UNL     1      -0.029  10.242  19.178  0.00  0.00    +0.000 C 
ATOM     17  C   UNL     1       0.688  12.240  20.643  0.00  0.00    +0.000 A 
ATOM     18  S   UNL     1       1.810  13.534  20.512  0.00  0.00    +0.000 S 
ENDBRANCH   1  17
BRANCH   9  19
ATOM     19  C   UNL     1      -5.231  14.107  22.719  0.00  0.00    +0.000 C 
BRANCH  19  20
ATOM     20  C   UNL     1      -6.032  12.930  22.178  0.00  0.00    +0.000 A 
ATOM     21  C   UNL     1      -7.062  12.402  22.981  0.00  0.00    +0.000 A 
ATOM     22  C   UNL     1      -7.914  11.408  22.507  0.00  0.00    +0.000 A 
ATOM     23  C   UNL     1      -7.771  10.936  21.207  0.00  0.00    +0.000 A 
ATOM     24  C   UNL     1      -6.746  11.423  20.381  0.00  0.00    +0.000 A 
ATOM     25  C   UNL     1      -5.848  12.384  20.891  0.00  0.00    +0.000 A 
ATOM     26 CL   UNL     1      -4.508  12.894  19.917  0.00  0.00    +0.000 Cl
BRANCH  24  27
ATOM     27  C   UNL     1      -6.667  10.956  18.948  0.00  0.00    +0.000 C 
ATOM     28  F   UNL     1      -5.393  10.935  18.460  0.00  0.00    +0.000 F 
ATOM     29  F   UNL     1      -7.130   9.686  18.785  0.00  0.00    +0.000 F 
ATOM     30  F   UNL     1      -7.373  11.739  18.087  0.00  0.00    +0.000 F 
ENDBRANCH  24  27
ENDBRANCH  19  20
ENDBRANCH   9  19
TORSDOF 4
ENDMDL
MODEL 4
REMARK VINA RESULT:      -6.8      1.375      1.605
REMARK  Name = 
REMARK  7 active torsions:
REMARK  status: ('A' for Active; 'I' for Inactive)
REMARK    1  A    between atoms: C_1  and  C_2
REMARK    2  A    between atoms: C_4  and  C_5
REMARK    3  A    between atoms: C_6  and  C_7
REMARK    4  A    between atoms: C_13  and  C_14
REMARK    5  A    between atoms: N_15  and  C_16
REMARK    6  A    between atoms: C_16  and  C_17
REMARK    7  A    between atoms: C_21  and  C_22
REMARK                            x       y       z     vdW  Elec       q    Type
REMARK                         _______ _______ _______ _____ _____    ______ ____
ROOT
ATOM      1  C   UNL     1      -2.989  13.612  21.672  0.00  0.00    +0.000 A 
ATOM      2  N   UNL     1      -4.134  13.266  21.111  0.00  0.00    +0.000 NA
ATOM      3  N   UNL     1      -3.865  12.535  19.973  0.00  0.00    +0.000 NA
ATOM      4  C   UNL     1      -2.560  12.477  19.840  0.00  0.00    +0.000 A 
ATOM      5  N   UNL     1      -1.983  13.234  20.830  0.00  0.00    +0.000 N 
ATOM      6  C   UNL     1      -0.555  13.442  20.897  0.00  0.00    +0.000 C 
ATOM      7  C   UNL     1       0.110  13.132  19.547  0.00  0.00    +0.000 C 
ATOM      8  C   UNL     1      -0.050  14.294  18.555  0.00  0.00    +0.000 C 
ATOM      9  N   UNL     1      -0.424  11.881  18.982  0.00  0.00    +0.000 N 
ATOM     10  C   UNL     1      -1.809  11.679  18.893  0.00  0.00    +0.000 C 
ATOM     11  O   UNL     1      -2.301  10.840  18.143  0.00  0.00    +0.000 OA
ENDROOT
BRANCH   1  17
ATOM     12  C   UNL     1      -1.835  16.619  25.842  0.00  0.00    +0.000 C 
ATOM     13  C   UNL     1      -2.357  15.581  24.914  0.00  0.00    +0.000 A 
ATOM     14  N   UNL     1      -3.057  14.534  25.282  0.00  0.00    +0.000 NA
ATOM     15  C   UNL     1      -3.341  13.734  24.180  0.00  0.00    +0.000 A 
ATOM     16  C   UNL     1      -4.080  12.463  24.419  0.00  0.00    +0.000 C 
ATOM     17  C   UNL     1      -2.887  14.227  22.963  0.00  0.00    +0.000 A 
ATOM     18  S   UNL     1      -2.039  15.695  23.240  0.00  0.00    +0.000 S 
ENDBRANCH   1  17
BRANCH   9  19
ATOM     19  C   UNL     1       0.484  10.862  18.474  0.00  0.00    +0.000 C 
BRANCH  19  20
ATOM     20  C   UNL     1       0.811   9.792  19.506  0.00  0.00    +0.000 A 
ATOM     21  C   UNL     1       0.247   9.913  20.792  0.00  0.00    +0.000 A 
ATOM     22  C   UNL     1       0.401   8.913  21.749  0.00  0.00    +0.000 A 
ATOM     23  C   UNL     1       1.102   7.755  21.433  0.00  0.00    +0.000 A 
ATOM     24  C   UNL     1       1.695   7.603  20.169  0.00  0.00    +0.000 A 
ATOM     25  C   UNL     1       1.588   8.648  19.228  0.00  0.00    +0.000 A 
ATOM     26 CL   UNL     1       2.424   8.516  17.715  0.00  0.00    +0.000 Cl
BRANCH  24  27
ATOM     27  C   UNL     1       2.376   6.302  19.825  0.00  0.00    +0.000 C 
ATOM     28  F   UNL     1       2.252   5.356  20.802  0.00  0.00    +0.000 F 
ATOM     29  F   UNL     1       1.863   5.722  18.704  0.00  0.00    +0.000 F 
ATOM     30  F   UNL     1       3.714   6.432  19.616  0.00  0.00    +0.000 F 
ENDBRANCH  24  27
ENDBRANCH  19  20
ENDBRANCH   9  19
TORSDOF 4
ENDMDL
MODEL 5
REMARK VINA RESULT:      -6.8      8.548      9.882
REMARK  Name = 
REMARK  7 active torsions:
REMARK  status: ('A' for Active; 'I' for Inactive)
REMARK    1  A    between atoms: C_1  and  C_2
REMARK    2  A    between atoms: C_4  and  C_5
REMARK    3  A    between atoms: C_6  and  C_7
REMARK    4  A    between atoms: C_13  and  C_14
REMARK    5  A    between atoms: N_15  and  C_16
REMARK    6  A    between atoms: C_16  and  C_17
REMARK    7  A    between atoms: C_21  and  C_22
REMARK                            x       y       z     vdW  Elec       q    Type
REMARK                         _______ _______ _______ _____ _____    ______ ____
ROOT
ATOM      1  C   UNL     1       5.232  14.218  22.312  0.00  0.00    +0.000 A 
ATOM      2  N   UNL     1       4.052  13.992  21.762  0.00  0.00    +0.000 NA
ATOM      3  N   UNL     1       4.093  14.404  20.447  0.00  0.00    +0.000 NA
ATOM      4  C   UNL     1       5.286  14.906  20.226  0.00  0.00    +0.000 A 
ATOM      5  N   UNL     1       5.989  14.903  21.406  0.00  0.00    +0.000 N 
ATOM      6  C   UNL     1       7.310  15.478  21.508  0.00  0.00    +0.000 C 
ATOM      7  C   UNL     1       7.583  16.440  20.342  0.00  0.00    +0.000 C 
ATOM      8  C   UNL     1       6.928  17.811  20.571  0.00  0.00    +0.000 C 
ATOM      9  N   UNL     1       7.136  15.850  19.068  0.00  0.00    +0.000 N 
ATOM     10  C   UNL     1       5.847  15.308  18.953  0.00  0.00    +0.000 C 
ATOM     11  O   UNL     1       5.311  15.123  17.864  0.00  0.00    +0.000 OA
ENDROOT
BRANCH   1  17
ATOM     12  C   UNL     1       6.638  11.423  26.552  0.00  0.00    +0.000 C 
ATOM     13  C   UNL     1       6.232  12.489  25.599  0.00  0.00    +0.000 A 
ATOM     14  N   UNL     1       5.928  13.719  25.939  0.00  0.00    +0.000 NA
ATOM     15  C   UNL     1       5.538  14.446  24.819  0.00  0.00    +0.000 A 
ATOM     16  C   UNL     1       5.096  15.854  25.025  0.00  0.00    +0.000 C 
ATOM     17  C   UNL     1       5.606  13.754  23.616  0.00  0.00    +0.000 A 
ATOM     18  S   UNL     1       6.115  12.144  23.930  0.00  0.00    +0.000 S 
ENDBRANCH   1  17
BRANCH   9  19
ATOM     19  C   UNL     1       8.016  15.863  17.909  0.00  0.00    +0.000 C 
BRANCH  19  20
ATOM     20  C   UNL     1       9.328  15.131  18.152  0.00  0.00    +0.000 A 
ATOM     21  C   UNL     1      10.449  15.889  18.546  0.00  0.00    +0.000 A 
ATOM     22  C   UNL     1      11.648  15.278  18.904  0.00  0.00    +0.000 A 
ATOM     23  C   UNL     1      11.746  13.891  18.901  0.00  0.00    +0.000 A 
ATOM     24  C   UNL     1      10.658  13.101  18.497  0.00  0.00    +0.000 A 
ATOM     25  C   UNL     1       9.469  13.730  18.076  0.00  0.00    +0.000 A 
ATOM     26 CL   UNL     1       8.170  12.762  17.459  0.00  0.00    +0.000 Cl
BRANCH  24  27
ATOM     27  C   UNL     1      10.765  11.598  18.585  0.00  0.00    +0.000 C 
ATOM     28  F   UNL     1       9.827  11.041  19.406  0.00  0.00    +0.000 F 
ATOM     29  F   UNL     1      10.586  10.989  17.380  0.00  0.00    +0.000 F 
ATOM     30  F   UNL     1      11.965  11.169  19.062  0.00  0.00    +0.000 F 
ENDBRANCH  24  27
ENDBRANCH  19  20
ENDBRANCH   9  19
TORSDOF 4
ENDMDL
MODEL 6
REMARK VINA RESULT:      -6.8      7.100      8.486
REMARK  Name = 
REMARK  7 active torsions:
REMARK  status: ('A' for Active; 'I' for Inactive)
REMARK    1  A    between atoms: C_1  and  C_2
REMARK    2  A    between atoms: C_4  and  C_5
REMARK    3  A    between atoms: C_6  and  C_7
REMARK    4  A    between atoms: C_13  and  C_14
REMARK    5  A    between atoms: N_15  and  C_16
REMARK    6  A    between atoms: C_16  and  C_17
REMARK    7  A    between atoms: C_21  and  C_22
REMARK                            x       y       z     vdW  Elec       q    Type
REMARK                         _______ _______ _______ _____ _____    ______ ____
ROOT
ATOM      1  C   UNL     1       3.054  15.203  19.115  0.00  0.00    +0.000 A 
ATOM      2  N   UNL     1       2.921  16.138  18.192  0.00  0.00    +0.000 NA
ATOM      3  N   UNL     1       4.051  16.927  18.198  0.00  0.00    +0.000 NA
ATOM      4  C   UNL     1       4.840  16.481  19.150  0.00  0.00    +0.000 A 
ATOM      5  N   UNL     1       4.195  15.467  19.815  0.00  0.00    +0.000 N 
ATOM      6  C   UNL     1       4.771  14.832  20.977  0.00  0.00    +0.000 C 
ATOM      7  C   UNL     1       5.874  15.705  21.592  0.00  0.00    +0.000 C 
ATOM      8  C   UNL     1       5.290  16.835  22.455  0.00  0.00    +0.000 C 
ATOM      9  N   UNL     1       6.753  16.247  20.541  0.00  0.00    +0.000 N 
ATOM     10  C   UNL     1       6.204  16.885  19.420  0.00  0.00    +0.000 C 
ATOM     11  O   UNL     1       6.864  17.636  18.706  0.00  0.00    +0.000 OA
ENDROOT
BRANCH   1  17
ATOM     12  C   UNL     1       0.349  10.696  18.737  0.00  0.00    +0.000 C 
ATOM     13  C   UNL     1       0.864  12.040  19.107  0.00  0.00    +0.000 A 
ATOM     14  N   UNL     1       0.283  12.855  19.956  0.00  0.00    +0.000 NA
ATOM     15  C   UNL     1       0.991  14.051  20.036  0.00  0.00    +0.000 A 
ATOM     16  C   UNL     1       0.440  15.124  20.910  0.00  0.00    +0.000 C 
ATOM     17  C   UNL     1       2.150  14.101  19.270  0.00  0.00    +0.000 A 
ATOM     18  S   UNL     1       2.302  12.630  18.396  0.00  0.00    +0.000 S 
ENDBRANCH   1  17
BRANCH   9  19
ATOM     19  C   UNL     1       8.200  16.158  20.681  0.00  0.00    +0.000 C 
BRANCH  19  20
ATOM     20  C   UNL     1       8.715  14.727  20.618  0.00  0.00    +0.000 A 
ATOM     21  C   UNL     1       8.943  14.049  21.831  0.00  0.00    +0.000 A 
ATOM     22  C   UNL     1       9.297  12.702  21.853  0.00  0.00    +0.000 A 
ATOM     23  C   UNL     1       9.406  11.995  20.661  0.00  0.00    +0.000 A 
ATOM     24  C   UNL     1       9.204  12.639  19.430  0.00  0.00    +0.000 A 
ATOM     25  C   UNL     1       8.909  14.018  19.414  0.00  0.00    +0.000 A 
ATOM     26 CL   UNL     1       8.784  14.842  17.894  0.00  0.00    +0.000 Cl
BRANCH  24  27
ATOM     27  C   UNL     1       9.245  11.829  18.158  0.00  0.00    +0.000 C 
ATOM     28  F   UNL     1       9.393  10.490  18.378  0.00  0.00    +0.000 F 
ATOM     29  F   UNL     1       8.101  11.943  17.427  0.00  0.00    +0.000 F 
ATOM     30  F   UNL     1      10.269  12.175  17.331  0.00  0.00    +0.000 F 
ENDBRANCH  24  27
ENDBRANCH  19  20
ENDBRANCH   9  19
TORSDOF 4
ENDMDL
MODEL 7
REMARK VINA RESULT:      -6.8      6.720      7.889
REMARK  Name = 
REMARK  7 active torsions:
REMARK  status: ('A' for Active; 'I' for Inactive)
REMARK    1  A    between atoms: C_1  and  C_2
REMARK    2  A    between atoms: C_4  and  C_5
REMARK    3  A    between atoms: C_6  and  C_7
REMARK    4  A    between atoms: C_13  and  C_14
REMARK    5  A    between atoms: N_15  and  C_16
REMARK    6  A    between atoms: C_16  and  C_17
REMARK    7  A    between atoms: C_21  and  C_22
REMARK                            x       y       z     vdW  Elec       q    Type
REMARK                         _______ _______ _______ _____ _____    ______ ____
ROOT
ATOM      1  C   UNL     1       2.969  14.389  19.490  0.00  0.00    +0.000 A 
ATOM      2  N   UNL     1       2.849  14.687  18.208  0.00  0.00    +0.000 NA
ATOM      3  N   UNL     1       4.039  15.225  17.767  0.00  0.00    +0.000 NA
ATOM      4  C   UNL     1       4.855  15.277  18.795  0.00  0.00    +0.000 A 
ATOM      5  N   UNL     1       4.177  14.860  19.915  0.00  0.00    +0.000 N 
ATOM      6  C   UNL     1       4.782  14.891  21.227  0.00  0.00    +0.000 C 
ATOM      7  C   UNL     1       5.997  15.830  21.251  0.00  0.00    +0.000 C 
ATOM      8  C   UNL     1       5.575  17.302  21.370  0.00  0.00    +0.000 C 
ATOM      9  N   UNL     1       6.838  15.618  20.060  0.00  0.00    +0.000 N 
ATOM     10  C   UNL     1       6.264  15.608  18.780  0.00  0.00    +0.000 C 
ATOM     11  O   UNL     1       6.932  15.778  17.763  0.00  0.00    +0.000 OA
ENDROOT
BRANCH   1  17
ATOM     12  C   UNL     1      -0.549  10.900  21.285  0.00  0.00    +0.000 C 
ATOM     13  C   UNL     1       0.341  12.074  21.079  0.00  0.00    +0.000 A 
ATOM     14  N   UNL     1       0.326  13.161  21.813  0.00  0.00    +0.000 NA
ATOM     15  C   UNL     1       1.242  14.086  21.322  0.00  0.00    +0.000 A 
ATOM     16  C   UNL     1       1.319  15.411  21.997  0.00  0.00    +0.000 C 
ATOM     17  C   UNL     1       1.989  13.652  20.233  0.00  0.00    +0.000 A 
ATOM     18  S   UNL     1       1.472  12.073  19.799  0.00  0.00    +0.000 S 
ENDBRANCH   1  17
BRANCH   9  19
ATOM     19  C   UNL     1       8.279  15.459  20.202  0.00  0.00    +0.000 C 
BRANCH  19  20
ATOM     20  C   UNL     1       8.690  14.023  20.497  0.00  0.00    +0.000 A 
ATOM     21  C   UNL     1       8.665  13.586  21.836  0.00  0.00    +0.000 A 
ATOM     22  C   UNL     1       8.910  12.256  22.170  0.00  0.00    +0.000 A 
ATOM     23  C   UNL     1       9.161  11.326  21.167  0.00  0.00    +0.000 A 
ATOM     24  C   UNL     1       9.212  11.725  19.822  0.00  0.00    +0.000 A 
ATOM     25  C   UNL     1       9.026  13.085  19.499  0.00  0.00    +0.000 A 
ATOM     26 CL   UNL     1       9.213  13.600  17.855  0.00  0.00    +0.000 Cl
BRANCH  24  27
ATOM     27  C   UNL     1       9.401  10.681  18.750  0.00  0.00    +0.000 C 
ATOM     28  F   UNL     1       9.477   9.410  19.244  0.00  0.00    +0.000 F 
ATOM     29  F   UNL     1       8.371  10.652  17.859  0.00  0.00    +0.000 F 
ATOM     30  F   UNL     1      10.538  10.854  18.022  0.00  0.00    +0.000 F 
ENDBRANCH  24  27
ENDBRANCH  19  20
ENDBRANCH   9  19
TORSDOF 4
ENDMDL
MODEL 8
REMARK VINA RESULT:      -6.8      9.039     10.454
REMARK  Name = 
REMARK  7 active torsions:
REMARK  status: ('A' for Active; 'I' for Inactive)
REMARK    1  A    between atoms: C_1  and  C_2
REMARK    2  A    between atoms: C_4  and  C_5
REMARK    3  A    between atoms: C_6  and  C_7
REMARK    4  A    between atoms: C_13  and  C_14
REMARK    5  A    between atoms: N_15  and  C_16
REMARK    6  A    between atoms: C_16  and  C_17
REMARK    7  A    between atoms: C_21  and  C_22
REMARK                            x       y       z     vdW  Elec       q    Type
REMARK                         _______ _______ _______ _____ _____    ______ ____
ROOT
ATOM      1  C   UNL     1       5.836  13.941  22.845  0.00  0.00    +0.000 A 
ATOM      2  N   UNL     1       4.639  13.824  22.299  0.00  0.00    +0.000 NA
ATOM      3  N   UNL     1       4.662  14.415  21.054  0.00  0.00    +0.000 NA
ATOM      4  C   UNL     1       5.865  14.913  20.875  0.00  0.00    +0.000 A 
ATOM      5  N   UNL     1       6.593  14.727  22.024  0.00  0.00    +0.000 N 
ATOM      6  C   UNL     1       7.931  15.249  22.172  0.00  0.00    +0.000 C 
ATOM      7  C   UNL     1       8.205  16.358  21.145  0.00  0.00    +0.000 C 
ATOM      8  C   UNL     1       7.595  17.699  21.580  0.00  0.00    +0.000 C 
ATOM      9  N   UNL     1       7.714  15.964  19.813  0.00  0.00    +0.000 N 
ATOM     10  C   UNL     1       6.409  15.476  19.656  0.00  0.00    +0.000 C 
ATOM     11  O   UNL     1       5.844  15.459  18.566  0.00  0.00    +0.000 OA
ENDROOT
BRANCH   1  17
ATOM     12  C   UNL     1       6.658  12.468  27.837  0.00  0.00    +0.000 C 
ATOM     13  C   UNL     1       6.644  12.595  26.356  0.00  0.00    +0.000 A 
ATOM     14  N   UNL     1       7.367  11.867  25.537  0.00  0.00    +0.000 NA
ATOM     15  C   UNL     1       7.160  12.274  24.223  0.00  0.00    +0.000 A 
ATOM     16  C   UNL     1       7.949  11.597  23.156  0.00  0.00    +0.000 C 
ATOM     17  C   UNL     1       6.225  13.289  24.061  0.00  0.00    +0.000 A 
ATOM     18  S   UNL     1       5.651  13.766  25.608  0.00  0.00    +0.000 S 
ENDBRANCH   1  17
BRANCH   9  19
ATOM     19  C   UNL     1       8.569  16.117  18.644  0.00  0.00    +0.000 C 
BRANCH  19  20
ATOM     20  C   UNL     1       9.855  15.308  18.740  0.00  0.00    +0.000 A 
ATOM     21  C   UNL     1      11.041  15.982  19.090  0.00  0.00    +0.000 A 
ATOM     22  C   UNL     1      12.229  15.291  19.316  0.00  0.00    +0.000 A 
ATOM     23  C   UNL     1      12.252  13.904  19.220  0.00  0.00    +0.000 A 
ATOM     24  C   UNL     1      11.095  13.196  18.855  0.00  0.00    +0.000 A 
ATOM     25  C   UNL     1       9.913  13.909  18.567  0.00  0.00    +0.000 A 
ATOM     26 CL   UNL     1       8.521  13.048  17.996  0.00  0.00    +0.000 Cl
BRANCH  24  27
ATOM     27  C   UNL     1      11.127  11.688  18.843  0.00  0.00    +0.000 C 
ATOM     28  F   UNL     1      10.222  11.125  19.696  0.00  0.00    +0.000 F 
ATOM     29  F   UNL     1      10.831  11.167  17.619  0.00  0.00    +0.000 F 
ATOM     30  F   UNL     1      12.333  11.170  19.202  0.00  0.00    +0.000 F 
ENDBRANCH  24  27
ENDBRANCH  19  20
ENDBRANCH   9  19
TORSDOF 4
ENDMDL
MODEL 9
REMARK VINA RESULT:      -6.8      5.109      8.158
REMARK  Name = 
REMARK  7 active torsions:
REMARK  status: ('A' for Active; 'I' for Inactive)
REMARK    1  A    between atoms: C_1  and  C_2
REMARK    2  A    between atoms: C_4  and  C_5
REMARK    3  A    between atoms: C_6  and  C_7
REMARK    4  A    between atoms: C_13  and  C_14
REMARK    5  A    between atoms: N_15  and  C_16
REMARK    6  A    between atoms: C_16  and  C_17
REMARK    7  A    between atoms: C_21  and  C_22
REMARK                            x       y       z     vdW  Elec       q    Type
REMARK                         _______ _______ _______ _____ _____    ______ ____
ROOT
ATOM      1  C   UNL     1       1.534   8.351  20.641  0.00  0.00    +0.000 A 
ATOM      2  N   UNL     1       1.634   8.500  21.950  0.00  0.00    +0.000 NA
ATOM      3  N   UNL     1       1.054   9.700  22.304  0.00  0.00    +0.000 NA
ATOM      4  C   UNL     1       0.640  10.279  21.200  0.00  0.00    +0.000 A 
ATOM      5  N   UNL     1       1.022   9.508  20.129  0.00  0.00    +0.000 N 
ATOM      6  C   UNL     1       0.789   9.928  18.767  0.00  0.00    +0.000 C 
ATOM      7  C   UNL     1       0.525  11.439  18.694  0.00  0.00    +0.000 C 
ATOM      8  C   UNL     1       1.829  12.248  18.759  0.00  0.00    +0.000 C 
ATOM      9  N   UNL     1      -0.405  11.854  19.758  0.00  0.00    +0.000 N 
ATOM     10  C   UNL     1      -0.176  11.470  21.088  0.00  0.00    +0.000 C 
ATOM     11  O   UNL     1      -0.700  12.050  22.035  0.00  0.00    +0.000 OA
ENDROOT
BRANCH   1  17
ATOM     12  C   UNL     1       2.474   3.385  19.152  0.00  0.00    +0.000 C 
ATOM     13  C   UNL     1       2.339   4.863  19.235  0.00  0.00    +0.000 A 
ATOM     14  N   UNL     1       2.768   5.705  18.325  0.00  0.00    +0.000 NA
ATOM     15  C   UNL     1       2.535   7.015  18.733  0.00  0.00    +0.000 A 
ATOM     16  C   UNL     1       3.015   8.112  17.847  0.00  0.00    +0.000 C 
ATOM     17  C   UNL     1       1.871   7.143  19.947  0.00  0.00    +0.000 A 
ATOM     18  S   UNL     1       1.597   5.577  20.598  0.00  0.00    +0.000 S 
ENDBRANCH   1  17
BRANCH   9  19
ATOM     19  C   UNL     1      -1.547  12.701  19.442  0.00  0.00    +0.000 C 
BRANCH  19  20
ATOM     20  C   UNL     1      -2.667  11.947  18.739  0.00  0.00    +0.000 A 
ATOM     21  C   UNL     1      -2.321  11.049  17.710  0.00  0.00    +0.000 A 
ATOM     22  C   UNL     1      -3.276  10.236  17.105  0.00  0.00    +0.000 A 
ATOM     23  C   UNL     1      -4.598  10.283  17.535  0.00  0.00    +0.000 A 
ATOM     24  C   UNL     1      -4.987  11.177  18.545  0.00  0.00    +0.000 A 
ATOM     25  C   UNL     1      -4.025  12.042  19.107  0.00  0.00    +0.000 A 
ATOM     26 CL   UNL     1      -4.528  13.232  20.264  0.00  0.00    +0.000 Cl
BRANCH  24  27
ATOM     27  C   UNL     1      -6.408  11.148  19.049  0.00  0.00    +0.000 C 
ATOM     28  F   UNL     1      -7.105  12.285  18.759  0.00  0.00    +0.000 F 
ATOM     29  F   UNL     1      -7.138  10.137  18.501  0.00  0.00    +0.000 F 
ATOM     30  F   UNL     1      -6.499  11.002  20.400  0.00  0.00    +0.000 F 
ENDBRANCH  24  27
ENDBRANCH  19  20
ENDBRANCH   9  19
TORSDOF 4
ENDMDL
