MODEL 1
REMARK VINA RESULT:      -9.1      0.000      0.000
REMARK  Name = 
REMARK  7 active torsions:
REMARK  status: ('A' for Active; 'I' for Inactive)
REMARK    1  A    between atoms: C_2  and  C_5
REMARK    2  A    between atoms: N_3  and  O_4
REMARK    3  A    between atoms: C_5  and  N_6
REMARK    4  A    between atoms: C_5  and  C_16
REMARK    5  A    between atoms: C_7  and  C_9
REMARK    6  A    between atoms: C_9  and  C_12
REMARK    7  A    between atoms: C_19  and  C_20
REMARK                            x       y       z     vdW  Elec       q    Type
REMARK                         _______ _______ _______ _____ _____    ______ ____
ROOT
ATOM      1  C   UNL     1       3.477   5.761  18.093  0.00  0.00    +0.000 C 
ENDROOT
BRANCH   1   2
ATOM      2  C   UNL     1       2.722   7.021  18.480  0.00  0.00    +0.000 A 
ATOM      3  C   UNL     1       2.235   7.168  19.783  0.00  0.00    +0.000 A 
ATOM      4  C   UNL     1       1.559   8.334  20.172  0.00  0.00    +0.000 A 
ATOM      5  C   UNL     1       1.363   9.407  19.285  0.00  0.00    +0.000 A 
ATOM      6  C   UNL     1       1.857   9.245  17.979  0.00  0.00    +0.000 A 
ATOM      7  C   UNL     1       2.519   8.075  17.580  0.00  0.00    +0.000 A 
BRANCH   5   8
ATOM      8  C   UNL     1       0.678  10.652  19.712  0.00  0.00    +0.000 A 
ATOM      9  C   UNL     1       0.305  11.642  18.780  0.00  0.00    +0.000 A 
ATOM     10  C   UNL     1      -0.344  12.808  19.186  0.00  0.00    +0.000 A 
ATOM     11  F   UNL     1      -0.668  13.726  18.265  0.00  0.00    +0.000 F 
ATOM     12  C   UNL     1      -0.655  13.024  20.518  0.00  0.00    +0.000 A 
ATOM     13  F   UNL     1      -1.285  14.140  20.899  0.00  0.00    +0.000 F 
ATOM     14  C   UNL     1      -0.305  12.062  21.451  0.00  0.00    +0.000 A 
ATOM     15  F   UNL     1      -0.599  12.240  22.744  0.00  0.00    +0.000 F 
ATOM     16  C   UNL     1       0.360  10.895  21.062  0.00  0.00    +0.000 A 
ENDBRANCH   5   8
ENDBRANCH   1   2
BRANCH   1  18
ATOM     17  O   UNL     1       5.755   6.548  17.570  0.00  0.00    +0.000 OA
ATOM     18  C   UNL     1       5.006   5.880  18.284  0.00  0.00    +0.000 C 
ATOM     19  N   UNL     1       5.480   5.229  19.409  0.00  0.00    +0.000 N 
ATOM     20  H   UNL     1       4.887   5.142  20.235  0.00  0.00    +0.000 HD
BRANCH  19  21
ATOM     21  O   UNL     1       6.863   5.418  19.661  0.00  0.00    +0.000 OA
ATOM     22  H   UNL     1       7.154   5.947  18.886  0.00  0.00    +0.000 HD
ENDBRANCH  19  21
ENDBRANCH   1  18
BRANCH   1  23
ATOM     23  N   UNL     1       2.969   4.618  18.842  0.00  0.00    +0.000 N 
ATOM     24  C   UNL     1       1.870   3.891  18.417  0.00  0.00    +0.000 C 
ATOM     25  O   UNL     1       1.267   4.207  17.389  0.00  0.00    +0.000 OA
ATOM     26  H   UNL     1       3.493   4.294  19.649  0.00  0.00    +0.000 HD
BRANCH  24  27
ATOM     27  C   UNL     1       1.461   2.748  19.345  0.00  0.00    +0.000 C 
ATOM     28  F   UNL     1       0.246   2.243  18.946  0.00  0.00    +0.000 F 
ATOM     29  F   UNL     1       2.322   1.689  19.249  0.00  0.00    +0.000 F 
BRANCH  27  30
ATOM     30  C   UNL     1       1.372   3.254  20.783  0.00  0.00    +0.000 C 
ATOM     31  F   UNL     1       2.576   3.498  21.354  0.00  0.00    +0.000 F 
ATOM     32  F   UNL     1       0.687   4.428  20.842  0.00  0.00    +0.000 F 
ATOM     33  F   UNL     1       0.713   2.388  21.592  0.00  0.00    +0.000 F 
ENDBRANCH  27  30
ENDBRANCH  24  27
ENDBRANCH   1  23
TORSDOF 7
ENDMDL
MODEL 2
REMARK VINA RESULT:      -9.1      3.078      4.504
REMARK  Name = 
REMARK  7 active torsions:
REMARK  status: ('A' for Active; 'I' for Inactive)
REMARK    1  A    between atoms: C_2  and  C_5
REMARK    2  A    between atoms: N_3  and  O_4
REMARK    3  A    between atoms: C_5  and  N_6
REMARK    4  A    between atoms: C_5  and  C_16
REMARK    5  A    between atoms: C_7  and  C_9
REMARK    6  A    between atoms: C_9  and  C_12
REMARK    7  A    between atoms: C_19  and  C_20
REMARK                            x       y       z     vdW  Elec       q    Type
REMARK                         _______ _______ _______ _____ _____    ______ ____
ROOT
ATOM      1  C   UNL     1       3.148   4.177  18.781  0.00  0.00    +0.000 C 
ENDROOT
BRANCH   1   2
ATOM      2  C   UNL     1       2.588   5.480  19.325  0.00  0.00    +0.000 A 
ATOM      3  C   UNL     1       2.686   6.650  18.565  0.00  0.00    +0.000 A 
ATOM      4  C   UNL     1       2.152   7.860  19.033  0.00  0.00    +0.000 A 
ATOM      5  C   UNL     1       1.482   7.945  20.265  0.00  0.00    +0.000 A 
ATOM      6  C   UNL     1       1.393   6.762  21.019  0.00  0.00    +0.000 A 
ATOM      7  C   UNL     1       1.938   5.554  20.563  0.00  0.00    +0.000 A 
BRANCH   5   8
ATOM      8  C   UNL     1       0.888   9.219  20.740  0.00  0.00    +0.000 A 
ATOM      9  C   UNL     1       0.969  10.399  19.974  0.00  0.00    +0.000 A 
ATOM     10  C   UNL     1       0.403  11.593  20.423  0.00  0.00    +0.000 A 
ATOM     11  F   UNL     1       0.517  12.691  19.665  0.00  0.00    +0.000 F 
ATOM     12  C   UNL     1      -0.270  11.652  21.632  0.00  0.00    +0.000 A 
ATOM     13  F   UNL     1      -0.817  12.797  22.053  0.00  0.00    +0.000 F 
ATOM     14  C   UNL     1      -0.368  10.503  22.399  0.00  0.00    +0.000 A 
ATOM     15  F   UNL     1      -1.018  10.528  23.569  0.00  0.00    +0.000 F 
ATOM     16  C   UNL     1       0.208   9.303  21.970  0.00  0.00    +0.000 A 
ENDBRANCH   5   8
ENDBRANCH   1   2
BRANCH   1  18
ATOM     17  O   UNL     1       2.029   3.127  16.850  0.00  0.00    +0.000 OA
ATOM     18  C   UNL     1       2.089   3.306  18.067  0.00  0.00    +0.000 C 
ATOM     19  N   UNL     1       1.237   2.643  18.932  0.00  0.00    +0.000 N 
ATOM     20  H   UNL     1       1.567   2.357  19.854  0.00  0.00    +0.000 HD
BRANCH  19  21
ATOM     21  O   UNL     1       0.329   1.755  18.300  0.00  0.00    +0.000 OA
ATOM     22  H   UNL     1       0.914   1.024  18.001  0.00  0.00    +0.000 HD
ENDBRANCH  19  21
ENDBRANCH   1  18
BRANCH   1  23
ATOM     23  N   UNL     1       4.263   4.443  17.879  0.00  0.00    +0.000 N 
ATOM     24  C   UNL     1       5.581   4.326  18.286  0.00  0.00    +0.000 C 
ATOM     25  O   UNL     1       5.855   4.010  19.446  0.00  0.00    +0.000 OA
ATOM     26  H   UNL     1       4.062   4.631  16.901  0.00  0.00    +0.000 HD
BRANCH  24  27
ATOM     27  C   UNL     1       6.614   4.677  17.216  0.00  0.00    +0.000 C 
ATOM     28  F   UNL     1       7.875   4.374  17.677  0.00  0.00    +0.000 F 
ATOM     29  F   UNL     1       6.462   3.903  16.098  0.00  0.00    +0.000 F 
BRANCH  27  30
ATOM     30  C   UNL     1       6.523   6.161  16.873  0.00  0.00    +0.000 C 
ATOM     31  F   UNL     1       5.710   6.433  15.825  0.00  0.00    +0.000 F 
ATOM     32  F   UNL     1       6.029   6.872  17.922  0.00  0.00    +0.000 F 
ATOM     33  F   UNL     1       7.735   6.697  16.589  0.00  0.00    +0.000 F 
ENDBRANCH  27  30
ENDBRANCH  24  27
ENDBRANCH   1  23
TORSDOF 7
ENDMDL
MODEL 3
REMARK VINA RESULT:      -9.1      3.084      4.706
REMARK  Name = 
REMARK  7 active torsions:
REMARK  status: ('A' for Active; 'I' for Inactive)
REMARK    1  A    between atoms: C_2  and  C_5
REMARK    2  A    between atoms: N_3  and  O_4
REMARK    3  A    between atoms: C_5  and  N_6
REMARK    4  A    between atoms: C_5  and  C_16
REMARK    5  A    between atoms: C_7  and  C_9
REMARK    6  A    between atoms: C_9  and  C_12
REMARK    7  A    between atoms: C_19  and  C_20
REMARK                            x       y       z     vdW  Elec       q    Type
REMARK                         _______ _______ _______ _____ _____    ______ ____
ROOT
ATOM      1  C   UNL     1       3.141   4.220  18.786  0.00  0.00    +0.000 C 
ENDROOT
BRANCH   1   2
ATOM      2  C   UNL     1       2.579   5.529  19.314  0.00  0.00    +0.000 A 
ATOM      3  C   UNL     1       2.690   6.694  18.547  0.00  0.00    +0.000 A 
ATOM      4  C   UNL     1       2.154   7.908  19.000  0.00  0.00    +0.000 A 
ATOM      5  C   UNL     1       1.469   8.005  20.223  0.00  0.00    +0.000 A 
ATOM      6  C   UNL     1       1.366   6.828  20.984  0.00  0.00    +0.000 A 
ATOM      7  C   UNL     1       1.913   5.614  20.543  0.00  0.00    +0.000 A 
BRANCH   5   8
ATOM      8  C   UNL     1       0.874   9.284  20.681  0.00  0.00    +0.000 A 
ATOM      9  C   UNL     1       0.208   9.384  21.919  0.00  0.00    +0.000 A 
ATOM     10  C   UNL     1      -0.344  10.591  22.349  0.00  0.00    +0.000 A 
ATOM     11  F   UNL     1      -0.978  10.633  23.528  0.00  0.00    +0.000 F 
ATOM     12  C   UNL     1      -0.242  11.736  21.575  0.00  0.00    +0.000 A 
ATOM     13  F   UNL     1      -0.766  12.892  21.997  0.00  0.00    +0.000 F 
ATOM     14  C   UNL     1       0.415  11.664  20.358  0.00  0.00    +0.000 A 
ATOM     15  F   UNL     1       0.534  12.756  19.593  0.00  0.00    +0.000 F 
ATOM     16  C   UNL     1       0.959  10.458  19.907  0.00  0.00    +0.000 A 
ENDBRANCH   5   8
ENDBRANCH   1   2
BRANCH   1  18
ATOM     17  O   UNL     1       2.030   3.146  16.866  0.00  0.00    +0.000 OA
ATOM     18  C   UNL     1       2.085   3.340  18.080  0.00  0.00    +0.000 C 
ATOM     19  N   UNL     1       1.228   2.691  18.950  0.00  0.00    +0.000 N 
ATOM     20  H   UNL     1       1.553   2.417  19.878  0.00  0.00    +0.000 HD
BRANCH  19  21
ATOM     21  O   UNL     1       0.322   1.795  18.327  0.00  0.00    +0.000 OA
ATOM     22  H   UNL     1      -0.280   1.548  19.062  0.00  0.00    +0.000 HD
ENDBRANCH  19  21
ENDBRANCH   1  18
BRANCH   1  23
ATOM     23  N   UNL     1       4.258   4.477  17.885  0.00  0.00    +0.000 N 
ATOM     24  C   UNL     1       5.575   4.326  18.285  0.00  0.00    +0.000 C 
ATOM     25  O   UNL     1       5.846   3.986  19.439  0.00  0.00    +0.000 OA
ATOM     26  H   UNL     1       4.058   4.684  16.910  0.00  0.00    +0.000 HD
BRANCH  24  27
ATOM     27  C   UNL     1       6.611   4.671  17.217  0.00  0.00    +0.000 C 
ATOM     28  F   UNL     1       7.872   4.397  17.693  0.00  0.00    +0.000 F 
ATOM     29  F   UNL     1       6.480   3.874  16.113  0.00  0.00    +0.000 F 
BRANCH  27  30
ATOM     30  C   UNL     1       6.501   6.147  16.844  0.00  0.00    +0.000 C 
ATOM     31  F   UNL     1       6.001   6.927  17.832  0.00  0.00    +0.000 F 
ATOM     32  F   UNL     1       7.722   6.664  16.542  0.00  0.00    +0.000 F 
ATOM     33  F   UNL     1       5.725   6.343  15.749  0.00  0.00    +0.000 F 
ENDBRANCH  27  30
ENDBRANCH  24  27
ENDBRANCH   1  23
TORSDOF 7
ENDMDL
MODEL 4
REMARK VINA RESULT:      -9.1      0.805      1.372
REMARK  Name = 
REMARK  7 active torsions:
REMARK  status: ('A' for Active; 'I' for Inactive)
REMARK    1  A    between atoms: C_2  and  C_5
REMARK    2  A    between atoms: N_3  and  O_4
REMARK    3  A    between atoms: C_5  and  N_6
REMARK    4  A    between atoms: C_5  and  C_16
REMARK    5  A    between atoms: C_7  and  C_9
REMARK    6  A    between atoms: C_9  and  C_12
REMARK    7  A    between atoms: C_19  and  C_20
REMARK                            x       y       z     vdW  Elec       q    Type
REMARK                         _______ _______ _______ _____ _____    ______ ____
ROOT
ATOM      1  C   UNL     1       3.494   5.772  18.118  0.00  0.00    +0.000 C 
ENDROOT
BRANCH   1   2
ATOM      2  C   UNL     1       2.742   7.033  18.508  0.00  0.00    +0.000 A 
ATOM      3  C   UNL     1       2.513   8.031  17.555  0.00  0.00    +0.000 A 
ATOM      4  C   UNL     1       1.797   9.191  17.884  0.00  0.00    +0.000 A 
ATOM      5  C   UNL     1       1.262   9.391  19.168  0.00  0.00    +0.000 A 
ATOM      6  C   UNL     1       1.500   8.381  20.116  0.00  0.00    +0.000 A 
ATOM      7  C   UNL     1       2.229   7.227  19.797  0.00  0.00    +0.000 A 
BRANCH   5   8
ATOM      8  C   UNL     1       0.475  10.604  19.501  0.00  0.00    +0.000 A 
ATOM      9  C   UNL     1      -0.816  10.810  18.976  0.00  0.00    +0.000 A 
ATOM     10  C   UNL     1      -1.554  11.949  19.299  0.00  0.00    +0.000 A 
ATOM     11  F   UNL     1      -2.773  12.107  18.765  0.00  0.00    +0.000 F 
ATOM     12  C   UNL     1      -1.045  12.908  20.159  0.00  0.00    +0.000 A 
ATOM     13  F   UNL     1      -1.762  13.994  20.470  0.00  0.00    +0.000 F 
ATOM     14  C   UNL     1       0.219  12.724  20.692  0.00  0.00    +0.000 A 
ATOM     15  F   UNL     1       0.734  13.631  21.531  0.00  0.00    +0.000 F 
ATOM     16  C   UNL     1       0.978  11.596  20.366  0.00  0.00    +0.000 A 
ENDBRANCH   5   8
ENDBRANCH   1   2
BRANCH   1  18
ATOM     17  O   UNL     1       5.771   6.558  17.590  0.00  0.00    +0.000 OA
ATOM     18  C   UNL     1       5.024   5.889  18.305  0.00  0.00    +0.000 C 
ATOM     19  N   UNL     1       5.501   5.235  19.426  0.00  0.00    +0.000 N 
ATOM     20  H   UNL     1       4.910   5.146  20.254  0.00  0.00    +0.000 HD
BRANCH  19  21
ATOM     21  O   UNL     1       6.884   5.422  19.675  0.00  0.00    +0.000 OA
ATOM     22  H   UNL     1       7.119   6.150  19.059  0.00  0.00    +0.000 HD
ENDBRANCH  19  21
ENDBRANCH   1  18
BRANCH   1  23
ATOM     23  N   UNL     1       2.987   4.629  18.868  0.00  0.00    +0.000 N 
ATOM     24  C   UNL     1       1.896   3.893  18.436  0.00  0.00    +0.000 C 
ATOM     25  O   UNL     1       1.300   4.201  17.401  0.00  0.00    +0.000 OA
ATOM     26  H   UNL     1       3.507   4.312  19.681  0.00  0.00    +0.000 HD
BRANCH  24  27
ATOM     27  C   UNL     1       1.487   2.752  19.366  0.00  0.00    +0.000 C 
ATOM     28  F   UNL     1       0.258   2.265  18.984  0.00  0.00    +0.000 F 
ATOM     29  F   UNL     1       2.331   1.681  19.250  0.00  0.00    +0.000 F 
BRANCH  27  30
ATOM     30  C   UNL     1       1.429   3.252  20.807  0.00  0.00    +0.000 C 
ATOM     31  F   UNL     1       0.871   4.478  20.940  0.00  0.00    +0.000 F 
ATOM     32  F   UNL     1       0.685   2.416  21.581  0.00  0.00    +0.000 F 
ATOM     33  F   UNL     1       2.657   3.307  21.380  0.00  0.00    +0.000 F 
ENDBRANCH  27  30
ENDBRANCH  24  27
ENDBRANCH   1  23
TORSDOF 7
ENDMDL
MODEL 5
REMARK VINA RESULT:      -9.1      0.850      1.528
REMARK  Name = 
REMARK  7 active torsions:
REMARK  status: ('A' for Active; 'I' for Inactive)
REMARK    1  A    between atoms: C_2  and  C_5
REMARK    2  A    between atoms: N_3  and  O_4
REMARK    3  A    between atoms: C_5  and  N_6
REMARK    4  A    between atoms: C_5  and  C_16
REMARK    5  A    between atoms: C_7  and  C_9
REMARK    6  A    between atoms: C_9  and  C_12
REMARK    7  A    between atoms: C_19  and  C_20
REMARK                            x       y       z     vdW  Elec       q    Type
REMARK                         _______ _______ _______ _____ _____    ______ ____
ROOT
ATOM      1  C   UNL     1       3.515   5.774  18.098  0.00  0.00    +0.000 C 
ENDROOT
BRANCH   1   2
ATOM      2  C   UNL     1       2.759   7.037  18.472  0.00  0.00    +0.000 A 
ATOM      3  C   UNL     1       2.544   8.030  17.510  0.00  0.00    +0.000 A 
ATOM      4  C   UNL     1       1.825   9.193  17.823  0.00  0.00    +0.000 A 
ATOM      5  C   UNL     1       1.275   9.402  19.099  0.00  0.00    +0.000 A 
ATOM      6  C   UNL     1       1.499   8.396  20.056  0.00  0.00    +0.000 A 
ATOM      7  C   UNL     1       2.230   7.239  19.753  0.00  0.00    +0.000 A 
BRANCH   5   8
ATOM      8  C   UNL     1       0.485  10.617  19.416  0.00  0.00    +0.000 A 
ATOM      9  C   UNL     1       1.060  11.712  20.092  0.00  0.00    +0.000 A 
ATOM     10  C   UNL     1       0.315  12.855  20.381  0.00  0.00    +0.000 A 
ATOM     11  F   UNL     1       0.902  13.865  21.037  0.00  0.00    +0.000 F 
ATOM     12  C   UNL     1      -1.013  12.956  19.999  0.00  0.00    +0.000 A 
ATOM     13  F   UNL     1      -1.720  14.058  20.273  0.00  0.00    +0.000 F 
ATOM     14  C   UNL     1      -1.597  11.895  19.328  0.00  0.00    +0.000 A 
ATOM     15  F   UNL     1      -2.877  11.966  18.941  0.00  0.00    +0.000 F 
ATOM     16  C   UNL     1      -0.868  10.736  19.045  0.00  0.00    +0.000 A 
ENDBRANCH   5   8
ENDBRANCH   1   2
BRANCH   1  18
ATOM     17  O   UNL     1       5.795   6.568  17.598  0.00  0.00    +0.000 OA
ATOM     18  C   UNL     1       5.042   5.891  18.299  0.00  0.00    +0.000 C 
ATOM     19  N   UNL     1       5.510   5.227  19.419  0.00  0.00    +0.000 N 
ATOM     20  H   UNL     1       4.912   5.130  20.241  0.00  0.00    +0.000 HD
BRANCH  19  21
ATOM     21  O   UNL     1       6.891   5.413  19.682  0.00  0.00    +0.000 OA
ATOM     22  H   UNL     1       7.016   4.940  20.533  0.00  0.00    +0.000 HD
ENDBRANCH  19  21
ENDBRANCH   1  18
BRANCH   1  23
ATOM     23  N   UNL     1       2.999   4.636  18.850  0.00  0.00    +0.000 N 
ATOM     24  C   UNL     1       1.895   3.915  18.428  0.00  0.00    +0.000 C 
ATOM     25  O   UNL     1       1.294   4.232  17.399  0.00  0.00    +0.000 OA
ATOM     26  H   UNL     1       3.522   4.311  19.658  0.00  0.00    +0.000 HD
BRANCH  24  27
ATOM     27  C   UNL     1       1.479   2.778  19.359  0.00  0.00    +0.000 C 
ATOM     28  F   UNL     1       0.266   2.271  18.954  0.00  0.00    +0.000 F 
ATOM     29  F   UNL     1       2.340   1.718  19.274  0.00  0.00    +0.000 F 
BRANCH  27  30
ATOM     30  C   UNL     1       1.381   3.292  20.794  0.00  0.00    +0.000 C 
ATOM     31  F   UNL     1       2.581   3.506  21.383  0.00  0.00    +0.000 F 
ATOM     32  F   UNL     1       0.725   4.482  20.838  0.00  0.00    +0.000 F 
ATOM     33  F   UNL     1       0.687   2.446  21.595  0.00  0.00    +0.000 F 
ENDBRANCH  27  30
ENDBRANCH  24  27
ENDBRANCH   1  23
TORSDOF 7
ENDMDL
MODEL 6
REMARK VINA RESULT:      -9.1      0.882      1.548
REMARK  Name = 
REMARK  7 active torsions:
REMARK  status: ('A' for Active; 'I' for Inactive)
REMARK    1  A    between atoms: C_2  and  C_5
REMARK    2  A    between atoms: N_3  and  O_4
REMARK    3  A    between atoms: C_5  and  N_6
REMARK    4  A    between atoms: C_5  and  C_16
REMARK    5  A    between atoms: C_7  and  C_9
REMARK    6  A    between atoms: C_9  and  C_12
REMARK    7  A    between atoms: C_19  and  C_20
REMARK                            x       y       z     vdW  Elec       q    Type
REMARK                         _______ _______ _______ _____ _____    ______ ____
ROOT
ATOM      1  C   UNL     1       3.222   5.899  17.893  0.00  0.00    +0.000 C 
ENDROOT
BRANCH   1   2
ATOM      2  C   UNL     1       2.552   7.135  18.469  0.00  0.00    +0.000 A 
ATOM      3  C   UNL     1       2.262   8.222  17.637  0.00  0.00    +0.000 A 
ATOM      4  C   UNL     1       1.619   9.362  18.140  0.00  0.00    +0.000 A 
ATOM      5  C   UNL     1       1.220   9.455  19.484  0.00  0.00    +0.000 A 
ATOM      6  C   UNL     1       1.518   8.356  20.309  0.00  0.00    +0.000 A 
ATOM      7  C   UNL     1       2.175   7.220  19.815  0.00  0.00    +0.000 A 
BRANCH   5   8
ATOM      8  C   UNL     1       0.509  10.648  20.003  0.00  0.00    +0.000 A 
ATOM      9  C   UNL     1       0.157  11.721  19.158  0.00  0.00    +0.000 A 
ATOM     10  C   UNL     1      -0.518  12.838  19.651  0.00  0.00    +0.000 A 
ATOM     11  F   UNL     1      -0.819  13.837  18.811  0.00  0.00    +0.000 F 
ATOM     12  C   UNL     1      -0.877  12.922  20.986  0.00  0.00    +0.000 A 
ATOM     13  F   UNL     1      -1.531  13.992  21.449  0.00  0.00    +0.000 F 
ATOM     14  C   UNL     1      -0.549  11.878  21.834  0.00  0.00    +0.000 A 
ATOM     15  F   UNL     1      -0.888  11.929  23.128  0.00  0.00    +0.000 F 
ATOM     16  C   UNL     1       0.142  10.758  21.359  0.00  0.00    +0.000 A 
ENDBRANCH   5   8
ENDBRANCH   1   2
BRANCH   1  18
ATOM     17  O   UNL     1       5.644   5.966  18.348  0.00  0.00    +0.000 OA
ATOM     18  C   UNL     1       4.714   6.113  17.554  0.00  0.00    +0.000 C 
ATOM     19  N   UNL     1       4.948   6.405  16.223  0.00  0.00    +0.000 N 
ATOM     20  H   UNL     1       4.330   6.031  15.502  0.00  0.00    +0.000 HD
BRANCH  19  21
ATOM     21  O   UNL     1       6.319   6.497  15.871  0.00  0.00    +0.000 OA
ATOM     22  H   UNL     1       6.535   5.578  15.600  0.00  0.00    +0.000 HD
ENDBRANCH  19  21
ENDBRANCH   1  18
BRANCH   1  23
ATOM     23  N   UNL     1       3.076   4.773  18.807  0.00  0.00    +0.000 N 
ATOM     24  C   UNL     1       2.129   3.782  18.607  0.00  0.00    +0.000 C 
ATOM     25  O   UNL     1       1.357   3.836  17.647  0.00  0.00    +0.000 OA
ATOM     26  H   UNL     1       3.749   4.668  19.561  0.00  0.00    +0.000 HD
BRANCH  24  27
ATOM     27  C   UNL     1       2.099   2.699  19.684  0.00  0.00    +0.000 C 
ATOM     28  F   UNL     1       1.345   1.635  19.246  0.00  0.00    +0.000 F 
ATOM     29  F   UNL     1       3.343   2.171  19.901  0.00  0.00    +0.000 F 
BRANCH  27  30
ATOM     30  C   UNL     1       1.510   3.265  20.973  0.00  0.00    +0.000 C 
ATOM     31  F   UNL     1       0.921   2.336  21.762  0.00  0.00    +0.000 F 
ATOM     32  F   UNL     1       2.478   3.842  21.736  0.00  0.00    +0.000 F 
ATOM     33  F   UNL     1       0.589   4.231  20.735  0.00  0.00    +0.000 F 
ENDBRANCH  27  30
ENDBRANCH  24  27
ENDBRANCH   1  23
TORSDOF 7
ENDMDL
MODEL 7
REMARK VINA RESULT:      -9.1      1.111      1.395
REMARK  Name = 
REMARK  7 active torsions:
REMARK  status: ('A' for Active; 'I' for Inactive)
REMARK    1  A    between atoms: C_2  and  C_5
REMARK    2  A    between atoms: N_3  and  O_4
REMARK    3  A    between atoms: C_5  and  N_6
REMARK    4  A    between atoms: C_5  and  C_16
REMARK    5  A    between atoms: C_7  and  C_9
REMARK    6  A    between atoms: C_9  and  C_12
REMARK    7  A    between atoms: C_19  and  C_20
REMARK                            x       y       z     vdW  Elec       q    Type
REMARK                         _______ _______ _______ _____ _____    ______ ____
ROOT
ATOM      1  C   UNL     1       3.174   5.887  17.897  0.00  0.00    +0.000 C 
ENDROOT
BRANCH   1   2
ATOM      2  C   UNL     1       2.476   7.058  18.568  0.00  0.00    +0.000 A 
ATOM      3  C   UNL     1       2.175   6.999  19.933  0.00  0.00    +0.000 A 
ATOM      4  C   UNL     1       1.556   8.079  20.581  0.00  0.00    +0.000 A 
ATOM      5  C   UNL     1       1.235   9.265  19.900  0.00  0.00    +0.000 A 
ATOM      6  C   UNL     1       1.543   9.310  18.529  0.00  0.00    +0.000 A 
ATOM      7  C   UNL     1       2.147   8.228  17.873  0.00  0.00    +0.000 A 
BRANCH   5   8
ATOM      8  C   UNL     1       0.613  10.417  20.597  0.00  0.00    +0.000 A 
ATOM      9  C   UNL     1       0.759  11.734  20.117  0.00  0.00    +0.000 A 
ATOM     10  C   UNL     1       0.166  12.813  20.773  0.00  0.00    +0.000 A 
ATOM     11  F   UNL     1       0.345  14.048  20.285  0.00  0.00    +0.000 F 
ATOM     12  C   UNL     1      -0.599  12.622  21.912  0.00  0.00    +0.000 A 
ATOM     13  F   UNL     1      -1.171  13.660  22.531  0.00  0.00    +0.000 F 
ATOM     14  C   UNL     1      -0.763  11.336  22.398  0.00  0.00    +0.000 A 
ATOM     15  F   UNL     1      -1.502  11.119  23.494  0.00  0.00    +0.000 F 
ATOM     16  C   UNL     1      -0.162  10.246  21.761  0.00  0.00    +0.000 A 
ENDBRANCH   5   8
ENDBRANCH   1   2
BRANCH   1  18
ATOM     17  O   UNL     1       5.590   6.128  18.326  0.00  0.00    +0.000 OA
ATOM     18  C   UNL     1       4.648   6.178  17.535  0.00  0.00    +0.000 C 
ATOM     19  N   UNL     1       4.855   6.421  16.189  0.00  0.00    +0.000 N 
ATOM     20  H   UNL     1       4.257   5.975  15.493  0.00  0.00    +0.000 HD
BRANCH  19  21
ATOM     21  O   UNL     1       6.215   6.582  15.820  0.00  0.00    +0.000 OA
ATOM     22  H   UNL     1       6.166   6.659  14.842  0.00  0.00    +0.000 HD
ENDBRANCH  19  21
ENDBRANCH   1  18
BRANCH   1  23
ATOM     23  N   UNL     1       3.094   4.701  18.742  0.00  0.00    +0.000 N 
ATOM     24  C   UNL     1       2.131   3.725  18.548  0.00  0.00    +0.000 C 
ATOM     25  O   UNL     1       1.286   3.844  17.658  0.00  0.00    +0.000 OA
ATOM     26  H   UNL     1       3.824   4.545  19.431  0.00  0.00    +0.000 HD
BRANCH  24  27
ATOM     27  C   UNL     1       2.180   2.571  19.548  0.00  0.00    +0.000 C 
ATOM     28  F   UNL     1       1.389   1.539  19.099  0.00  0.00    +0.000 F 
ATOM     29  F   UNL     1       3.434   2.032  19.632  0.00  0.00    +0.000 F 
BRANCH  27  30
ATOM     30  C   UNL     1       1.694   3.048  20.915  0.00  0.00    +0.000 C 
ATOM     31  F   UNL     1       2.633   3.713  21.630  0.00  0.00    +0.000 F 
ATOM     32  F   UNL     1       0.647   3.906  20.786  0.00  0.00    +0.000 F 
ATOM     33  F   UNL     1       1.254   2.025  21.688  0.00  0.00    +0.000 F 
ENDBRANCH  27  30
ENDBRANCH  24  27
ENDBRANCH   1  23
TORSDOF 7
ENDMDL
MODEL 8
REMARK VINA RESULT:      -9.1      0.872      2.037
REMARK  Name = 
REMARK  7 active torsions:
REMARK  status: ('A' for Active; 'I' for Inactive)
REMARK    1  A    between atoms: C_2  and  C_5
REMARK    2  A    between atoms: N_3  and  O_4
REMARK    3  A    between atoms: C_5  and  N_6
REMARK    4  A    between atoms: C_5  and  C_16
REMARK    5  A    between atoms: C_7  and  C_9
REMARK    6  A    between atoms: C_9  and  C_12
REMARK    7  A    between atoms: C_19  and  C_20
REMARK                            x       y       z     vdW  Elec       q    Type
REMARK                         _______ _______ _______ _____ _____    ______ ____
ROOT
ATOM      1  C   UNL     1       3.202   5.981  17.827  0.00  0.00    +0.000 C 
ENDROOT
BRANCH   1   2
ATOM      2  C   UNL     1       2.527   7.196  18.441  0.00  0.00    +0.000 A 
ATOM      3  C   UNL     1       2.211   8.297  17.639  0.00  0.00    +0.000 A 
ATOM      4  C   UNL     1       1.563   9.418  18.177  0.00  0.00    +0.000 A 
ATOM      5  C   UNL     1       1.185   9.476  19.529  0.00  0.00    +0.000 A 
ATOM      6  C   UNL     1       1.510   8.363  20.324  0.00  0.00    +0.000 A 
ATOM      7  C   UNL     1       2.172   7.246  19.795  0.00  0.00    +0.000 A 
BRANCH   5   8
ATOM      8  C   UNL     1       0.468  10.649  20.086  0.00  0.00    +0.000 A 
ATOM      9  C   UNL     1       0.088  10.703  21.442  0.00  0.00    +0.000 A 
ATOM     10  C   UNL     1      -0.580  11.812  21.962  0.00  0.00    +0.000 A 
ATOM     11  F   UNL     1      -0.933  11.811  23.254  0.00  0.00    +0.000 F 
ATOM     12  C   UNL     1      -0.879  12.903  21.162  0.00  0.00    +0.000 A 
ATOM     13  F   UNL     1      -1.513  13.967  21.670  0.00  0.00    +0.000 F 
ATOM     14  C   UNL     1      -0.509  12.876  19.829  0.00  0.00    +0.000 A 
ATOM     15  F   UNL     1      -0.778  13.919  19.034  0.00  0.00    +0.000 F 
ATOM     16  C   UNL     1       0.147  11.766  19.289  0.00  0.00    +0.000 A 
ENDBRANCH   5   8
ENDBRANCH   1   2
BRANCH   1  18
ATOM     17  O   UNL     1       5.597   5.989  18.413  0.00  0.00    +0.000 OA
ATOM     18  C   UNL     1       4.714   6.181  17.577  0.00  0.00    +0.000 C 
ATOM     19  N   UNL     1       5.025   6.519  16.272  0.00  0.00    +0.000 N 
ATOM     20  H   UNL     1       4.441   6.182  15.505  0.00  0.00    +0.000 HD
BRANCH  19  21
ATOM     21  O   UNL     1       6.414   6.599  15.998  0.00  0.00    +0.000 OA
ATOM     22  H   UNL     1       6.796   6.819  16.875  0.00  0.00    +0.000 HD
ENDBRANCH  19  21
ENDBRANCH   1  18
BRANCH   1  23
ATOM     23  N   UNL     1       2.988   4.807  18.664  0.00  0.00    +0.000 N 
ATOM     24  C   UNL     1       1.975   3.897  18.408  0.00  0.00    +0.000 C 
ATOM     25  O   UNL     1       1.201   4.069  17.464  0.00  0.00    +0.000 OA
ATOM     26  H   UNL     1       3.658   4.606  19.400  0.00  0.00    +0.000 HD
BRANCH  24  27
ATOM     27  C   UNL     1       1.881   2.747  19.410  0.00  0.00    +0.000 C 
ATOM     28  F   UNL     1       0.939   1.841  18.982  0.00  0.00    +0.000 F 
ATOM     29  F   UNL     1       3.046   2.032  19.464  0.00  0.00    +0.000 F 
BRANCH  27  30
ATOM     30  C   UNL     1       1.503   3.287  20.787  0.00  0.00    +0.000 C 
ATOM     31  F   UNL     1       2.546   3.807  21.477  0.00  0.00    +0.000 F 
ATOM     32  F   UNL     1       0.590   4.289  20.680  0.00  0.00    +0.000 F 
ATOM     33  F   UNL     1       0.937   2.338  21.572  0.00  0.00    +0.000 F 
ENDBRANCH  27  30
ENDBRANCH  24  27
ENDBRANCH   1  23
TORSDOF 7
ENDMDL
MODEL 9
REMARK VINA RESULT:      -9.1      0.121      1.864
REMARK  Name = 
REMARK  7 active torsions:
REMARK  status: ('A' for Active; 'I' for Inactive)
REMARK    1  A    between atoms: C_2  and  C_5
REMARK    2  A    between atoms: N_3  and  O_4
REMARK    3  A    between atoms: C_5  and  N_6
REMARK    4  A    between atoms: C_5  and  C_16
REMARK    5  A    between atoms: C_7  and  C_9
REMARK    6  A    between atoms: C_9  and  C_12
REMARK    7  A    between atoms: C_19  and  C_20
REMARK                            x       y       z     vdW  Elec       q    Type
REMARK                         _______ _______ _______ _____ _____    ______ ____
ROOT
ATOM      1  C   UNL     1       3.433   5.769  18.040  0.00  0.00    +0.000 C 
ENDROOT
BRANCH   1   2
ATOM      2  C   UNL     1       2.736   7.035  18.507  0.00  0.00    +0.000 A 
ATOM      3  C   UNL     1       2.530   8.088  17.610  0.00  0.00    +0.000 A 
ATOM      4  C   UNL     1       1.864   9.255  18.010  0.00  0.00    +0.000 A 
ATOM      5  C   UNL     1       1.358   9.409  19.312  0.00  0.00    +0.000 A 
ATOM      6  C   UNL     1       1.572   8.344  20.204  0.00  0.00    +0.000 A 
ATOM      7  C   UNL     1       2.251   7.181  19.813  0.00  0.00    +0.000 A 
BRANCH   5   8
ATOM      8  C   UNL     1       0.623  10.632  19.721  0.00  0.00    +0.000 A 
ATOM      9  C   UNL     1       0.270  10.863  21.066  0.00  0.00    +0.000 A 
ATOM     10  C   UNL     1      -0.415  12.017  21.445  0.00  0.00    +0.000 A 
ATOM     11  F   UNL     1      -0.740  12.186  22.734  0.00  0.00    +0.000 F 
ATOM     12  C   UNL     1      -0.759  12.981  20.512  0.00  0.00    +0.000 A 
ATOM     13  F   UNL     1      -1.409  14.089  20.884  0.00  0.00    +0.000 F 
ATOM     14  C   UNL     1      -0.416  12.779  19.185  0.00  0.00    +0.000 A 
ATOM     15  F   UNL     1      -0.730  13.697  18.262  0.00  0.00    +0.000 F 
ATOM     16  C   UNL     1       0.256  11.620  18.787  0.00  0.00    +0.000 A 
ENDBRANCH   5   8
ENDBRANCH   1   2
BRANCH   1  18
ATOM     17  O   UNL     1       5.688   6.503  17.364  0.00  0.00    +0.000 OA
ATOM     18  C   UNL     1       4.974   5.850  18.126  0.00  0.00    +0.000 C 
ATOM     19  N   UNL     1       5.508   5.185  19.215  0.00  0.00    +0.000 N 
ATOM     20  H   UNL     1       4.972   5.109  20.080  0.00  0.00    +0.000 HD
BRANCH  19  21
ATOM     21  O   UNL     1       6.909   5.340  19.372  0.00  0.00    +0.000 OA
ATOM     22  H   UNL     1       6.975   5.991  20.105  0.00  0.00    +0.000 HD
ENDBRANCH  19  21
ENDBRANCH   1  18
BRANCH   1  23
ATOM     23  N   UNL     1       2.953   4.618  18.797  0.00  0.00    +0.000 N 
ATOM     24  C   UNL     1       1.850   3.884  18.396  0.00  0.00    +0.000 C 
ATOM     25  O   UNL     1       1.219   4.199  17.384  0.00  0.00    +0.000 OA
ATOM     26  H   UNL     1       3.500   4.296  19.590  0.00  0.00    +0.000 HD
BRANCH  24  27
ATOM     27  C   UNL     1       1.473   2.735  19.330  0.00  0.00    +0.000 C 
ATOM     28  F   UNL     1       0.237   2.243  18.980  0.00  0.00    +0.000 F 
ATOM     29  F   UNL     1       2.321   1.670  19.184  0.00  0.00    +0.000 F 
BRANCH  27  30
ATOM     30  C   UNL     1       1.452   3.226  20.775  0.00  0.00    +0.000 C 
ATOM     31  F   UNL     1       0.883   4.444  20.933  0.00  0.00    +0.000 F 
ATOM     32  F   UNL     1       0.742   2.377  21.566  0.00  0.00    +0.000 F 
ATOM     33  F   UNL     1       2.696   3.294  21.312  0.00  0.00    +0.000 F 
ENDBRANCH  27  30
ENDBRANCH  24  27
ENDBRANCH   1  23
TORSDOF 7
ENDMDL
