MODEL 1
REMARK VINA RESULT:      -7.7      0.000      0.000
REMARK  Name = 
REMARK  7 active torsions:
REMARK  status: ('A' for Active; 'I' for Inactive)
REMARK    1  A    between atoms: C_2  and  C_20
REMARK    2  A    between atoms: N_3  and  C_4
REMARK    3  A    between atoms: C_8  and  C_10
REMARK    4  A    between atoms: C_10  and  C_11
REMARK    5  A    between atoms: C_11  and  C_12
REMARK    6  A    between atoms: C_20  and  C_21
REMARK    7  A    between atoms: C_20  and  C_28
REMARK                            x       y       z     vdW  Elec       q    Type
REMARK                         _______ _______ _______ _____ _____    ______ ____
ROOT
ATOM      1  O   UNL     1       4.452   5.214  16.829  0.00  0.00    +0.000 OA
ATOM      2  C   UNL     1       4.551   5.471  18.026  0.00  0.00    +0.000 C 
ATOM      3  N   UNL     1       5.764   5.799  18.622  0.00  0.00    +0.000 N 
ATOM      4  H   UNL     1       5.747   6.177  19.560  0.00  0.00    +0.000 HD
ENDROOT
BRANCH   3   5
ATOM      5  C   UNL     1       7.054   5.703  17.920  0.00  0.00    +0.000 C 
ATOM      6  C   UNL     1       8.241   5.956  18.855  0.00  0.00    +0.000 C 
ATOM      7  C   UNL     1       8.117   7.355  19.427  0.00  0.00    +0.000 C 
ATOM      8  N   UNL     1       8.251   8.329  18.355  0.00  0.00    +0.000 N 
ATOM      9  C   UNL     1       8.954   9.478  18.674  0.00  0.00    +0.000 C 
ATOM     10  O   UNL     1       9.391   9.682  19.808  0.00  0.00    +0.000 OA
ATOM     11  C   UNL     1       7.319   8.174  17.229  0.00  0.00    +0.000 C 
ATOM     12  C   UNL     1       7.178   6.714  16.759  0.00  0.00    +0.000 C 
BRANCH   9  13
ATOM     13  C   UNL     1       9.211  10.482  17.578  0.00  0.00    +0.000 C 
BRANCH  13  14
ATOM     14  C   UNL     1       8.854  11.876  18.097  0.00  0.00    +0.000 C 
BRANCH  14  15
ATOM     15  C   UNL     1      10.072  12.747  18.189  0.00  0.00    +0.000 A 
ATOM     16  C   UNL     1      11.111  12.632  17.276  0.00  0.00    +0.000 A 
ATOM     17  C   UNL     1      12.204  13.488  17.376  0.00  0.00    +0.000 A 
ATOM     18  C   UNL     1      12.203  14.433  18.393  0.00  0.00    +0.000 A 
ATOM     19  N   UNL     1      11.209  14.576  19.291  0.00  0.00    +0.000 NA
ATOM     20  C   UNL     1      10.163  13.725  19.176  0.00  0.00    +0.000 A 
ENDBRANCH  14  15
ENDBRANCH  13  14
ENDBRANCH   9  13
ENDBRANCH   3   5
BRANCH   2  21
ATOM     21  C   UNL     1       3.358   5.355  19.006  0.00  0.00    +0.000 C 
BRANCH  21  22
ATOM     22  C   UNL     1       2.526   6.630  19.104  0.00  0.00    +0.000 A 
ATOM     23  C   UNL     1       2.034   7.138  20.318  0.00  0.00    +0.000 A 
ATOM     24  C   UNL     1       1.437   8.405  20.356  0.00  0.00    +0.000 A 
ATOM     25  C   UNL     1       1.354   9.175  19.201  0.00  0.00    +0.000 A 
ATOM     26  F   UNL     1       0.852  10.413  19.259  0.00  0.00    +0.000 F 
ATOM     27  C   UNL     1       1.801   8.678  17.985  0.00  0.00    +0.000 A 
ATOM     28  C   UNL     1       2.355   7.402  17.934  0.00  0.00    +0.000 A 
ENDBRANCH  21  22
BRANCH  21  29
ATOM     29  C   UNL     1       2.502   4.077  18.662  0.00  0.00    +0.000 C 
ATOM     30  C   UNL     1       3.282   2.777  18.950  0.00  0.00    +0.000 C 
ATOM     31  C   UNL     1       3.565   2.593  20.441  0.00  0.00    +0.000 C 
ATOM     32  C   UNL     1       2.294   2.621  21.285  0.00  0.00    +0.000 C 
ATOM     33  C   UNL     1       1.263   3.678  20.892  0.00  0.00    +0.000 C 
ATOM     34  C   UNL     1       1.148   3.943  19.392  0.00  0.00    +0.000 C 
ENDBRANCH  21  29
ENDBRANCH   2  21
TORSDOF 7
ENDMDL
MODEL 2
REMARK VINA RESULT:      -7.6      6.111     10.463
REMARK  Name = 
REMARK  7 active torsions:
REMARK  status: ('A' for Active; 'I' for Inactive)
REMARK    1  A    between atoms: C_2  and  C_20
REMARK    2  A    between atoms: N_3  and  C_4
REMARK    3  A    between atoms: C_8  and  C_10
REMARK    4  A    between atoms: C_10  and  C_11
REMARK    5  A    between atoms: C_11  and  C_12
REMARK    6  A    between atoms: C_20  and  C_21
REMARK    7  A    between atoms: C_20  and  C_28
REMARK                            x       y       z     vdW  Elec       q    Type
REMARK                         _______ _______ _______ _____ _____    ______ ____
ROOT
ATOM      1  O   UNL     1      -2.090  13.996  20.229  0.00  0.00    +0.000 OA
ATOM      2  C   UNL     1      -2.499  12.841  20.145  0.00  0.00    +0.000 C 
ATOM      3  N   UNL     1      -1.742  11.750  20.559  0.00  0.00    +0.000 N 
ATOM      4  H   UNL     1      -2.203  10.852  20.636  0.00  0.00    +0.000 HD
ENDROOT
BRANCH   3   5
ATOM      5  C   UNL     1      -0.333  11.861  20.971  0.00  0.00    +0.000 C 
ATOM      6  C   UNL     1       0.607  12.037  19.772  0.00  0.00    +0.000 C 
ATOM      7  C   UNL     1       0.471  10.826  18.870  0.00  0.00    +0.000 C 
ATOM      8  N   UNL     1       0.951   9.644  19.570  0.00  0.00    +0.000 N 
ATOM      9  C   UNL     1       1.654   8.735  18.799  0.00  0.00    +0.000 C 
ATOM     10  O   UNL     1       1.816   8.894  17.588  0.00  0.00    +0.000 OA
ATOM     11  C   UNL     1       0.313   9.366  20.865  0.00  0.00    +0.000 C 
ATOM     12  C   UNL     1       0.161  10.619  21.746  0.00  0.00    +0.000 C 
BRANCH   9  13
ATOM     13  C   UNL     1       2.259   7.537  19.488  0.00  0.00    +0.000 C 
BRANCH  13  14
ATOM     14  C   UNL     1       2.683   6.523  18.425  0.00  0.00    +0.000 C 
BRANCH  14  15
ATOM     15  C   UNL     1       2.103   5.169  18.707  0.00  0.00    +0.000 A 
ATOM     16  C   UNL     1       2.098   4.171  17.742  0.00  0.00    +0.000 A 
ATOM     17  C   UNL     1       1.585   2.917  18.061  0.00  0.00    +0.000 A 
ATOM     18  C   UNL     1       1.100   2.717  19.346  0.00  0.00    +0.000 A 
ATOM     19  N   UNL     1       1.095   3.660  20.307  0.00  0.00    +0.000 NA
ATOM     20  C   UNL     1       1.592   4.873  19.969  0.00  0.00    +0.000 A 
ENDBRANCH  14  15
ENDBRANCH  13  14
ENDBRANCH   9  13
ENDBRANCH   3   5
BRANCH   2  21
ATOM     21  C   UNL     1      -3.848  12.479  19.479  0.00  0.00    +0.000 C 
BRANCH  21  22
ATOM     22  C   UNL     1      -3.703  11.555  18.274  0.00  0.00    +0.000 A 
ATOM     23  C   UNL     1      -4.289  11.818  17.025  0.00  0.00    +0.000 A 
ATOM     24  C   UNL     1      -3.964  11.024  15.918  0.00  0.00    +0.000 A 
ATOM     25  C   UNL     1      -3.040   9.992  16.044  0.00  0.00    +0.000 A 
ATOM     26  F   UNL     1      -2.677   9.286  14.968  0.00  0.00    +0.000 F 
ATOM     27  C   UNL     1      -2.477   9.691  17.276  0.00  0.00    +0.000 A 
ATOM     28  C   UNL     1      -2.830  10.450  18.388  0.00  0.00    +0.000 A 
ENDBRANCH  21  22
BRANCH  21  29
ATOM     29  C   UNL     1      -4.855  11.936  20.564  0.00  0.00    +0.000 C 
ATOM     30  C   UNL     1      -5.142  12.993  21.650  0.00  0.00    +0.000 C 
ATOM     31  C   UNL     1      -5.884  14.207  21.092  0.00  0.00    +0.000 C 
ATOM     32  C   UNL     1      -7.187  13.826  20.395  0.00  0.00    +0.000 C 
ATOM     33  C   UNL     1      -7.127  12.577  19.518  0.00  0.00    +0.000 C 
ATOM     34  C   UNL     1      -6.229  11.460  20.046  0.00  0.00    +0.000 C 
ENDBRANCH  21  29
ENDBRANCH   2  21
TORSDOF 7
ENDMDL
MODEL 3
REMARK VINA RESULT:      -7.3      0.878      1.379
REMARK  Name = 
REMARK  7 active torsions:
REMARK  status: ('A' for Active; 'I' for Inactive)
REMARK    1  A    between atoms: C_2  and  C_20
REMARK    2  A    between atoms: N_3  and  C_4
REMARK    3  A    between atoms: C_8  and  C_10
REMARK    4  A    between atoms: C_10  and  C_11
REMARK    5  A    between atoms: C_11  and  C_12
REMARK    6  A    between atoms: C_20  and  C_21
REMARK    7  A    between atoms: C_20  and  C_28
REMARK                            x       y       z     vdW  Elec       q    Type
REMARK                         _______ _______ _______ _____ _____    ______ ____
ROOT
ATOM      1  O   UNL     1       4.828   5.104  16.392  0.00  0.00    +0.000 OA
ATOM      2  C   UNL     1       4.771   5.438  17.572  0.00  0.00    +0.000 C 
ATOM      3  N   UNL     1       5.880   5.903  18.270  0.00  0.00    +0.000 N 
ATOM      4  H   UNL     1       5.729   6.333  19.174  0.00  0.00    +0.000 HD
ENDROOT
BRANCH   3   5
ATOM      5  C   UNL     1       7.245   5.877  17.718  0.00  0.00    +0.000 C 
ATOM      6  C   UNL     1       8.309   6.118  18.795  0.00  0.00    +0.000 C 
ATOM      7  C   UNL     1       8.073   7.483  19.410  0.00  0.00    +0.000 C 
ATOM      8  N   UNL     1       8.297   8.512  18.406  0.00  0.00    +0.000 N 
ATOM      9  C   UNL     1       8.921   9.663  18.855  0.00  0.00    +0.000 C 
ATOM     10  O   UNL     1       9.218   9.824  20.040  0.00  0.00    +0.000 OA
ATOM     11  C   UNL     1       7.505   8.385  17.174  0.00  0.00    +0.000 C 
ATOM     12  C   UNL     1       7.467   6.947  16.626  0.00  0.00    +0.000 C 
BRANCH   9  13
ATOM     13  C   UNL     1       9.266  10.726  17.842  0.00  0.00    +0.000 C 
BRANCH  13  14
ATOM     14  C   UNL     1      10.745  11.086  17.996  0.00  0.00    +0.000 C 
BRANCH  14  15
ATOM     15  C   UNL     1      10.917  12.541  18.318  0.00  0.00    +0.000 A 
ATOM     16  C   UNL     1      11.413  12.954  19.547  0.00  0.00    +0.000 A 
ATOM     17  C   UNL     1      11.593  14.312  19.787  0.00  0.00    +0.000 A 
ATOM     18  C   UNL     1      11.269  15.204  18.773  0.00  0.00    +0.000 A 
ATOM     19  N   UNL     1      10.793  14.838  17.568  0.00  0.00    +0.000 NA
ATOM     20  C   UNL     1      10.619  13.511  17.364  0.00  0.00    +0.000 A 
ENDBRANCH  14  15
ENDBRANCH  13  14
ENDBRANCH   9  13
ENDBRANCH   3   5
BRANCH   2  21
ATOM     21  C   UNL     1       3.489   5.278  18.425  0.00  0.00    +0.000 C 
BRANCH  21  22
ATOM     22  C   UNL     1       2.847   6.606  18.813  0.00  0.00    +0.000 A 
ATOM     23  C   UNL     1       2.595   7.639  17.895  0.00  0.00    +0.000 A 
ATOM     24  C   UNL     1       1.840   8.753  18.283  0.00  0.00    +0.000 A 
ATOM     25  C   UNL     1       1.315   8.828  19.569  0.00  0.00    +0.000 A 
ATOM     26  F   UNL     1       0.532   9.857  19.911  0.00  0.00    +0.000 F 
ATOM     27  C   UNL     1       1.581   7.837  20.503  0.00  0.00    +0.000 A 
ATOM     28  C   UNL     1       2.368   6.749  20.134  0.00  0.00    +0.000 A 
ENDBRANCH  21  22
BRANCH  21  29
ATOM     29  C   UNL     1       2.491   4.287  17.714  0.00  0.00    +0.000 C 
ATOM     30  C   UNL     1       3.102   2.879  17.559  0.00  0.00    +0.000 C 
ATOM     31  C   UNL     1       3.334   2.199  18.909  0.00  0.00    +0.000 C 
ATOM     32  C   UNL     1       2.061   2.113  19.746  0.00  0.00    +0.000 C 
ATOM     33  C   UNL     1       1.173   3.356  19.730  0.00  0.00    +0.000 C 
ATOM     34  C   UNL     1       1.118   4.093  18.392  0.00  0.00    +0.000 C 
ENDBRANCH  21  29
ENDBRANCH   2  21
TORSDOF 7
ENDMDL
MODEL 4
REMARK VINA RESULT:      -7.2      6.338     11.335
REMARK  Name = 
REMARK  7 active torsions:
REMARK  status: ('A' for Active; 'I' for Inactive)
REMARK    1  A    between atoms: C_2  and  C_20
REMARK    2  A    between atoms: N_3  and  C_4
REMARK    3  A    between atoms: C_8  and  C_10
REMARK    4  A    between atoms: C_10  and  C_11
REMARK    5  A    between atoms: C_11  and  C_12
REMARK    6  A    between atoms: C_20  and  C_21
REMARK    7  A    between atoms: C_20  and  C_28
REMARK                            x       y       z     vdW  Elec       q    Type
REMARK                         _______ _______ _______ _____ _____    ______ ____
ROOT
ATOM      1  O   UNL     1       6.776  16.609  20.114  0.00  0.00    +0.000 OA
ATOM      2  C   UNL     1       6.706  15.434  19.763  0.00  0.00    +0.000 C 
ATOM      3  N   UNL     1       5.575  14.903  19.153  0.00  0.00    +0.000 N 
ATOM      4  H   UNL     1       5.648  13.990  18.725  0.00  0.00    +0.000 HD
ENDROOT
BRANCH   3   5
ATOM      5  C   UNL     1       4.308  15.645  19.028  0.00  0.00    +0.000 C 
ATOM      6  C   UNL     1       3.466  15.569  20.307  0.00  0.00    +0.000 C 
ATOM      7  C   UNL     1       3.138  14.115  20.584  0.00  0.00    +0.000 C 
ATOM      8  N   UNL     1       2.284  13.601  19.525  0.00  0.00    +0.000 N 
ATOM      9  C   UNL     1       1.284  12.734  19.929  0.00  0.00    +0.000 C 
ATOM     10  O   UNL     1       1.161  12.381  21.104  0.00  0.00    +0.000 OA
ATOM     11  C   UNL     1       2.810  13.734  18.159  0.00  0.00    +0.000 C 
ATOM     12  C   UNL     1       3.420  15.119  17.879  0.00  0.00    +0.000 C 
BRANCH   9  13
ATOM     13  C   UNL     1       0.306  12.243  18.891  0.00  0.00    +0.000 C 
BRANCH  13  14
ATOM     14  C   UNL     1      -0.568  11.155  19.517  0.00  0.00    +0.000 C 
BRANCH  14  15
ATOM     15  C   UNL     1      -1.871  11.021  18.787  0.00  0.00    +0.000 A 
ATOM     16  C   UNL     1      -2.080  10.006  17.863  0.00  0.00    +0.000 A 
ATOM     17  C   UNL     1      -3.319   9.897  17.239  0.00  0.00    +0.000 A 
ATOM     18  C   UNL     1      -4.304  10.816  17.576  0.00  0.00    +0.000 A 
ATOM     19  N   UNL     1      -4.138  11.808  18.471  0.00  0.00    +0.000 NA
ATOM     20  C   UNL     1      -2.921  11.897  19.058  0.00  0.00    +0.000 A 
ENDBRANCH  14  15
ENDBRANCH  13  14
ENDBRANCH   9  13
ENDBRANCH   3   5
BRANCH   2  21
ATOM     21  C   UNL     1       7.826  14.407  20.056  0.00  0.00    +0.000 C 
BRANCH  21  22
ATOM     22  C   UNL     1       8.846  14.280  18.929  0.00  0.00    +0.000 A 
ATOM     23  C   UNL     1       9.687  15.331  18.528  0.00  0.00    +0.000 A 
ATOM     24  C   UNL     1      10.721  15.091  17.614  0.00  0.00    +0.000 A 
ATOM     25  C   UNL     1      10.936  13.808  17.122  0.00  0.00    +0.000 A 
ATOM     26  F   UNL     1      11.971  13.569  16.309  0.00  0.00    +0.000 F 
ATOM     27  C   UNL     1      10.095  12.763  17.477  0.00  0.00    +0.000 A 
ATOM     28  C   UNL     1       9.040  13.006  18.351  0.00  0.00    +0.000 A 
ENDBRANCH  21  22
BRANCH  21  29
ATOM     29  C   UNL     1       8.481  14.710  21.458  0.00  0.00    +0.000 C 
ATOM     30  C   UNL     1       7.494  14.446  22.614  0.00  0.00    +0.000 C 
ATOM     31  C   UNL     1       7.129  12.967  22.735  0.00  0.00    +0.000 C 
ATOM     32  C   UNL     1       8.356  12.074  22.899  0.00  0.00    +0.000 C 
ATOM     33  C   UNL     1       9.556  12.432  22.023  0.00  0.00    +0.000 C 
ATOM     34  C   UNL     1       9.767  13.928  21.797  0.00  0.00    +0.000 C 
ENDBRANCH  21  29
ENDBRANCH   2  21
TORSDOF 7
ENDMDL
MODEL 5
REMARK VINA RESULT:      -7.2      6.069     10.416
REMARK  Name = 
REMARK  7 active torsions:
REMARK  status: ('A' for Active; 'I' for Inactive)
REMARK    1  A    between atoms: C_2  and  C_20
REMARK    2  A    between atoms: N_3  and  C_4
REMARK    3  A    between atoms: C_8  and  C_10
REMARK    4  A    between atoms: C_10  and  C_11
REMARK    5  A    between atoms: C_11  and  C_12
REMARK    6  A    between atoms: C_20  and  C_21
REMARK    7  A    between atoms: C_20  and  C_28
REMARK                            x       y       z     vdW  Elec       q    Type
REMARK                         _______ _______ _______ _____ _____    ______ ____
ROOT
ATOM      1  O   UNL     1      -1.617  13.801  21.102  0.00  0.00    +0.000 OA
ATOM      2  C   UNL     1      -2.101  12.721  20.778  0.00  0.00    +0.000 C 
ATOM      3  N   UNL     1      -1.482  11.509  21.063  0.00  0.00    +0.000 N 
ATOM      4  H   UNL     1      -2.016  10.659  20.936  0.00  0.00    +0.000 HD
ENDROOT
BRANCH   3   5
ATOM      5  C   UNL     1      -0.122  11.415  21.620  0.00  0.00    +0.000 C 
ATOM      6  C   UNL     1       0.955  11.688  20.564  0.00  0.00    +0.000 C 
ATOM      7  C   UNL     1       0.823  10.656  19.461  0.00  0.00    +0.000 C 
ATOM      8  N   UNL     1       1.126   9.336  19.994  0.00  0.00    +0.000 N 
ATOM      9  C   UNL     1       1.835   8.498  19.151  0.00  0.00    +0.000 C 
ATOM     10  O   UNL     1       2.142   8.832  18.005  0.00  0.00    +0.000 OA
ATOM     11  C   UNL     1       0.330   8.918  21.156  0.00  0.00    +0.000 C 
ATOM     12  C   UNL     1       0.183  10.023  22.217  0.00  0.00    +0.000 C 
BRANCH   9  13
ATOM     13  C   UNL     1       2.263   7.153  19.682  0.00  0.00    +0.000 C 
BRANCH  13  14
ATOM     14  C   UNL     1       2.611   6.247  18.499  0.00  0.00    +0.000 C 
BRANCH  14  15
ATOM     15  C   UNL     1       2.290   4.814  18.802  0.00  0.00    +0.000 A 
ATOM     16  C   UNL     1       2.751   4.200  19.959  0.00  0.00    +0.000 A 
ATOM     17  C   UNL     1       2.395   2.881  20.219  0.00  0.00    +0.000 A 
ATOM     18  C   UNL     1       1.580   2.231  19.301  0.00  0.00    +0.000 A 
ATOM     19  N   UNL     1       1.111   2.797  18.173  0.00  0.00    +0.000 NA
ATOM     20  C   UNL     1       1.479   4.079  17.941  0.00  0.00    +0.000 A 
ENDBRANCH  14  15
ENDBRANCH  13  14
ENDBRANCH   9  13
ENDBRANCH   3   5
BRANCH   2  21
ATOM     21  C   UNL     1      -3.394  12.604  19.933  0.00  0.00    +0.000 C 
BRANCH  21  22
ATOM     22  C   UNL     1      -3.210  11.803  18.648  0.00  0.00    +0.000 A 
ATOM     23  C   UNL     1      -2.166  10.884  18.455  0.00  0.00    +0.000 A 
ATOM     24  C   UNL     1      -2.164  10.053  17.327  0.00  0.00    +0.000 A 
ATOM     25  C   UNL     1      -3.208  10.116  16.410  0.00  0.00    +0.000 A 
ATOM     26  F   UNL     1      -3.240   9.269  15.376  0.00  0.00    +0.000 F 
ATOM     27  C   UNL     1      -4.230  11.042  16.562  0.00  0.00    +0.000 A 
ATOM     28  C   UNL     1      -4.213  11.899  17.659  0.00  0.00    +0.000 A 
ENDBRANCH  21  22
BRANCH  21  29
ATOM     29  C   UNL     1      -4.578  12.080  20.831  0.00  0.00    +0.000 C 
ATOM     30  C   UNL     1      -4.685  12.874  22.150  0.00  0.00    +0.000 C 
ATOM     31  C   UNL     1      -5.073  14.333  21.915  0.00  0.00    +0.000 C 
ATOM     32  C   UNL     1      -6.373  14.473  21.129  0.00  0.00    +0.000 C 
ATOM     33  C   UNL     1      -6.548  13.504  19.961  0.00  0.00    +0.000 C 
ATOM     34  C   UNL     1      -5.983  12.104  20.194  0.00  0.00    +0.000 C 
ENDBRANCH  21  29
ENDBRANCH   2  21
TORSDOF 7
ENDMDL
MODEL 6
REMARK VINA RESULT:      -7.2      5.938     10.132
REMARK  Name = 
REMARK  7 active torsions:
REMARK  status: ('A' for Active; 'I' for Inactive)
REMARK    1  A    between atoms: C_2  and  C_20
REMARK    2  A    between atoms: N_3  and  C_4
REMARK    3  A    between atoms: C_8  and  C_10
REMARK    4  A    between atoms: C_10  and  C_11
REMARK    5  A    between atoms: C_11  and  C_12
REMARK    6  A    between atoms: C_20  and  C_21
REMARK    7  A    between atoms: C_20  and  C_28
REMARK                            x       y       z     vdW  Elec       q    Type
REMARK                         _______ _______ _______ _____ _____    ______ ____
ROOT
ATOM      1  O   UNL     1      -1.179  13.717  20.950  0.00  0.00    +0.000 OA
ATOM      2  C   UNL     1      -1.800  12.674  20.764  0.00  0.00    +0.000 C 
ATOM      3  N   UNL     1      -1.325  11.436  21.184  0.00  0.00    +0.000 N 
ATOM      4  H   UNL     1      -1.962  10.650  21.166  0.00  0.00    +0.000 HD
ENDROOT
BRANCH   3   5
ATOM      5  C   UNL     1       0.028  11.240  21.731  0.00  0.00    +0.000 C 
ATOM      6  C   UNL     1       1.119  11.592  20.714  0.00  0.00    +0.000 C 
ATOM      7  C   UNL     1       0.962  10.690  19.506  0.00  0.00    +0.000 C 
ATOM      8  N   UNL     1       1.221   9.312  19.893  0.00  0.00    +0.000 N 
ATOM      9  C   UNL     1       1.909   8.547  18.967  0.00  0.00    +0.000 C 
ATOM     10  O   UNL     1       2.233   8.993  17.865  0.00  0.00    +0.000 OA
ATOM     11  C   UNL     1       0.405   8.795  21.001  0.00  0.00    +0.000 C 
ATOM     12  C   UNL     1       0.286   9.783  22.176  0.00  0.00    +0.000 C 
BRANCH   9  13
ATOM     13  C   UNL     1       2.293   7.140  19.350  0.00  0.00    +0.000 C 
BRANCH  13  14
ATOM     14  C   UNL     1       2.424   6.304  18.077  0.00  0.00    +0.000 C 
BRANCH  14  15
ATOM     15  C   UNL     1       2.668   4.859  18.400  0.00  0.00    +0.000 A 
ATOM     16  C   UNL     1       2.015   3.846  17.713  0.00  0.00    +0.000 A 
ATOM     17  C   UNL     1       2.302   2.519  18.020  0.00  0.00    +0.000 A 
ATOM     18  C   UNL     1       3.244   2.266  19.007  0.00  0.00    +0.000 A 
ATOM     19  N   UNL     1       3.900   3.224  19.689  0.00  0.00    +0.000 NA
ATOM     20  C   UNL     1       3.596   4.506  19.377  0.00  0.00    +0.000 A 
ENDBRANCH  14  15
ENDBRANCH  13  14
ENDBRANCH   9  13
ENDBRANCH   3   5
BRANCH   2  21
ATOM     21  C   UNL     1      -3.119  12.621  19.955  0.00  0.00    +0.000 C 
BRANCH  21  22
ATOM     22  C   UNL     1      -3.009  11.815  18.664  0.00  0.00    +0.000 A 
ATOM     23  C   UNL     1      -1.988  10.882  18.422  0.00  0.00    +0.000 A 
ATOM     24  C   UNL     1      -2.052  10.049  17.297  0.00  0.00    +0.000 A 
ATOM     25  C   UNL     1      -3.138  10.125  16.432  0.00  0.00    +0.000 A 
ATOM     26  F   UNL     1      -3.232   9.276  15.403  0.00  0.00    +0.000 F 
ATOM     27  C   UNL     1      -4.139  11.065  16.632  0.00  0.00    +0.000 A 
ATOM     28  C   UNL     1      -4.058  11.923  17.724  0.00  0.00    +0.000 A 
ENDBRANCH  21  22
BRANCH  21  29
ATOM     29  C   UNL     1      -4.302  12.150  20.884  0.00  0.00    +0.000 C 
ATOM     30  C   UNL     1      -4.258  12.852  22.258  0.00  0.00    +0.000 C 
ATOM     31  C   UNL     1      -4.507  14.356  22.145  0.00  0.00    +0.000 C 
ATOM     32  C   UNL     1      -5.826  14.679  21.450  0.00  0.00    +0.000 C 
ATOM     33  C   UNL     1      -6.160  13.820  20.231  0.00  0.00    +0.000 C 
ATOM     34  C   UNL     1      -5.729  12.358  20.335  0.00  0.00    +0.000 C 
ENDBRANCH  21  29
ENDBRANCH   2  21
TORSDOF 7
ENDMDL
MODEL 7
REMARK VINA RESULT:      -7.2      6.192     10.288
REMARK  Name = 
REMARK  7 active torsions:
REMARK  status: ('A' for Active; 'I' for Inactive)
REMARK    1  A    between atoms: C_2  and  C_20
REMARK    2  A    between atoms: N_3  and  C_4
REMARK    3  A    between atoms: C_8  and  C_10
REMARK    4  A    between atoms: C_10  and  C_11
REMARK    5  A    between atoms: C_11  and  C_12
REMARK    6  A    between atoms: C_20  and  C_21
REMARK    7  A    between atoms: C_20  and  C_28
REMARK                            x       y       z     vdW  Elec       q    Type
REMARK                         _______ _______ _______ _____ _____    ______ ____
ROOT
ATOM      1  O   UNL     1      -1.071  13.381  20.489  0.00  0.00    +0.000 OA
ATOM      2  C   UNL     1      -1.698  12.343  20.682  0.00  0.00    +0.000 C 
ATOM      3  N   UNL     1      -1.148  11.249  21.341  0.00  0.00    +0.000 N 
ATOM      4  H   UNL     1      -1.769  10.504  21.630  0.00  0.00    +0.000 HD
ENDROOT
BRANCH   3   5
ATOM      5  C   UNL     1       0.275  11.169  21.712  0.00  0.00    +0.000 C 
ATOM      6  C   UNL     1       1.199  11.446  20.520  0.00  0.00    +0.000 C 
ATOM      7  C   UNL     1       0.930  10.408  19.449  0.00  0.00    +0.000 C 
ATOM      8  N   UNL     1       1.314   9.094  19.941  0.00  0.00    +0.000 N 
ATOM      9  C   UNL     1       1.911   8.257  19.014  0.00  0.00    +0.000 C 
ATOM     10  O   UNL     1       2.059   8.588  17.837  0.00  0.00    +0.000 OA
ATOM     11  C   UNL     1       0.683   8.674  21.201  0.00  0.00    +0.000 C 
ATOM     12  C   UNL     1       0.670   9.783  22.268  0.00  0.00    +0.000 C 
BRANCH   9  13
ATOM     13  C   UNL     1       2.418   6.918  19.488  0.00  0.00    +0.000 C 
BRANCH  13  14
ATOM     14  C   UNL     1       2.669   6.030  18.268  0.00  0.00    +0.000 C 
BRANCH  14  15
ATOM     15  C   UNL     1       2.166   4.637  18.501  0.00  0.00    +0.000 A 
ATOM     16  C   UNL     1       1.446   4.311  19.642  0.00  0.00    +0.000 A 
ATOM     17  C   UNL     1       0.964   3.015  19.798  0.00  0.00    +0.000 A 
ATOM     18  C   UNL     1       1.223   2.096  18.790  0.00  0.00    +0.000 A 
ATOM     19  N   UNL     1       1.912   2.379  17.668  0.00  0.00    +0.000 NA
ATOM     20  C   UNL     1       2.376   3.645  17.546  0.00  0.00    +0.000 A 
ENDBRANCH  14  15
ENDBRANCH  13  14
ENDBRANCH   9  13
ENDBRANCH   3   5
BRANCH   2  21
ATOM     21  C   UNL     1      -3.124  12.112  20.124  0.00  0.00    +0.000 C 
BRANCH  21  22
ATOM     22  C   UNL     1      -4.202  12.898  20.864  0.00  0.00    +0.000 A 
ATOM     23  C   UNL     1      -5.467  12.371  21.170  0.00  0.00    +0.000 A 
ATOM     24  C   UNL     1      -6.337  13.080  22.009  0.00  0.00    +0.000 A 
ATOM     25  C   UNL     1      -5.941  14.292  22.563  0.00  0.00    +0.000 A 
ATOM     26  F   UNL     1      -6.745  14.927  23.423  0.00  0.00    +0.000 F 
ATOM     27  C   UNL     1      -4.710  14.848  22.246  0.00  0.00    +0.000 A 
ATOM     28  C   UNL     1      -3.860  14.168  21.378  0.00  0.00    +0.000 A 
ENDBRANCH  21  22
BRANCH  21  29
ATOM     29  C   UNL     1      -3.136  12.352  18.566  0.00  0.00    +0.000 C 
ATOM     30  C   UNL     1      -2.006  11.572  17.862  0.00  0.00    +0.000 C 
ATOM     31  C   UNL     1      -2.201  10.059  17.963  0.00  0.00    +0.000 C 
ATOM     32  C   UNL     1      -3.551   9.605  17.415  0.00  0.00    +0.000 C 
ATOM     33  C   UNL     1      -4.742  10.492  17.776  0.00  0.00    +0.000 C 
ATOM     34  C   UNL     1      -4.442  11.988  17.827  0.00  0.00    +0.000 C 
ENDBRANCH  21  29
ENDBRANCH   2  21
TORSDOF 7
ENDMDL
MODEL 8
REMARK VINA RESULT:      -7.1      5.964      9.845
REMARK  Name = 
REMARK  7 active torsions:
REMARK  status: ('A' for Active; 'I' for Inactive)
REMARK    1  A    between atoms: C_2  and  C_20
REMARK    2  A    between atoms: N_3  and  C_4
REMARK    3  A    between atoms: C_8  and  C_10
REMARK    4  A    between atoms: C_10  and  C_11
REMARK    5  A    between atoms: C_11  and  C_12
REMARK    6  A    between atoms: C_20  and  C_21
REMARK    7  A    between atoms: C_20  and  C_28
REMARK                            x       y       z     vdW  Elec       q    Type
REMARK                         _______ _______ _______ _____ _____    ______ ____
ROOT
ATOM      1  O   UNL     1      -3.433  12.649  21.298  0.00  0.00    +0.000 OA
ATOM      2  C   UNL     1      -3.330  12.175  20.170  0.00  0.00    +0.000 C 
ATOM      3  N   UNL     1      -2.125  11.697  19.668  0.00  0.00    +0.000 N 
ATOM      4  H   UNL     1      -2.145  11.155  18.813  0.00  0.00    +0.000 HD
ENDROOT
BRANCH   3   5
ATOM      5  C   UNL     1      -0.840  11.868  20.367  0.00  0.00    +0.000 C 
ATOM      6  C   UNL     1       0.314  12.142  19.397  0.00  0.00    +0.000 C 
ATOM      7  C   UNL     1       0.443  10.963  18.453  0.00  0.00    +0.000 C 
ATOM      8  N   UNL     1       0.839   9.782  19.205  0.00  0.00    +0.000 N 
ATOM      9  C   UNL     1       1.741   8.943  18.573  0.00  0.00    +0.000 C 
ATOM     10  O   UNL     1       2.139   9.158  17.427  0.00  0.00    +0.000 OA
ATOM     11  C   UNL     1      -0.034   9.418  20.330  0.00  0.00    +0.000 C 
ATOM     12  C   UNL     1      -0.441  10.625  21.194  0.00  0.00    +0.000 C 
BRANCH   9  13
ATOM     13  C   UNL     1       2.263   7.754  19.340  0.00  0.00    +0.000 C 
BRANCH  13  14
ATOM     14  C   UNL     1       2.493   6.602  18.360  0.00  0.00    +0.000 C 
BRANCH  14  15
ATOM     15  C   UNL     1       3.949   6.250  18.272  0.00  0.00    +0.000 A 
ATOM     16  C   UNL     1       4.535   5.373  19.175  0.00  0.00    +0.000 A 
ATOM     17  C   UNL     1       5.879   5.044  19.031  0.00  0.00    +0.000 A 
ATOM     18  C   UNL     1       6.581   5.610  17.976  0.00  0.00    +0.000 A 
ATOM     19  N   UNL     1       6.043   6.458  17.078  0.00  0.00    +0.000 NA
ATOM     20  C   UNL     1       4.736   6.768  17.246  0.00  0.00    +0.000 A 
ENDBRANCH  14  15
ENDBRANCH  13  14
ENDBRANCH   9  13
ENDBRANCH   3   5
BRANCH   2  21
ATOM     21  C   UNL     1      -4.504  12.158  19.161  0.00  0.00    +0.000 C 
BRANCH  21  22
ATOM     22  C   UNL     1      -4.199  11.379  17.885  0.00  0.00    +0.000 A 
ATOM     23  C   UNL     1      -4.470  11.870  16.598  0.00  0.00    +0.000 A 
ATOM     24  C   UNL     1      -3.997  11.183  15.472  0.00  0.00    +0.000 A 
ATOM     25  C   UNL     1      -3.236  10.029  15.625  0.00  0.00    +0.000 A 
ATOM     26  F   UNL     1      -2.724   9.420  14.551  0.00  0.00    +0.000 F 
ATOM     27  C   UNL     1      -2.987   9.507  16.886  0.00  0.00    +0.000 A 
ATOM     28  C   UNL     1      -3.492  10.163  18.006  0.00  0.00    +0.000 A 
ENDBRANCH  21  22
BRANCH  21  29
ATOM     29  C   UNL     1      -5.824  11.685  19.880  0.00  0.00    +0.000 C 
ATOM     30  C   UNL     1      -6.323  12.732  20.898  0.00  0.00    +0.000 C 
ATOM     31  C   UNL     1      -6.765  14.029  20.221  0.00  0.00    +0.000 C 
ATOM     32  C   UNL     1      -7.837  13.799  19.160  0.00  0.00    +0.000 C 
ATOM     33  C   UNL     1      -7.632  12.576  18.267  0.00  0.00    +0.000 C 
ATOM     34  C   UNL     1      -7.025  11.361  18.965  0.00  0.00    +0.000 C 
ENDBRANCH  21  29
ENDBRANCH   2  21
TORSDOF 7
ENDMDL
MODEL 9
REMARK VINA RESULT:      -7.1      4.625      9.044
REMARK  Name = 
REMARK  7 active torsions:
REMARK  status: ('A' for Active; 'I' for Inactive)
REMARK    1  A    between atoms: C_2  and  C_20
REMARK    2  A    between atoms: N_3  and  C_4
REMARK    3  A    between atoms: C_8  and  C_10
REMARK    4  A    between atoms: C_10  and  C_11
REMARK    5  A    between atoms: C_11  and  C_12
REMARK    6  A    between atoms: C_20  and  C_21
REMARK    7  A    between atoms: C_20  and  C_28
REMARK                            x       y       z     vdW  Elec       q    Type
REMARK                         _______ _______ _______ _____ _____    ______ ____
ROOT
ATOM      1  O   UNL     1       3.258   7.880  16.306  0.00  0.00    +0.000 OA
ATOM      2  C   UNL     1       2.975   7.620  17.472  0.00  0.00    +0.000 C 
ATOM      3  N   UNL     1       2.047   8.359  18.198  0.00  0.00    +0.000 N 
ATOM      4  H   UNL     1       1.725   7.984  19.081  0.00  0.00    +0.000 HD
ENDROOT
BRANCH   3   5
ATOM      5  C   UNL     1       1.451   9.610  17.699  0.00  0.00    +0.000 C 
ATOM      6  C   UNL     1       2.007  10.843  18.420  0.00  0.00    +0.000 C 
ATOM      7  C   UNL     1       1.688  10.723  19.897  0.00  0.00    +0.000 C 
ATOM      8  N   UNL     1       0.247  10.778  20.088  0.00  0.00    +0.000 N 
ATOM      9  C   UNL     1      -0.185  11.475  21.203  0.00  0.00    +0.000 C 
ATOM     10  O   UNL     1       0.606  11.971  22.008  0.00  0.00    +0.000 OA
ATOM     11  C   UNL     1      -0.536   9.787  19.335  0.00  0.00    +0.000 C 
ATOM     12  C   UNL     1      -0.084   9.649  17.869  0.00  0.00    +0.000 C 
BRANCH   9  13
ATOM     13  C   UNL     1      -1.669  11.650  21.402  0.00  0.00    +0.000 C 
BRANCH  13  14
ATOM     14  C   UNL     1      -2.153  12.791  20.507  0.00  0.00    +0.000 C 
BRANCH  14  15
ATOM     15  C   UNL     1      -3.349  12.378  19.702  0.00  0.00    +0.000 A 
ATOM     16  C   UNL     1      -3.210  11.712  18.492  0.00  0.00    +0.000 A 
ATOM     17  C   UNL     1      -4.348  11.313  17.799  0.00  0.00    +0.000 A 
ATOM     18  C   UNL     1      -5.587  11.596  18.358  0.00  0.00    +0.000 A 
ATOM     19  N   UNL     1      -5.758  12.234  19.531  0.00  0.00    +0.000 NA
ATOM     20  C   UNL     1      -4.635  12.619  20.181  0.00  0.00    +0.000 A 
ENDBRANCH  14  15
ENDBRANCH  13  14
ENDBRANCH   9  13
ENDBRANCH   3   5
BRANCH   2  21
ATOM     21  C   UNL     1       3.696   6.513  18.280  0.00  0.00    +0.000 C 
BRANCH  21  22
ATOM     22  C   UNL     1       2.742   5.595  19.037  0.00  0.00    +0.000 A 
ATOM     23  C   UNL     1       1.891   4.676  18.404  0.00  0.00    +0.000 A 
ATOM     24  C   UNL     1       1.179   3.740  19.165  0.00  0.00    +0.000 A 
ATOM     25  C   UNL     1       1.334   3.699  20.547  0.00  0.00    +0.000 A 
ATOM     26  F   UNL     1       0.711   2.756  21.261  0.00  0.00    +0.000 F 
ATOM     27  C   UNL     1       2.142   4.622  21.197  0.00  0.00    +0.000 A 
ATOM     28  C   UNL     1       2.817   5.581  20.447  0.00  0.00    +0.000 A 
ENDBRANCH  21  22
BRANCH  21  29
ATOM     29  C   UNL     1       4.702   5.737  17.348  0.00  0.00    +0.000 C 
ATOM     30  C   UNL     1       5.722   6.691  16.693  0.00  0.00    +0.000 C 
ATOM     31  C   UNL     1       6.655   7.332  17.721  0.00  0.00    +0.000 C 
ATOM     32  C   UNL     1       7.394   6.297  18.565  0.00  0.00    +0.000 C 
ATOM     33  C   UNL     1       6.561   5.100  19.022  0.00  0.00    +0.000 C 
ATOM     34  C   UNL     1       5.523   4.612  18.013  0.00  0.00    +0.000 C 
ENDBRANCH  21  29
ENDBRANCH   2  21
TORSDOF 7
ENDMDL
