MODEL 1
REMARK VINA RESULT:      -5.7      0.000      0.000
REMARK  Name = 
REMARK  2 active torsions:
REMARK  status: ('A' for Active; 'I' for Inactive)
REMARK    1  A    between atoms: N_1  and  C_2
REMARK    2  A    between atoms: C_7  and  C_9
REMARK                            x       y       z     vdW  Elec       q    Type
REMARK                         _______ _______ _______ _____ _____    ______ ____
ROOT
ATOM      1  C   UNL     1       1.236   3.300  18.337  0.00  0.00    +0.000 C 
ATOM      2  C   UNL     1       0.976   3.410  19.848  0.00  0.00    +0.000 C 
ATOM      3  C   UNL     1       2.271   3.466  20.664  0.00  0.00    +0.000 C 
ATOM      4  C   UNL     1       3.228   4.533  20.134  0.00  0.00    +0.000 C 
ATOM      5  N   UNL     1       3.433   4.393  18.694  0.00  0.00    +0.000 N 
ATOM      6  C   UNL     1       4.723   4.189  18.212  0.00  0.00    +0.000 C 
ATOM      7  O   UNL     1       5.697   4.104  18.954  0.00  0.00    +0.000 OA
ATOM      8  C   UNL     1       2.199   4.424  17.896  0.00  0.00    +0.000 C 
ENDROOT
BRANCH   1   9
ATOM      9  N   UNL     1       1.798   1.986  17.990  0.00  0.00    +0.000 NA
ATOM     10  H   UNL     1       1.703   1.820  16.989  0.00  0.00    +0.000 HD
ATOM     11  H   UNL     1       1.244   1.258  18.448  0.00  0.00    +0.000 HD
ENDBRANCH   1   9
BRANCH   6  12
ATOM     12  C   UNL     1       4.927   4.033  16.737  0.00  0.00    +0.000 C 
ATOM     13  C   UNL     1       5.268   5.227  15.870  0.00  0.00    +0.000 C 
ATOM     14  C   UNL     1       6.320   4.200  16.170  0.00  0.00    +0.000 C 
ENDBRANCH   6  12
TORSDOF 2
ENDMDL
MODEL 2
REMARK VINA RESULT:      -5.6      2.245      2.808
REMARK  Name = 
REMARK  2 active torsions:
REMARK  status: ('A' for Active; 'I' for Inactive)
REMARK    1  A    between atoms: N_1  and  C_2
REMARK    2  A    between atoms: C_7  and  C_9
REMARK                            x       y       z     vdW  Elec       q    Type
REMARK                         _______ _______ _______ _____ _____    ______ ____
ROOT
ATOM      1  C   UNL     1       4.152   3.320  18.786  0.00  0.00    +0.000 C 
ATOM      2  C   UNL     1       3.331   4.339  19.593  0.00  0.00    +0.000 C 
ATOM      3  C   UNL     1       3.599   5.783  19.159  0.00  0.00    +0.000 C 
ATOM      4  C   UNL     1       3.462   5.954  17.645  0.00  0.00    +0.000 C 
ATOM      5  N   UNL     1       4.250   4.956  16.926  0.00  0.00    +0.000 N 
ATOM      6  C   UNL     1       5.238   5.384  16.043  0.00  0.00    +0.000 C 
ATOM      7  O   UNL     1       5.486   6.572  15.859  0.00  0.00    +0.000 OA
ATOM      8  C   UNL     1       3.939   3.563  17.276  0.00  0.00    +0.000 C 
ENDROOT
BRANCH   1   9
ATOM      9  N   UNL     1       5.582   3.410  19.117  0.00  0.00    +0.000 NA
ATOM     10  H   UNL     1       5.822   4.369  19.363  0.00  0.00    +0.000 HD
ATOM     11  H   UNL     1       6.129   3.189  18.282  0.00  0.00    +0.000 HD
ENDBRANCH   1   9
BRANCH   6  12
ATOM     12  C   UNL     1       6.053   4.359  15.318  0.00  0.00    +0.000 C 
ATOM     13  C   UNL     1       5.726   3.977  13.890  0.00  0.00    +0.000 C 
ATOM     14  C   UNL     1       6.943   4.805  14.179  0.00  0.00    +0.000 C 
ENDBRANCH   6  12
TORSDOF 2
ENDMDL
MODEL 3
REMARK VINA RESULT:      -5.5      2.159      4.628
REMARK  Name = 
REMARK  2 active torsions:
REMARK  status: ('A' for Active; 'I' for Inactive)
REMARK    1  A    between atoms: N_1  and  C_2
REMARK    2  A    between atoms: C_7  and  C_9
REMARK                            x       y       z     vdW  Elec       q    Type
REMARK                         _______ _______ _______ _____ _____    ______ ____
ROOT
ATOM      1  C   UNL     1       5.701   5.090  19.012  0.00  0.00    +0.000 C 
ATOM      2  C   UNL     1       5.985   6.141  17.926  0.00  0.00    +0.000 C 
ATOM      3  C   UNL     1       4.897   6.179  16.848  0.00  0.00    +0.000 C 
ATOM      4  C   UNL     1       3.500   6.298  17.458  0.00  0.00    +0.000 C 
ATOM      5  N   UNL     1       3.285   5.286  18.490  0.00  0.00    +0.000 N 
ATOM      6  C   UNL     1       2.234   4.386  18.345  0.00  0.00    +0.000 C 
ATOM      7  O   UNL     1       1.489   4.396  17.370  0.00  0.00    +0.000 OA
ATOM      8  C   UNL     1       4.278   5.299  19.574  0.00  0.00    +0.000 C 
ENDROOT
BRANCH   1   9
ATOM      9  N   UNL     1       5.841   3.726  18.479  0.00  0.00    +0.000 NA
ATOM     10  H   UNL     1       6.779   3.593  18.105  0.00  0.00    +0.000 HD
ATOM     11  H   UNL     1       5.204   3.614  17.687  0.00  0.00    +0.000 HD
ENDBRANCH   1   9
BRANCH   6  12
ATOM     12  C   UNL     1       2.025   3.342  19.398  0.00  0.00    +0.000 C 
ATOM     13  C   UNL     1       1.049   3.572  20.533  0.00  0.00    +0.000 C 
ATOM     14  C   UNL     1       0.706   2.602  19.442  0.00  0.00    +0.000 C 
ENDBRANCH   6  12
TORSDOF 2
ENDMDL
MODEL 4
REMARK VINA RESULT:      -5.4      1.698      2.195
REMARK  Name = 
REMARK  2 active torsions:
REMARK  status: ('A' for Active; 'I' for Inactive)
REMARK    1  A    between atoms: N_1  and  C_2
REMARK    2  A    between atoms: C_7  and  C_9
REMARK                            x       y       z     vdW  Elec       q    Type
REMARK                         _______ _______ _______ _____ _____    ______ ____
ROOT
ATOM      1  C   UNL     1       3.703   2.376  19.113  0.00  0.00    +0.000 C 
ATOM      2  C   UNL     1       2.603   3.152  19.856  0.00  0.00    +0.000 C 
ATOM      3  C   UNL     1       2.643   4.654  19.560  0.00  0.00    +0.000 C 
ATOM      4  C   UNL     1       2.675   4.934  18.057  0.00  0.00    +0.000 C 
ATOM      5  N   UNL     1       3.728   4.165  17.397  0.00  0.00    +0.000 N 
ATOM      6  C   UNL     1       4.722   4.844  16.697  0.00  0.00    +0.000 C 
ATOM      7  O   UNL     1       4.760   6.068  16.629  0.00  0.00    +0.000 OA
ATOM      8  C   UNL     1       3.647   2.713  17.607  0.00  0.00    +0.000 C 
ENDROOT
BRANCH   1   9
ATOM      9  N   UNL     1       5.033   2.693  19.654  0.00  0.00    +0.000 NA
ATOM     10  H   UNL     1       5.574   3.214  18.965  0.00  0.00    +0.000 HD
ATOM     11  H   UNL     1       5.544   1.821  19.811  0.00  0.00    +0.000 HD
ENDBRANCH   1   9
BRANCH   6  12
ATOM     12  C   UNL     1       5.807   4.053  16.034  0.00  0.00    +0.000 C 
ATOM     13  C   UNL     1       5.905   3.987  14.524  0.00  0.00    +0.000 C 
ATOM     14  C   UNL     1       6.906   4.791  15.301  0.00  0.00    +0.000 C 
ENDBRANCH   6  12
TORSDOF 2
ENDMDL
MODEL 5
REMARK VINA RESULT:      -5.4      2.573      3.251
REMARK  Name = 
REMARK  2 active torsions:
REMARK  status: ('A' for Active; 'I' for Inactive)
REMARK    1  A    between atoms: N_1  and  C_2
REMARK    2  A    between atoms: C_7  and  C_9
REMARK                            x       y       z     vdW  Elec       q    Type
REMARK                         _______ _______ _______ _____ _____    ______ ____
ROOT
ATOM      1  C   UNL     1       4.471   4.003  16.552  0.00  0.00    +0.000 C 
ATOM      2  C   UNL     1       3.616   3.164  17.517  0.00  0.00    +0.000 C 
ATOM      3  C   UNL     1       4.232   3.072  18.917  0.00  0.00    +0.000 C 
ATOM      4  C   UNL     1       4.593   4.452  19.468  0.00  0.00    +0.000 C 
ATOM      5  N   UNL     1       5.393   5.212  18.510  0.00  0.00    +0.000 N 
ATOM      6  C   UNL     1       6.658   5.654  18.888  0.00  0.00    +0.000 C 
ATOM      7  O   UNL     1       7.137   5.412  19.992  0.00  0.00    +0.000 OA
ATOM      8  C   UNL     1       4.771   5.377  17.190  0.00  0.00    +0.000 C 
ENDROOT
BRANCH   1   9
ATOM      9  N   UNL     1       5.727   3.314  16.220  0.00  0.00    +0.000 NA
ATOM     10  H   UNL     1       6.097   3.671  15.341  0.00  0.00    +0.000 HD
ATOM     11  H   UNL     1       5.528   2.324  16.059  0.00  0.00    +0.000 HD
ENDBRANCH   1   9
BRANCH   6  12
ATOM     12  C   UNL     1       7.481   6.421  17.900  0.00  0.00    +0.000 C 
ATOM     13  C   UNL     1       7.100   7.832  17.504  0.00  0.00    +0.000 C 
ATOM     14  C   UNL     1       8.292   7.603  18.385  0.00  0.00    +0.000 C 
ENDBRANCH   6  12
TORSDOF 2
ENDMDL
MODEL 6
REMARK VINA RESULT:      -5.4      1.370      1.406
REMARK  Name = 
REMARK  2 active torsions:
REMARK  status: ('A' for Active; 'I' for Inactive)
REMARK    1  A    between atoms: N_1  and  C_2
REMARK    2  A    between atoms: C_7  and  C_9
REMARK                            x       y       z     vdW  Elec       q    Type
REMARK                         _______ _______ _______ _____ _____    ______ ____
ROOT
ATOM      1  C   UNL     1       2.645   2.162  17.907  0.00  0.00    +0.000 C 
ATOM      2  C   UNL     1       1.696   2.352  19.102  0.00  0.00    +0.000 C 
ATOM      3  C   UNL     1       2.329   3.173  20.229  0.00  0.00    +0.000 C 
ATOM      4  C   UNL     1       2.923   4.483  19.711  0.00  0.00    +0.000 C 
ATOM      5  N   UNL     1       3.806   4.250  18.571  0.00  0.00    +0.000 N 
ATOM      6  C   UNL     1       5.137   4.652  18.654  0.00  0.00    +0.000 C 
ATOM      7  O   UNL     1       5.602   5.180  19.659  0.00  0.00    +0.000 OA
ATOM      8  C   UNL     1       3.180   3.536  17.449  0.00  0.00    +0.000 C 
ENDROOT
BRANCH   1   9
ATOM      9  N   UNL     1       3.764   1.273  18.255  0.00  0.00    +0.000 NA
ATOM     10  H   UNL     1       3.952   0.633  17.485  0.00  0.00    +0.000 HD
ATOM     11  H   UNL     1       3.487   0.687  19.046  0.00  0.00    +0.000 HD
ENDBRANCH   1   9
BRANCH   6  12
ATOM     12  C   UNL     1       6.042   4.399  17.489  0.00  0.00    +0.000 C 
ATOM     13  C   UNL     1       6.695   5.549  16.751  0.00  0.00    +0.000 C 
ATOM     14  C   UNL     1       7.523   4.671  17.642  0.00  0.00    +0.000 C 
ENDBRANCH   6  12
TORSDOF 2
ENDMDL
MODEL 7
REMARK VINA RESULT:      -5.4      2.490      4.844
REMARK  Name = 
REMARK  2 active torsions:
REMARK  status: ('A' for Active; 'I' for Inactive)
REMARK    1  A    between atoms: N_1  and  C_2
REMARK    2  A    between atoms: C_7  and  C_9
REMARK                            x       y       z     vdW  Elec       q    Type
REMARK                         _______ _______ _______ _____ _____    ______ ____
ROOT
ATOM      1  C   UNL     1       7.425   5.489  18.633  0.00  0.00    +0.000 C 
ATOM      2  C   UNL     1       7.375   6.745  17.747  0.00  0.00    +0.000 C 
ATOM      3  C   UNL     1       6.195   6.727  16.771  0.00  0.00    +0.000 C 
ATOM      4  C   UNL     1       4.875   6.434  17.484  0.00  0.00    +0.000 C 
ATOM      5  N   UNL     1       4.978   5.241  18.320  0.00  0.00    +0.000 N 
ATOM      6  C   UNL     1       4.120   4.171  18.079  0.00  0.00    +0.000 C 
ATOM      7  O   UNL     1       3.291   4.184  17.175  0.00  0.00    +0.000 OA
ATOM      8  C   UNL     1       6.056   5.285  19.318  0.00  0.00    +0.000 C 
ENDROOT
BRANCH   1   9
ATOM      9  N   UNL     1       7.780   4.299  17.846  0.00  0.00    +0.000 NA
ATOM     10  H   UNL     1       7.672   3.461  18.414  0.00  0.00    +0.000 HD
ATOM     11  H   UNL     1       8.772   4.347  17.603  0.00  0.00    +0.000 HD
ENDBRANCH   1   9
BRANCH   6  12
ATOM     12  C   UNL     1       4.238   2.944  18.929  0.00  0.00    +0.000 C 
ATOM     13  C   UNL     1       3.190   2.621  19.973  0.00  0.00    +0.000 C 
ATOM     14  C   UNL     1       3.261   1.809  18.714  0.00  0.00    +0.000 C 
ENDBRANCH   6  12
TORSDOF 2
ENDMDL
MODEL 8
REMARK VINA RESULT:      -5.4      1.717      2.607
REMARK  Name = 
REMARK  2 active torsions:
REMARK  status: ('A' for Active; 'I' for Inactive)
REMARK    1  A    between atoms: N_1  and  C_2
REMARK    2  A    between atoms: C_7  and  C_9
REMARK                            x       y       z     vdW  Elec       q    Type
REMARK                         _______ _______ _______ _____ _____    ______ ____
ROOT
ATOM      1  C   UNL     1       2.894   3.752  20.157  0.00  0.00    +0.000 C 
ATOM      2  C   UNL     1       1.608   3.400  19.392  0.00  0.00    +0.000 C 
ATOM      3  C   UNL     1       1.611   3.940  17.958  0.00  0.00    +0.000 C 
ATOM      4  C   UNL     1       2.887   3.552  17.211  0.00  0.00    +0.000 C 
ATOM      5  N   UNL     1       4.079   3.896  17.983  0.00  0.00    +0.000 N 
ATOM      6  C   UNL     1       5.016   4.764  17.428  0.00  0.00    +0.000 C 
ATOM      7  O   UNL     1       4.869   5.268  16.319  0.00  0.00    +0.000 OA
ATOM      8  C   UNL     1       4.123   3.312  19.331  0.00  0.00    +0.000 C 
ENDROOT
BRANCH   1   9
ATOM      9  N   UNL     1       2.964   5.194  20.440  0.00  0.00    +0.000 NA
ATOM     10  H   UNL     1       2.647   5.724  19.630  0.00  0.00    +0.000 HD
ATOM     11  H   UNL     1       3.943   5.456  20.582  0.00  0.00    +0.000 HD
ENDBRANCH   1   9
BRANCH   6  12
ATOM     12  C   UNL     1       6.229   5.125  18.228  0.00  0.00    +0.000 C 
ATOM     13  C   UNL     1       7.607   4.671  17.795  0.00  0.00    +0.000 C 
ATOM     14  C   UNL     1       7.218   6.113  17.650  0.00  0.00    +0.000 C 
ENDBRANCH   6  12
TORSDOF 2
ENDMDL
MODEL 9
REMARK VINA RESULT:      -5.3      1.319      1.333
REMARK  Name = 
REMARK  2 active torsions:
REMARK  status: ('A' for Active; 'I' for Inactive)
REMARK    1  A    between atoms: N_1  and  C_2
REMARK    2  A    between atoms: C_7  and  C_9
REMARK                            x       y       z     vdW  Elec       q    Type
REMARK                         _______ _______ _______ _____ _____    ______ ____
ROOT
ATOM      1  C   UNL     1       2.655   2.119  18.153  0.00  0.00    +0.000 C 
ATOM      2  C   UNL     1       2.102   2.623  19.497  0.00  0.00    +0.000 C 
ATOM      3  C   UNL     1       3.005   3.676  20.145  0.00  0.00    +0.000 C 
ATOM      4  C   UNL     1       3.352   4.802  19.170  0.00  0.00    +0.000 C 
ATOM      5  N   UNL     1       3.860   4.271  17.907  0.00  0.00    +0.000 N 
ATOM      6  C   UNL     1       5.133   4.643  17.482  0.00  0.00    +0.000 C 
ATOM      7  O   UNL     1       5.854   5.387  18.139  0.00  0.00    +0.000 OA
ATOM      8  C   UNL     1       2.960   3.323  17.236  0.00  0.00    +0.000 C 
ENDROOT
BRANCH   1   9
ATOM      9  N   UNL     1       3.867   1.310  18.349  0.00  0.00    +0.000 NA
ATOM     10  H   UNL     1       3.691   0.581  19.037  0.00  0.00    +0.000 HD
ATOM     11  H   UNL     1       4.599   1.902  18.748  0.00  0.00    +0.000 HD
ENDBRANCH   1   9
BRANCH   6  12
ATOM     12  C   UNL     1       5.656   4.087  16.194  0.00  0.00    +0.000 C 
ATOM     13  C   UNL     1       5.600   4.901  14.919  0.00  0.00    +0.000 C 
ATOM     14  C   UNL     1       6.917   4.678  15.601  0.00  0.00    +0.000 C 
ENDBRANCH   6  12
TORSDOF 2
ENDMDL
