MODEL 1
REMARK VINA RESULT:      -6.7      0.000      0.000
REMARK  Name = 
REMARK  6 active torsions:
REMARK  status: ('A' for Active; 'I' for Inactive)
REMARK    1  A    between atoms: C_2  and  C_3
REMARK    2  A    between atoms: C_3  and  C_4
REMARK    3  A    between atoms: N_6  and  N_7
REMARK    4  A    between atoms: C_8  and  C_9
REMARK    5  A    between atoms: C_8  and  C_11
REMARK    6  A    between atoms: C_14  and  N_15
REMARK                            x       y       z     vdW  Elec       q    Type
REMARK                         _______ _______ _______ _____ _____    ______ ____
ROOT
ATOM      1  N   UNL     1       5.786   4.167  19.399  0.00  0.00    +0.000 NA
ATOM      2  C   UNL     1       4.494   4.225  19.257  0.00  0.00    +0.000 C 
ENDROOT
BRANCH   2   3
ATOM      3  C   UNL     1       3.680   5.466  19.020  0.00  0.00    +0.000 A 
ATOM      4  C   UNL     1       2.827   5.976  20.016  0.00  0.00    +0.000 A 
ATOM      5  C   UNL     1       2.129   7.172  19.818  0.00  0.00    +0.000 A 
ATOM      6  C   UNL     1       2.322   7.896  18.637  0.00  0.00    +0.000 A 
ATOM      7  C   UNL     1       3.177   7.409  17.641  0.00  0.00    +0.000 A 
ATOM      8  C   UNL     1       3.840   6.190  17.831  0.00  0.00    +0.000 A 
BRANCH   6   9
ATOM      9  N   UNL     1       1.656   9.191  18.454  0.00  0.00    +0.000 N 
ATOM     10  O   UNL     1       2.048   9.915  17.528  0.00  0.00    +0.000 OA
ATOM     11  O   UNL     1       0.737   9.478  19.234  0.00  0.00    +0.000 OA
ENDBRANCH   6   9
ENDBRANCH   2   3
BRANCH   1  14
ATOM     12  C   UNL     1       7.463   5.573  18.522  0.00  0.00    +0.000 C 
ATOM     13  O   UNL     1       8.144   6.593  18.584  0.00  0.00    +0.000 OA
ATOM     14  N   UNL     1       6.549   5.275  19.508  0.00  0.00    +0.000 N 
ATOM     15  H   UNL     1       6.459   5.905  20.293  0.00  0.00    +0.000 HD
BRANCH  12  16
ATOM     16  C   UNL     1       7.536   4.606  17.365  0.00  0.00    +0.000 C 
BRANCH  16  18
ATOM     17  N   UNL     1       6.379   5.699  15.084  0.00  0.00    +0.000 NA
ATOM     18  C   UNL     1       6.904   5.204  16.118  0.00  0.00    +0.000 C 
ENDBRANCH  16  18
ENDBRANCH  12  16
ENDBRANCH   1  14
BRANCH   2  19
ATOM     19  C   UNL     1       3.712   2.914  19.235  0.00  0.00    +0.000 C 
ATOM     20 BR   UNL     1       2.590   2.736  17.655  0.00  0.00    +0.000 Br
ENDBRANCH   2  19
TORSDOF 6
ENDMDL
MODEL 2
REMARK VINA RESULT:      -6.7      3.418      6.085
REMARK  Name = 
REMARK  6 active torsions:
REMARK  status: ('A' for Active; 'I' for Inactive)
REMARK    1  A    between atoms: C_2  and  C_3
REMARK    2  A    between atoms: C_3  and  C_4
REMARK    3  A    between atoms: N_6  and  N_7
REMARK    4  A    between atoms: C_8  and  C_9
REMARK    5  A    between atoms: C_8  and  C_11
REMARK    6  A    between atoms: C_14  and  N_15
REMARK                            x       y       z     vdW  Elec       q    Type
REMARK                         _______ _______ _______ _____ _____    ______ ____
ROOT
ATOM      1  N   UNL     1       1.345   5.593  18.422  0.00  0.00    +0.000 NA
ATOM      2  C   UNL     1       2.423   6.286  18.646  0.00  0.00    +0.000 C 
ENDROOT
BRANCH   2   3
ATOM      3  C   UNL     1       3.824   5.901  18.259  0.00  0.00    +0.000 A 
ATOM      4  C   UNL     1       4.627   5.128  19.118  0.00  0.00    +0.000 A 
ATOM      5  C   UNL     1       5.903   4.710  18.722  0.00  0.00    +0.000 A 
ATOM      6  C   UNL     1       6.362   5.018  17.437  0.00  0.00    +0.000 A 
ATOM      7  C   UNL     1       5.570   5.775  16.567  0.00  0.00    +0.000 A 
ATOM      8  C   UNL     1       4.312   6.224  16.986  0.00  0.00    +0.000 A 
BRANCH   6   9
ATOM      9  N   UNL     1       7.665   4.515  16.985  0.00  0.00    +0.000 N 
ATOM     10  O   UNL     1       7.899   4.537  15.769  0.00  0.00    +0.000 OA
ATOM     11  O   UNL     1       8.454   4.107  17.849  0.00  0.00    +0.000 OA
ENDBRANCH   6   9
ENDBRANCH   2   3
BRANCH   1  14
ATOM     12  C   UNL     1       1.117   3.273  18.774  0.00  0.00    +0.000 C 
ATOM     13  O   UNL     1       1.116   2.121  18.348  0.00  0.00    +0.000 OA
ATOM     14  N   UNL     1       1.385   4.334  17.938  0.00  0.00    +0.000 N 
ATOM     15  H   UNL     1       1.596   4.146  16.968  0.00  0.00    +0.000 HD
BRANCH  12  16
ATOM     16  C   UNL     1       0.788   3.618  20.207  0.00  0.00    +0.000 C 
BRANCH  16  18
ATOM     17  N   UNL     1       2.671   2.536  21.945  0.00  0.00    +0.000 NA
ATOM     18  C   UNL     1       1.818   3.027  21.157  0.00  0.00    +0.000 C 
ENDBRANCH  16  18
ENDBRANCH  12  16
ENDBRANCH   1  14
BRANCH   2  19
ATOM     19  C   UNL     1       2.275   7.667  19.280  0.00  0.00    +0.000 C 
ATOM     20 BR   UNL     1       1.829   9.045  17.981  0.00  0.00    +0.000 Br
ENDBRANCH   2  19
TORSDOF 6
ENDMDL
MODEL 3
REMARK VINA RESULT:      -6.5      3.409      4.320
REMARK  Name = 
REMARK  6 active torsions:
REMARK  status: ('A' for Active; 'I' for Inactive)
REMARK    1  A    between atoms: C_2  and  C_3
REMARK    2  A    between atoms: C_3  and  C_4
REMARK    3  A    between atoms: N_6  and  N_7
REMARK    4  A    between atoms: C_8  and  C_9
REMARK    5  A    between atoms: C_8  and  C_11
REMARK    6  A    between atoms: C_14  and  N_15
REMARK                            x       y       z     vdW  Elec       q    Type
REMARK                         _______ _______ _______ _____ _____    ______ ____
ROOT
ATOM      1  N   UNL     1       6.969   4.426  16.475  0.00  0.00    +0.000 NA
ATOM      2  C   UNL     1       5.744   4.146  16.141  0.00  0.00    +0.000 C 
ENDROOT
BRANCH   2   3
ATOM      3  C   UNL     1       4.592   3.930  17.082  0.00  0.00    +0.000 A 
ATOM      4  C   UNL     1       3.740   4.991  17.441  0.00  0.00    +0.000 A 
ATOM      5  C   UNL     1       2.625   4.770  18.257  0.00  0.00    +0.000 A 
ATOM      6  C   UNL     1       2.325   3.471  18.677  0.00  0.00    +0.000 A 
ATOM      7  C   UNL     1       3.155   2.403  18.319  0.00  0.00    +0.000 A 
ATOM      8  C   UNL     1       4.291   2.639  17.535  0.00  0.00    +0.000 A 
BRANCH   6   9
ATOM      9  N   UNL     1       1.114   3.218  19.467  0.00  0.00    +0.000 N 
ATOM     10  O   UNL     1       0.197   2.583  18.927  0.00  0.00    +0.000 OA
ATOM     11  O   UNL     1       1.085   3.649  20.628  0.00  0.00    +0.000 OA
ENDBRANCH   6   9
ENDBRANCH   2   3
BRANCH   1  14
ATOM     12  C   UNL     1       7.599   5.585  18.429  0.00  0.00    +0.000 C 
ATOM     13  O   UNL     1       7.950   5.587  19.607  0.00  0.00    +0.000 OA
ATOM     14  N   UNL     1       7.389   4.401  17.758  0.00  0.00    +0.000 N 
ATOM     15  H   UNL     1       7.542   3.532  18.248  0.00  0.00    +0.000 HD
BRANCH  12  16
ATOM     16  C   UNL     1       7.333   6.851  17.651  0.00  0.00    +0.000 C 
BRANCH  16  18
ATOM     17  N   UNL     1       8.768   8.986  18.709  0.00  0.00    +0.000 NA
ATOM     18  C   UNL     1       8.117   8.018  18.229  0.00  0.00    +0.000 C 
ENDBRANCH  16  18
ENDBRANCH  12  16
ENDBRANCH   1  14
BRANCH   2  19
ATOM     19  C   UNL     1       5.392   4.113  14.655  0.00  0.00    +0.000 C 
ATOM     20 BR   UNL     1       6.953   4.299  13.509  0.00  0.00    +0.000 Br
ENDBRANCH   2  19
TORSDOF 6
ENDMDL
MODEL 4
REMARK VINA RESULT:      -6.5      3.537      5.800
REMARK  Name = 
REMARK  6 active torsions:
REMARK  status: ('A' for Active; 'I' for Inactive)
REMARK    1  A    between atoms: C_2  and  C_3
REMARK    2  A    between atoms: C_3  and  C_4
REMARK    3  A    between atoms: N_6  and  N_7
REMARK    4  A    between atoms: C_8  and  C_9
REMARK    5  A    between atoms: C_8  and  C_11
REMARK    6  A    between atoms: C_14  and  N_15
REMARK                            x       y       z     vdW  Elec       q    Type
REMARK                         _______ _______ _______ _____ _____    ______ ____
ROOT
ATOM      1  N   UNL     1       2.154   5.777  20.810  0.00  0.00    +0.000 NA
ATOM      2  C   UNL     1       2.646   6.267  19.710  0.00  0.00    +0.000 C 
ENDROOT
BRANCH   2   3
ATOM      3  C   UNL     1       3.765   5.681  18.896  0.00  0.00    +0.000 A 
ATOM      4  C   UNL     1       3.543   5.211  17.589  0.00  0.00    +0.000 A 
ATOM      5  C   UNL     1       4.603   4.736  16.809  0.00  0.00    +0.000 A 
ATOM      6  C   UNL     1       5.905   4.777  17.316  0.00  0.00    +0.000 A 
ATOM      7  C   UNL     1       6.145   5.254  18.609  0.00  0.00    +0.000 A 
ATOM      8  C   UNL     1       5.073   5.690  19.398  0.00  0.00    +0.000 A 
BRANCH   6   9
ATOM      9  N   UNL     1       7.032   4.356  16.475  0.00  0.00    +0.000 N 
ATOM     10  O   UNL     1       8.130   4.192  17.024  0.00  0.00    +0.000 OA
ATOM     11  O   UNL     1       6.814   4.182  15.268  0.00  0.00    +0.000 OA
ENDBRANCH   6   9
ENDBRANCH   2   3
BRANCH   1  14
ATOM     12  C   UNL     1       2.135   3.486  21.369  0.00  0.00    +0.000 C 
ATOM     13  O   UNL     1       2.651   2.513  21.914  0.00  0.00    +0.000 OA
ATOM     14  N   UNL     1       2.721   4.730  21.448  0.00  0.00    +0.000 N 
ATOM     15  H   UNL     1       3.577   4.831  21.975  0.00  0.00    +0.000 HD
BRANCH  12  16
ATOM     16  C   UNL     1       0.870   3.393  20.550  0.00  0.00    +0.000 C 
BRANCH  16  18
ATOM     17  N   UNL     1       1.395   2.330  18.034  0.00  0.00    +0.000 NA
ATOM     18  C   UNL     1       1.157   2.812  19.175  0.00  0.00    +0.000 C 
ENDBRANCH  16  18
ENDBRANCH  12  16
ENDBRANCH   1  14
BRANCH   2  19
ATOM     19  C   UNL     1       1.984   7.509  19.116  0.00  0.00    +0.000 C 
ATOM     20 BR   UNL     1       1.208   8.668  20.473  0.00  0.00    +0.000 Br
ENDBRANCH   2  19
TORSDOF 6
ENDMDL
MODEL 5
REMARK VINA RESULT:      -6.5      3.560      5.822
REMARK  Name = 
REMARK  6 active torsions:
REMARK  status: ('A' for Active; 'I' for Inactive)
REMARK    1  A    between atoms: C_2  and  C_3
REMARK    2  A    between atoms: C_3  and  C_4
REMARK    3  A    between atoms: N_6  and  N_7
REMARK    4  A    between atoms: C_8  and  C_9
REMARK    5  A    between atoms: C_8  and  C_11
REMARK    6  A    between atoms: C_14  and  N_15
REMARK                            x       y       z     vdW  Elec       q    Type
REMARK                         _______ _______ _______ _____ _____    ______ ____
ROOT
ATOM      1  N   UNL     1       2.429   6.247  19.847  0.00  0.00    +0.000 NA
ATOM      2  C   UNL     1       2.802   6.740  18.702  0.00  0.00    +0.000 C 
ENDROOT
BRANCH   2   3
ATOM      3  C   UNL     1       3.847   6.169  17.785  0.00  0.00    +0.000 A 
ATOM      4  C   UNL     1       3.771   4.837  17.339  0.00  0.00    +0.000 A 
ATOM      5  C   UNL     1       4.705   4.334  16.426  0.00  0.00    +0.000 A 
ATOM      6  C   UNL     1       5.694   5.179  15.913  0.00  0.00    +0.000 A 
ATOM      7  C   UNL     1       5.775   6.510  16.338  0.00  0.00    +0.000 A 
ATOM      8  C   UNL     1       4.861   6.995  17.282  0.00  0.00    +0.000 A 
BRANCH   6   9
ATOM      9  N   UNL     1       6.628   4.682  14.896  0.00  0.00    +0.000 N 
ATOM     10  O   UNL     1       6.280   3.700  14.226  0.00  0.00    +0.000 OA
ATOM     11  O   UNL     1       7.706   5.280  14.765  0.00  0.00    +0.000 OA
ENDBRANCH   6   9
ENDBRANCH   2   3
BRANCH   1  14
ATOM     12  C   UNL     1       2.390   4.053  20.710  0.00  0.00    +0.000 C 
ATOM     13  O   UNL     1       2.964   3.090  21.210  0.00  0.00    +0.000 OA
ATOM     14  N   UNL     1       3.074   5.215  20.431  0.00  0.00    +0.000 N 
ATOM     15  H   UNL     1       4.057   5.266  20.659  0.00  0.00    +0.000 HD
BRANCH  12  16
ATOM     16  C   UNL     1       0.930   4.030  20.326  0.00  0.00    +0.000 C 
BRANCH  16  18
ATOM     17  N   UNL     1       0.438   2.070  18.414  0.00  0.00    +0.000 NA
ATOM     18  C   UNL     1       0.661   2.959  19.281  0.00  0.00    +0.000 C 
ENDBRANCH  16  18
ENDBRANCH  12  16
ENDBRANCH   1  14
BRANCH   2  19
ATOM     19  C   UNL     1       2.063   7.966  18.170  0.00  0.00    +0.000 C 
ATOM     20 BR   UNL     1       1.240   9.019  19.584  0.00  0.00    +0.000 Br
ENDBRANCH   2  19
TORSDOF 6
ENDMDL
MODEL 6
REMARK VINA RESULT:      -6.5      3.421      5.745
REMARK  Name = 
REMARK  6 active torsions:
REMARK  status: ('A' for Active; 'I' for Inactive)
REMARK    1  A    between atoms: C_2  and  C_3
REMARK    2  A    between atoms: C_3  and  C_4
REMARK    3  A    between atoms: N_6  and  N_7
REMARK    4  A    between atoms: C_8  and  C_9
REMARK    5  A    between atoms: C_8  and  C_11
REMARK    6  A    between atoms: C_14  and  N_15
REMARK                            x       y       z     vdW  Elec       q    Type
REMARK                         _______ _______ _______ _____ _____    ______ ____
ROOT
ATOM      1  N   UNL     1       1.884   5.628  20.414  0.00  0.00    +0.000 NA
ATOM      2  C   UNL     1       2.416   6.053  19.306  0.00  0.00    +0.000 C 
ENDROOT
BRANCH   2   3
ATOM      3  C   UNL     1       3.690   5.557  18.682  0.00  0.00    +0.000 A 
ATOM      4  C   UNL     1       3.717   5.106  17.349  0.00  0.00    +0.000 A 
ATOM      5  C   UNL     1       4.920   4.715  16.750  0.00  0.00    +0.000 A 
ATOM      6  C   UNL     1       6.116   4.824  17.467  0.00  0.00    +0.000 A 
ATOM      7  C   UNL     1       6.107   5.282  18.789  0.00  0.00    +0.000 A 
ATOM      8  C   UNL     1       4.894   5.633  19.395  0.00  0.00    +0.000 A 
BRANCH   6   9
ATOM      9  N   UNL     1       7.391   4.493  16.820  0.00  0.00    +0.000 N 
ATOM     10  O   UNL     1       7.449   4.578  15.586  0.00  0.00    +0.000 OA
ATOM     11  O   UNL     1       8.333   4.154  17.550  0.00  0.00    +0.000 OA
ENDBRANCH   6   9
ENDBRANCH   2   3
BRANCH   1  14
ATOM     12  C   UNL     1       2.103   3.459  21.313  0.00  0.00    +0.000 C 
ATOM     13  O   UNL     1       2.690   2.651  22.029  0.00  0.00    +0.000 OA
ATOM     14  N   UNL     1       2.523   4.768  21.236  0.00  0.00    +0.000 N 
ATOM     15  H   UNL     1       3.317   5.056  21.790  0.00  0.00    +0.000 HD
BRANCH  12  16
ATOM     16  C   UNL     1       0.926   3.083  20.446  0.00  0.00    +0.000 C 
BRANCH  16  18
ATOM     17  N   UNL     1       1.780   2.119  17.980  0.00  0.00    +0.000 NA
ATOM     18  C   UNL     1       1.393   2.556  19.098  0.00  0.00    +0.000 C 
ENDBRANCH  16  18
ENDBRANCH  12  16
ENDBRANCH   1  14
BRANCH   2  19
ATOM     19  C   UNL     1       1.650   7.095  18.493  0.00  0.00    +0.000 C 
ATOM     20 BR   UNL     1       2.795   8.525  17.836  0.00  0.00    +0.000 Br
ENDBRANCH   2  19
TORSDOF 6
ENDMDL
MODEL 7
REMARK VINA RESULT:      -6.4      3.836      6.227
REMARK  Name = 
REMARK  6 active torsions:
REMARK  status: ('A' for Active; 'I' for Inactive)
REMARK    1  A    between atoms: C_2  and  C_3
REMARK    2  A    between atoms: C_3  and  C_4
REMARK    3  A    between atoms: N_6  and  N_7
REMARK    4  A    between atoms: C_8  and  C_9
REMARK    5  A    between atoms: C_8  and  C_11
REMARK    6  A    between atoms: C_14  and  N_15
REMARK                            x       y       z     vdW  Elec       q    Type
REMARK                         _______ _______ _______ _____ _____    ______ ____
ROOT
ATOM      1  N   UNL     1       1.636   5.337  18.528  0.00  0.00    +0.000 NA
ATOM      2  C   UNL     1       2.695   6.055  18.293  0.00  0.00    +0.000 C 
ENDROOT
BRANCH   2   3
ATOM      3  C   UNL     1       3.824   5.700  17.366  0.00  0.00    +0.000 A 
ATOM      4  C   UNL     1       4.128   4.357  17.075  0.00  0.00    +0.000 A 
ATOM      5  C   UNL     1       5.131   4.034  16.153  0.00  0.00    +0.000 A 
ATOM      6  C   UNL     1       5.801   5.057  15.475  0.00  0.00    +0.000 A 
ATOM      7  C   UNL     1       5.501   6.397  15.744  0.00  0.00    +0.000 A 
ATOM      8  C   UNL     1       4.524   6.712  16.697  0.00  0.00    +0.000 A 
BRANCH   6   9
ATOM      9  N   UNL     1       6.797   4.726  14.449  0.00  0.00    +0.000 N 
ATOM     10  O   UNL     1       7.826   5.413  14.403  0.00  0.00    +0.000 OA
ATOM     11  O   UNL     1       6.549   3.773  13.696  0.00  0.00    +0.000 OA
ENDBRANCH   6   9
ENDBRANCH   2   3
BRANCH   1  14
ATOM     12  C   UNL     1       1.063   3.082  18.911  0.00  0.00    +0.000 C 
ATOM     13  O   UNL     1       0.905   1.934  18.503  0.00  0.00    +0.000 OA
ATOM     14  N   UNL     1       1.505   4.076  18.066  0.00  0.00    +0.000 N 
ATOM     15  H   UNL     1       1.709   3.840  17.105  0.00  0.00    +0.000 HD
BRANCH  12  16
ATOM     16  C   UNL     1       0.753   3.500  20.328  0.00  0.00    +0.000 C 
BRANCH  16  18
ATOM     17  N   UNL     1       2.645   2.488  22.097  0.00  0.00    +0.000 NA
ATOM     18  C   UNL     1       1.787   2.947  21.295  0.00  0.00    +0.000 C 
ENDBRANCH  16  18
ENDBRANCH  12  16
ENDBRANCH   1  14
BRANCH   2  19
ATOM     19  C   UNL     1       2.787   7.436  18.937  0.00  0.00    +0.000 C 
ATOM     20 BR   UNL     1       1.804   8.793  17.947  0.00  0.00    +0.000 Br
ENDBRANCH   2  19
TORSDOF 6
ENDMDL
MODEL 8
REMARK VINA RESULT:      -6.4      1.008      1.008
REMARK  Name = 
REMARK  6 active torsions:
REMARK  status: ('A' for Active; 'I' for Inactive)
REMARK    1  A    between atoms: C_2  and  C_3
REMARK    2  A    between atoms: C_3  and  C_4
REMARK    3  A    between atoms: N_6  and  N_7
REMARK    4  A    between atoms: C_8  and  C_9
REMARK    5  A    between atoms: C_8  and  C_11
REMARK    6  A    between atoms: C_14  and  N_15
REMARK                            x       y       z     vdW  Elec       q    Type
REMARK                         _______ _______ _______ _____ _____    ______ ____
ROOT
ATOM      1  N   UNL     1       5.341   3.927  19.341  0.00  0.00    +0.000 NA
ATOM      2  C   UNL     1       4.055   4.122  19.336  0.00  0.00    +0.000 C 
ENDROOT
BRANCH   2   3
ATOM      3  C   UNL     1       3.355   5.433  19.108  0.00  0.00    +0.000 A 
ATOM      4  C   UNL     1       2.669   6.081  20.151  0.00  0.00    +0.000 A 
ATOM      5  C   UNL     1       2.084   7.336  19.952  0.00  0.00    +0.000 A 
ATOM      6  C   UNL     1       2.228   7.977  18.717  0.00  0.00    +0.000 A 
ATOM      7  C   UNL     1       2.918   7.351  17.673  0.00  0.00    +0.000 A 
ATOM      8  C   UNL     1       3.466   6.077  17.868  0.00  0.00    +0.000 A 
BRANCH   6   9
ATOM      9  N   UNL     1       1.686   9.328  18.525  0.00  0.00    +0.000 N 
ATOM     10  O   UNL     1       2.023   9.943  17.505  0.00  0.00    +0.000 OA
ATOM     11  O   UNL     1       0.918   9.767  19.394  0.00  0.00    +0.000 OA
ENDBRANCH   6   9
ENDBRANCH   2   3
BRANCH   1  14
ATOM     12  C   UNL     1       6.926   5.187  18.133  0.00  0.00    +0.000 C 
ATOM     13  O   UNL     1       7.711   6.129  18.057  0.00  0.00    +0.000 OA
ATOM     14  N   UNL     1       6.225   4.946  19.294  0.00  0.00    +0.000 N 
ATOM     15  H   UNL     1       6.378   5.551  20.088  0.00  0.00    +0.000 HD
BRANCH  12  16
ATOM     16  C   UNL     1       6.638   4.263  16.975  0.00  0.00    +0.000 C 
BRANCH  16  18
ATOM     17  N   UNL     1       7.537   5.361  14.583  0.00  0.00    +0.000 NA
ATOM     18  C   UNL     1       7.129   4.863  15.667  0.00  0.00    +0.000 C 
ENDBRANCH  16  18
ENDBRANCH  12  16
ENDBRANCH   1  14
BRANCH   2  19
ATOM     19  C   UNL     1       3.141   2.909  19.485  0.00  0.00    +0.000 C 
ATOM     20 BR   UNL     1       2.395   2.745  21.275  0.00  0.00    +0.000 Br
ENDBRANCH   2  19
TORSDOF 6
ENDMDL
MODEL 9
REMARK VINA RESULT:      -6.3      3.128      4.073
REMARK  Name = 
REMARK  6 active torsions:
REMARK  status: ('A' for Active; 'I' for Inactive)
REMARK    1  A    between atoms: C_2  and  C_3
REMARK    2  A    between atoms: C_3  and  C_4
REMARK    3  A    between atoms: N_6  and  N_7
REMARK    4  A    between atoms: C_8  and  C_9
REMARK    5  A    between atoms: C_8  and  C_11
REMARK    6  A    between atoms: C_14  and  N_15
REMARK                            x       y       z     vdW  Elec       q    Type
REMARK                         _______ _______ _______ _____ _____    ______ ____
ROOT
ATOM      1  N   UNL     1       6.921   4.369  16.616  0.00  0.00    +0.000 NA
ATOM      2  C   UNL     1       5.660   4.147  16.386  0.00  0.00    +0.000 C 
ENDROOT
BRANCH   2   3
ATOM      3  C   UNL     1       4.566   4.077  17.415  0.00  0.00    +0.000 A 
ATOM      4  C   UNL     1       4.100   2.839  17.895  0.00  0.00    +0.000 A 
ATOM      5  C   UNL     1       3.135   2.781  18.907  0.00  0.00    +0.000 A 
ATOM      6  C   UNL     1       2.668   3.966  19.484  0.00  0.00    +0.000 A 
ATOM      7  C   UNL     1       3.131   5.205  19.026  0.00  0.00    +0.000 A 
ATOM      8  C   UNL     1       4.067   5.255  17.986  0.00  0.00    +0.000 A 
BRANCH   6   9
ATOM      9  N   UNL     1       1.716   3.912  20.600  0.00  0.00    +0.000 N 
ATOM     10  O   UNL     1       0.531   4.183  20.359  0.00  0.00    +0.000 OA
ATOM     11  O   UNL     1       2.155   3.591  21.713  0.00  0.00    +0.000 OA
ENDBRANCH   6   9
ENDBRANCH   2   3
BRANCH   1  14
ATOM     12  C   UNL     1       7.719   5.624  18.446  0.00  0.00    +0.000 C 
ATOM     13  O   UNL     1       8.150   5.686  19.595  0.00  0.00    +0.000 OA
ATOM     14  N   UNL     1       7.428   4.409  17.867  0.00  0.00    +0.000 N 
ATOM     15  H   UNL     1       7.590   3.566  18.400  0.00  0.00    +0.000 HD
BRANCH  12  16
ATOM     16  C   UNL     1       7.435   6.848  17.609  0.00  0.00    +0.000 C 
BRANCH  16  18
ATOM     17  N   UNL     1       8.719   9.083  18.655  0.00  0.00    +0.000 NA
ATOM     18  C   UNL     1       8.137   8.070  18.181  0.00  0.00    +0.000 C 
ENDBRANCH  16  18
ENDBRANCH  12  16
ENDBRANCH   1  14
BRANCH   2  19
ATOM     19  C   UNL     1       5.202   4.030  14.934  0.00  0.00    +0.000 C 
ATOM     20 BR   UNL     1       6.650   4.312  13.665  0.00  0.00    +0.000 Br
ENDBRANCH   2  19
TORSDOF 6
ENDMDL
