MODEL 1
REMARK VINA RESULT:      -7.0      0.000      0.000
REMARK  Name = 
REMARK  8 active torsions:
REMARK  status: ('A' for Active; 'I' for Inactive)
REMARK    1  A    between atoms: C_1  and  C_2
REMARK    2  A    between atoms: C_2  and  C_3
REMARK    3  A    between atoms: C_3  and  C_4
REMARK    4  A    between atoms: C_4  and  N_5
REMARK    5  A    between atoms: N_8  and  C_9
REMARK    6  A    between atoms: N_17  and  C_18
REMARK    7  A    between atoms: C_18  and  C_19
REMARK    8  A    between atoms: C_19  and  C_21
REMARK                            x       y       z     vdW  Elec       q    Type
REMARK                         _______ _______ _______ _____ _____    ______ ____
ROOT
ATOM      1  C   UNL     1       3.548   6.447  18.303  0.00  0.00    +0.000 A 
ATOM      2  N   UNL     1       3.427   5.678  19.423  0.00  0.00    +0.000 NA
ATOM      3  C   UNL     1       2.546   6.035  20.378  0.00  0.00    +0.000 A 
ATOM      4  N   UNL     1       1.738   7.109  20.410  0.00  0.00    +0.000 NA
ATOM      5  C   UNL     1       1.910   7.861  19.311  0.00  0.00    +0.000 A 
ATOM      6  C   UNL     1       2.766   7.623  18.247  0.00  0.00    +0.000 A 
ATOM      7  N   UNL     1       2.685   8.651  17.321  0.00  0.00    +0.000 NA
ATOM      8  C   UNL     1       1.798   9.484  17.815  0.00  0.00    +0.000 A 
ATOM      9  N   UNL     1       1.283   9.032  19.000  0.00  0.00    +0.000 N 
ENDROOT
BRANCH   1  13
ATOM     10  N   UNL     1       6.799   4.691  16.293  0.00  0.00    +0.000 NA
ATOM     11  C   UNL     1       6.883   5.909  17.135  0.00  0.00    +0.000 C 
ATOM     12  C   UNL     1       5.642   6.818  17.067  0.00  0.00    +0.000 C 
ATOM     13  N   UNL     1       4.418   6.060  17.306  0.00  0.00    +0.000 N 
ATOM     14  C   UNL     1       4.265   4.739  16.686  0.00  0.00    +0.000 C 
ATOM     15  C   UNL     1       5.595   3.942  16.734  0.00  0.00    +0.000 C 
BRANCH  10  16
ATOM     16  C   UNL     1       6.713   4.987  14.851  0.00  0.00    +0.000 C 
BRANCH  16  17
ATOM     17  C   UNL     1       5.937   3.948  14.032  0.00  0.00    +0.000 C 
BRANCH  17  19
ATOM     18  C   UNL     1       5.751   2.681  11.869  0.00  0.00    +0.000 C 
ATOM     19  C   UNL     1       6.530   3.731  12.641  0.00  0.00    +0.000 C 
ENDBRANCH  17  19
ENDBRANCH  16  17
ENDBRANCH  10  16
ENDBRANCH   1  13
BRANCH   9  20
ATOM     20  C   UNL     1       0.290   9.707  19.810  0.00  0.00    +0.000 C 
BRANCH  20  21
ATOM     21  C   UNL     1       0.889  10.817  20.651  0.00  0.00    +0.000 C 
ATOM     22  O   UNL     1       1.321  10.620  21.789  0.00  0.00    +0.000 OA
BRANCH  21  23
ATOM     23  C   UNL     1       0.867  12.117  20.004  0.00  0.00    +0.000 A 
ATOM     24  N   UNL     1      -0.006  12.433  19.068  0.00  0.00    +0.000 NA
ATOM     25  C   UNL     1       0.153  13.761  18.727  0.00  0.00    +0.000 A 
ATOM     26  C   UNL     1       1.135  14.440  19.417  0.00  0.00    +0.000 A 
ATOM     27  S   UNL     1       1.936  13.365  20.487  0.00  0.00    +0.000 S 
ENDBRANCH  21  23
ENDBRANCH  20  21
ENDBRANCH   9  20
TORSDOF 7
ENDMDL
MODEL 2
REMARK VINA RESULT:      -6.9      1.000      1.041
REMARK  Name = 
REMARK  8 active torsions:
REMARK  status: ('A' for Active; 'I' for Inactive)
REMARK    1  A    between atoms: C_1  and  C_2
REMARK    2  A    between atoms: C_2  and  C_3
REMARK    3  A    between atoms: C_3  and  C_4
REMARK    4  A    between atoms: C_4  and  N_5
REMARK    5  A    between atoms: N_8  and  C_9
REMARK    6  A    between atoms: N_17  and  C_18
REMARK    7  A    between atoms: C_18  and  C_19
REMARK    8  A    between atoms: C_19  and  C_21
REMARK                            x       y       z     vdW  Elec       q    Type
REMARK                         _______ _______ _______ _____ _____    ______ ____
ROOT
ATOM      1  C   UNL     1       3.495   6.413  18.284  0.00  0.00    +0.000 A 
ATOM      2  N   UNL     1       3.354   5.614  19.380  0.00  0.00    +0.000 NA
ATOM      3  C   UNL     1       2.503   5.979  20.359  0.00  0.00    +0.000 A 
ATOM      4  N   UNL     1       1.746   7.088  20.437  0.00  0.00    +0.000 NA
ATOM      5  C   UNL     1       1.938   7.866  19.361  0.00  0.00    +0.000 A 
ATOM      6  C   UNL     1       2.768   7.625  18.277  0.00  0.00    +0.000 A 
ATOM      7  N   UNL     1       2.722   8.685  17.386  0.00  0.00    +0.000 NA
ATOM      8  C   UNL     1       1.880   9.541  17.919  0.00  0.00    +0.000 A 
ATOM      9  N   UNL     1       1.361   9.074  19.097  0.00  0.00    +0.000 N 
ENDROOT
BRANCH   1  13
ATOM     10  N   UNL     1       6.743   4.747  16.193  0.00  0.00    +0.000 NA
ATOM     11  C   UNL     1       6.789   6.021  16.953  0.00  0.00    +0.000 C 
ATOM     12  C   UNL     1       5.485   6.839  16.902  0.00  0.00    +0.000 C 
ATOM     13  N   UNL     1       4.333   6.020  17.262  0.00  0.00    +0.000 N 
ATOM     14  C   UNL     1       4.239   4.654  16.735  0.00  0.00    +0.000 C 
ATOM     15  C   UNL     1       5.621   3.952  16.753  0.00  0.00    +0.000 C 
BRANCH  10  16
ATOM     16  C   UNL     1       6.557   4.941  14.744  0.00  0.00    +0.000 C 
BRANCH  16  17
ATOM     17  C   UNL     1       6.039   3.705  13.997  0.00  0.00    +0.000 C 
BRANCH  17  19
ATOM     18  C   UNL     1       5.625   2.673  11.743  0.00  0.00    +0.000 C 
ATOM     19  C   UNL     1       6.423   3.706  12.519  0.00  0.00    +0.000 C 
ENDBRANCH  17  19
ENDBRANCH  16  17
ENDBRANCH  10  16
ENDBRANCH   1  13
BRANCH   9  20
ATOM     20  C   UNL     1       0.412   9.768  19.942  0.00  0.00    +0.000 C 
BRANCH  20  21
ATOM     21  C   UNL     1      -0.522  10.661  19.150  0.00  0.00    +0.000 C 
ATOM     22  O   UNL     1      -1.460  10.212  18.488  0.00  0.00    +0.000 OA
BRANCH  21  23
ATOM     23  C   UNL     1      -0.179  12.071  19.222  0.00  0.00    +0.000 A 
ATOM     24  N   UNL     1      -0.604  12.954  18.340  0.00  0.00    +0.000 NA
ATOM     25  C   UNL     1      -0.206  14.217  18.731  0.00  0.00    +0.000 A 
ATOM     26  C   UNL     1       0.502  14.278  19.913  0.00  0.00    +0.000 A 
ATOM     27  S   UNL     1       0.741  12.694  20.525  0.00  0.00    +0.000 S 
ENDBRANCH  21  23
ENDBRANCH  20  21
ENDBRANCH   9  20
TORSDOF 7
ENDMDL
MODEL 3
REMARK VINA RESULT:      -6.9      1.207      1.291
REMARK  Name = 
REMARK  8 active torsions:
REMARK  status: ('A' for Active; 'I' for Inactive)
REMARK    1  A    between atoms: C_1  and  C_2
REMARK    2  A    between atoms: C_2  and  C_3
REMARK    3  A    between atoms: C_3  and  C_4
REMARK    4  A    between atoms: C_4  and  N_5
REMARK    5  A    between atoms: N_8  and  C_9
REMARK    6  A    between atoms: N_17  and  C_18
REMARK    7  A    between atoms: C_18  and  C_19
REMARK    8  A    between atoms: C_19  and  C_21
REMARK                            x       y       z     vdW  Elec       q    Type
REMARK                         _______ _______ _______ _____ _____    ______ ____
ROOT
ATOM      1  C   UNL     1       3.624   5.718  18.495  0.00  0.00    +0.000 A 
ATOM      2  N   UNL     1       3.539   4.752  19.453  0.00  0.00    +0.000 NA
ATOM      3  C   UNL     1       2.708   4.930  20.500  0.00  0.00    +0.000 A 
ATOM      4  N   UNL     1       1.922   5.987  20.771  0.00  0.00    +0.000 NA
ATOM      5  C   UNL     1       2.059   6.931  19.827  0.00  0.00    +0.000 A 
ATOM      6  C   UNL     1       2.863   6.891  18.698  0.00  0.00    +0.000 A 
ATOM      7  N   UNL     1       2.760   8.076  17.988  0.00  0.00    +0.000 NA
ATOM      8  C   UNL     1       1.910   8.809  18.671  0.00  0.00    +0.000 A 
ATOM      9  N   UNL     1       1.441   8.146  19.773  0.00  0.00    +0.000 N 
ENDROOT
BRANCH   1  13
ATOM     10  N   UNL     1       6.771   4.373  16.048  0.00  0.00    +0.000 NA
ATOM     11  C   UNL     1       6.895   5.430  17.082  0.00  0.00    +0.000 C 
ATOM     12  C   UNL     1       5.648   6.322  17.233  0.00  0.00    +0.000 C 
ATOM     13  N   UNL     1       4.442   5.518  17.402  0.00  0.00    +0.000 N 
ATOM     14  C   UNL     1       4.262   4.321  16.574  0.00  0.00    +0.000 C 
ATOM     15  C   UNL     1       5.595   3.545  16.417  0.00  0.00    +0.000 C 
BRANCH  10  16
ATOM     16  C   UNL     1       6.608   4.910  14.685  0.00  0.00    +0.000 C 
BRANCH  16  17
ATOM     17  C   UNL     1       5.705   4.070  13.773  0.00  0.00    +0.000 C 
BRANCH  17  19
ATOM     18  C   UNL     1       5.594   2.588  11.745  0.00  0.00    +0.000 C 
ATOM     19  C   UNL     1       6.405   3.636  12.487  0.00  0.00    +0.000 C 
ENDBRANCH  17  19
ENDBRANCH  16  17
ENDBRANCH  10  16
ENDBRANCH   1  13
BRANCH   9  20
ATOM     20  C   UNL     1       0.498   8.665  20.741  0.00  0.00    +0.000 C 
BRANCH  20  21
ATOM     21  C   UNL     1       1.070   9.815  21.545  0.00  0.00    +0.000 C 
ATOM     22  O   UNL     1       1.755   9.636  22.554  0.00  0.00    +0.000 OA
BRANCH  21  23
ATOM     23  C   UNL     1       0.704  11.125  21.033  0.00  0.00    +0.000 A 
ATOM     24  N   UNL     1       1.459  12.193  21.200  0.00  0.00    +0.000 NA
ATOM     25  C   UNL     1       0.904  13.254  20.513  0.00  0.00    +0.000 A 
ATOM     26  C   UNL     1      -0.256  12.975  19.822  0.00  0.00    +0.000 A 
ATOM     27  S   UNL     1      -0.711  11.344  20.092  0.00  0.00    +0.000 S 
ENDBRANCH  21  23
ENDBRANCH  20  21
ENDBRANCH   9  20
TORSDOF 7
ENDMDL
MODEL 4
REMARK VINA RESULT:      -6.9      2.225      2.580
REMARK  Name = 
REMARK  8 active torsions:
REMARK  status: ('A' for Active; 'I' for Inactive)
REMARK    1  A    between atoms: C_1  and  C_2
REMARK    2  A    between atoms: C_2  and  C_3
REMARK    3  A    between atoms: C_3  and  C_4
REMARK    4  A    between atoms: C_4  and  N_5
REMARK    5  A    between atoms: N_8  and  C_9
REMARK    6  A    between atoms: N_17  and  C_18
REMARK    7  A    between atoms: C_18  and  C_19
REMARK    8  A    between atoms: C_19  and  C_21
REMARK                            x       y       z     vdW  Elec       q    Type
REMARK                         _______ _______ _______ _____ _____    ______ ____
ROOT
ATOM      1  C   UNL     1       2.390   7.021  19.081  0.00  0.00    +0.000 A 
ATOM      2  N   UNL     1       2.028   6.615  20.331  0.00  0.00    +0.000 NA
ATOM      3  C   UNL     1       1.340   7.458  21.126  0.00  0.00    +0.000 A 
ATOM      4  N   UNL     1       0.955   8.721  20.870  0.00  0.00    +0.000 NA
ATOM      5  C   UNL     1       1.360   9.097  19.646  0.00  0.00    +0.000 A 
ATOM      6  C   UNL     1       2.064   8.347  18.718  0.00  0.00    +0.000 A 
ATOM      7  N   UNL     1       2.330   9.102  17.586  0.00  0.00    +0.000 NA
ATOM      8  C   UNL     1       1.794  10.276  17.828  0.00  0.00    +0.000 A 
ATOM      9  N   UNL     1       1.173  10.309  19.047  0.00  0.00    +0.000 N 
ENDROOT
BRANCH   1  13
ATOM     10  N   UNL     1       4.681   3.769  17.711  0.00  0.00    +0.000 NA
ATOM     11  C   UNL     1       5.235   4.974  18.375  0.00  0.00    +0.000 C 
ATOM     12  C   UNL     1       4.494   6.282  18.041  0.00  0.00    +0.000 C 
ATOM     13  N   UNL     1       3.057   6.144  18.250  0.00  0.00    +0.000 N 
ATOM     14  C   UNL     1       2.389   4.914  17.812  0.00  0.00    +0.000 C 
ATOM     15  C   UNL     1       3.257   3.666  18.120  0.00  0.00    +0.000 C 
BRANCH  10  16
ATOM     16  C   UNL     1       4.786   3.816  16.241  0.00  0.00    +0.000 C 
BRANCH  16  17
ATOM     17  C   UNL     1       6.214   3.990  15.709  0.00  0.00    +0.000 C 
BRANCH  17  19
ATOM     18  C   UNL     1       6.110   3.670  13.218  0.00  0.00    +0.000 C 
ATOM     19  C   UNL     1       6.255   4.677  14.346  0.00  0.00    +0.000 C 
ENDBRANCH  17  19
ENDBRANCH  16  17
ENDBRANCH  10  16
ENDBRANCH   1  13
BRANCH   9  20
ATOM     20  C   UNL     1       0.488  11.448  19.623  0.00  0.00    +0.000 C 
BRANCH  20  21
ATOM     21  C   UNL     1      -1.016  11.264  19.652  0.00  0.00    +0.000 C 
ATOM     22  O   UNL     1      -1.631  10.730  18.726  0.00  0.00    +0.000 OA
BRANCH  21  23
ATOM     23  C   UNL     1      -1.647  11.805  20.843  0.00  0.00    +0.000 A 
ATOM     24  N   UNL     1      -2.738  12.543  20.799  0.00  0.00    +0.000 NA
ATOM     25  C   UNL     1      -3.157  12.815  22.086  0.00  0.00    +0.000 A 
ATOM     26  C   UNL     1      -2.387  12.267  23.090  0.00  0.00    +0.000 A 
ATOM     27  S   UNL     1      -1.051  11.437  22.406  0.00  0.00    +0.000 S 
ENDBRANCH  21  23
ENDBRANCH  20  21
ENDBRANCH   9  20
TORSDOF 7
ENDMDL
MODEL 5
REMARK VINA RESULT:      -6.8      1.094      1.336
REMARK  Name = 
REMARK  8 active torsions:
REMARK  status: ('A' for Active; 'I' for Inactive)
REMARK    1  A    between atoms: C_1  and  C_2
REMARK    2  A    between atoms: C_2  and  C_3
REMARK    3  A    between atoms: C_3  and  C_4
REMARK    4  A    between atoms: C_4  and  N_5
REMARK    5  A    between atoms: N_8  and  C_9
REMARK    6  A    between atoms: N_17  and  C_18
REMARK    7  A    between atoms: C_18  and  C_19
REMARK    8  A    between atoms: C_19  and  C_21
REMARK                            x       y       z     vdW  Elec       q    Type
REMARK                         _______ _______ _______ _____ _____    ______ ____
ROOT
ATOM      1  C   UNL     1       3.488   6.035  18.955  0.00  0.00    +0.000 A 
ATOM      2  N   UNL     1       3.101   5.293  20.032  0.00  0.00    +0.000 NA
ATOM      3  C   UNL     1       2.107   5.744  20.823  0.00  0.00    +0.000 A 
ATOM      4  N   UNL     1       1.414   6.892  20.720  0.00  0.00    +0.000 NA
ATOM      5  C   UNL     1       1.846   7.611  19.672  0.00  0.00    +0.000 A 
ATOM      6  C   UNL     1       2.846   7.280  18.771  0.00  0.00    +0.000 A 
ATOM      7  N   UNL     1       3.026   8.301  17.851  0.00  0.00    +0.000 NA
ATOM      8  C   UNL     1       2.152   9.221  18.189  0.00  0.00    +0.000 A 
ATOM      9  N   UNL     1       1.399   8.834  19.264  0.00  0.00    +0.000 N 
ENDROOT
BRANCH   1  13
ATOM     10  N   UNL     1       7.075   5.702  16.784  0.00  0.00    +0.000 NA
ATOM     11  C   UNL     1       5.945   6.591  16.419  0.00  0.00    +0.000 C 
ATOM     12  C   UNL     1       4.553   6.014  16.737  0.00  0.00    +0.000 C 
ATOM     13  N   UNL     1       4.475   5.554  18.120  0.00  0.00    +0.000 N 
ATOM     14  C   UNL     1       5.607   4.816  18.690  0.00  0.00    +0.000 C 
ATOM     15  C   UNL     1       6.958   5.429  18.238  0.00  0.00    +0.000 C 
BRANCH  10  16
ATOM     16  C   UNL     1       7.086   4.436  16.027  0.00  0.00    +0.000 C 
BRANCH  16  17
ATOM     17  C   UNL     1       7.080   4.605  14.503  0.00  0.00    +0.000 C 
BRANCH  17  19
ATOM     18  C   UNL     1       6.242   3.537  12.387  0.00  0.00    +0.000 C 
ATOM     19  C   UNL     1       5.921   3.869  13.834  0.00  0.00    +0.000 C 
ENDBRANCH  17  19
ENDBRANCH  16  17
ENDBRANCH  10  16
ENDBRANCH   1  13
BRANCH   9  20
ATOM     20  C   UNL     1       0.352   9.611  19.894  0.00  0.00    +0.000 C 
BRANCH  20  21
ATOM     21  C   UNL     1       0.891  10.565  20.941  0.00  0.00    +0.000 C 
ATOM     22  O   UNL     1       1.156  10.201  22.089  0.00  0.00    +0.000 OA
BRANCH  21  23
ATOM     23  C   UNL     1       1.025  11.933  20.471  0.00  0.00    +0.000 A 
ATOM     24  N   UNL     1       1.844  12.803  21.028  0.00  0.00    +0.000 NA
ATOM     25  C   UNL     1       1.830  13.975  20.299  0.00  0.00    +0.000 A 
ATOM     26  C   UNL     1       1.012  13.975  19.189  0.00  0.00    +0.000 A 
ATOM     27  S   UNL     1       0.176  12.481  19.087  0.00  0.00    +0.000 S 
ENDBRANCH  21  23
ENDBRANCH  20  21
ENDBRANCH   9  20
TORSDOF 7
ENDMDL
MODEL 6
REMARK VINA RESULT:      -6.8      1.445      1.884
REMARK  Name = 
REMARK  8 active torsions:
REMARK  status: ('A' for Active; 'I' for Inactive)
REMARK    1  A    between atoms: C_1  and  C_2
REMARK    2  A    between atoms: C_2  and  C_3
REMARK    3  A    between atoms: C_3  and  C_4
REMARK    4  A    between atoms: C_4  and  N_5
REMARK    5  A    between atoms: N_8  and  C_9
REMARK    6  A    between atoms: N_17  and  C_18
REMARK    7  A    between atoms: C_18  and  C_19
REMARK    8  A    between atoms: C_19  and  C_21
REMARK                            x       y       z     vdW  Elec       q    Type
REMARK                         _______ _______ _______ _____ _____    ______ ____
ROOT
ATOM      1  C   UNL     1       3.821   5.003  18.920  0.00  0.00    +0.000 A 
ATOM      2  N   UNL     1       3.603   3.973  19.786  0.00  0.00    +0.000 NA
ATOM      3  C   UNL     1       2.679   4.109  20.758  0.00  0.00    +0.000 A 
ATOM      4  N   UNL     1       1.909   5.177  21.035  0.00  0.00    +0.000 NA
ATOM      5  C   UNL     1       2.176   6.182  20.186  0.00  0.00    +0.000 A 
ATOM      6  C   UNL     1       3.087   6.191  19.141  0.00  0.00    +0.000 A 
ATOM      7  N   UNL     1       3.100   7.430  18.520  0.00  0.00    +0.000 NA
ATOM      8  C   UNL     1       2.214   8.147  19.174  0.00  0.00    +0.000 A 
ATOM      9  N   UNL     1       1.612   7.424  20.168  0.00  0.00    +0.000 N 
ENDROOT
BRANCH   1  13
ATOM     10  N   UNL     1       6.756   5.834  16.025  0.00  0.00    +0.000 NA
ATOM     11  C   UNL     1       5.321   6.184  15.898  0.00  0.00    +0.000 C 
ATOM     12  C   UNL     1       4.357   5.158  16.525  0.00  0.00    +0.000 C 
ATOM     13  N   UNL     1       4.735   4.850  17.900  0.00  0.00    +0.000 N 
ATOM     14  C   UNL     1       6.154   4.660  18.223  0.00  0.00    +0.000 C 
ATOM     15  C   UNL     1       7.040   5.689  17.475  0.00  0.00    +0.000 C 
BRANCH  10  16
ATOM     16  C   UNL     1       7.118   4.596  15.310  0.00  0.00    +0.000 C 
BRANCH  16  17
ATOM     17  C   UNL     1       6.961   4.671  13.785  0.00  0.00    +0.000 C 
BRANCH  17  19
ATOM     18  C   UNL     1       6.379   3.063  11.943  0.00  0.00    +0.000 C 
ATOM     19  C   UNL     1       5.923   3.687  13.251  0.00  0.00    +0.000 C 
ENDBRANCH  17  19
ENDBRANCH  16  17
ENDBRANCH  10  16
ENDBRANCH   1  13
BRANCH   9  20
ATOM     20  C   UNL     1       0.596   7.912  21.078  0.00  0.00    +0.000 C 
BRANCH  20  21
ATOM     21  C   UNL     1       0.897   9.308  21.584  0.00  0.00    +0.000 C 
ATOM     22  O   UNL     1       1.545   9.510  22.614  0.00  0.00    +0.000 OA
BRANCH  21  23
ATOM     23  C   UNL     1       0.322  10.362  20.766  0.00  0.00    +0.000 A 
ATOM     24  N   UNL     1      -0.759  10.186  20.033  0.00  0.00    +0.000 NA
ATOM     25  C   UNL     1      -1.121  11.388  19.459  0.00  0.00    +0.000 A 
ATOM     26  C   UNL     1      -0.318  12.464  19.775  0.00  0.00    +0.000 A 
ATOM     27  S   UNL     1       0.977  11.945  20.772  0.00  0.00    +0.000 S 
ENDBRANCH  21  23
ENDBRANCH  20  21
ENDBRANCH   9  20
TORSDOF 7
ENDMDL
MODEL 7
REMARK VINA RESULT:      -6.8      3.351      8.751
REMARK  Name = 
REMARK  8 active torsions:
REMARK  status: ('A' for Active; 'I' for Inactive)
REMARK    1  A    between atoms: C_1  and  C_2
REMARK    2  A    between atoms: C_2  and  C_3
REMARK    3  A    between atoms: C_3  and  C_4
REMARK    4  A    between atoms: C_4  and  N_5
REMARK    5  A    between atoms: N_8  and  C_9
REMARK    6  A    between atoms: N_17  and  C_18
REMARK    7  A    between atoms: C_18  and  C_19
REMARK    8  A    between atoms: C_19  and  C_21
REMARK                            x       y       z     vdW  Elec       q    Type
REMARK                         _______ _______ _______ _____ _____    ______ ____
ROOT
ATOM      1  C   UNL     1       2.437   6.814  19.331  0.00  0.00    +0.000 A 
ATOM      2  N   UNL     1       1.953   5.724  19.992  0.00  0.00    +0.000 NA
ATOM      3  C   UNL     1       2.417   4.499  19.677  0.00  0.00    +0.000 A 
ATOM      4  N   UNL     1       3.321   4.164  18.738  0.00  0.00    +0.000 NA
ATOM      5  C   UNL     1       3.747   5.257  18.085  0.00  0.00    +0.000 A 
ATOM      6  C   UNL     1       3.371   6.573  18.297  0.00  0.00    +0.000 A 
ATOM      7  N   UNL     1       4.003   7.411  17.392  0.00  0.00    +0.000 NA
ATOM      8  C   UNL     1       4.746   6.616  16.657  0.00  0.00    +0.000 A 
ATOM      9  N   UNL     1       4.645   5.311  17.059  0.00  0.00    +0.000 N 
ENDROOT
BRANCH   1  13
ATOM     10  N   UNL     1      -0.075  10.105  20.076  0.00  0.00    +0.000 NA
ATOM     11  C   UNL     1       0.333   9.640  18.727  0.00  0.00    +0.000 C 
ATOM     12  C   UNL     1       1.767   9.082  18.654  0.00  0.00    +0.000 C 
ATOM     13  N   UNL     1       1.994   8.072  19.682  0.00  0.00    +0.000 N 
ATOM     14  C   UNL     1       1.479   8.305  21.036  0.00  0.00    +0.000 C 
ATOM     15  C   UNL     1       0.068   8.946  20.994  0.00  0.00    +0.000 C 
BRANCH  10  16
ATOM     16  C   UNL     1       0.724  11.243  20.565  0.00  0.00    +0.000 C 
BRANCH  16  17
ATOM     17  C   UNL     1       0.074  12.616  20.352  0.00  0.00    +0.000 C 
BRANCH  17  19
ATOM     18  C   UNL     1      -0.140  14.551  18.762  0.00  0.00    +0.000 C 
ATOM     19  C   UNL     1       0.755  13.425  19.250  0.00  0.00    +0.000 C 
ENDBRANCH  17  19
ENDBRANCH  16  17
ENDBRANCH  10  16
ENDBRANCH   1  13
BRANCH   9  20
ATOM     20  C   UNL     1       5.326   4.181  16.461  0.00  0.00    +0.000 C 
BRANCH  20  21
ATOM     21  C   UNL     1       6.763   4.499  16.099  0.00  0.00    +0.000 C 
ATOM     22  O   UNL     1       7.643   4.631  16.952  0.00  0.00    +0.000 OA
BRANCH  21  23
ATOM     23  C   UNL     1       6.981   4.664  14.672  0.00  0.00    +0.000 A 
ATOM     24  N   UNL     1       7.900   5.472  14.180  0.00  0.00    +0.000 NA
ATOM     25  C   UNL     1       7.941   5.332  12.807  0.00  0.00    +0.000 A 
ATOM     26  C   UNL     1       7.063   4.410  12.276  0.00  0.00    +0.000 A 
ATOM     27  S   UNL     1       6.103   3.739  13.528  0.00  0.00    +0.000 S 
ENDBRANCH  21  23
ENDBRANCH  20  21
ENDBRANCH   9  20
TORSDOF 7
ENDMDL
MODEL 8
REMARK VINA RESULT:      -6.8      1.967      2.194
REMARK  Name = 
REMARK  8 active torsions:
REMARK  status: ('A' for Active; 'I' for Inactive)
REMARK    1  A    between atoms: C_1  and  C_2
REMARK    2  A    between atoms: C_2  and  C_3
REMARK    3  A    between atoms: C_3  and  C_4
REMARK    4  A    between atoms: C_4  and  N_5
REMARK    5  A    between atoms: N_8  and  C_9
REMARK    6  A    between atoms: N_17  and  C_18
REMARK    7  A    between atoms: C_18  and  C_19
REMARK    8  A    between atoms: C_19  and  C_21
REMARK                            x       y       z     vdW  Elec       q    Type
REMARK                         _______ _______ _______ _____ _____    ______ ____
ROOT
ATOM      1  C   UNL     1       2.994   6.366  18.549  0.00  0.00    +0.000 A 
ATOM      2  N   UNL     1       2.757   5.703  19.717  0.00  0.00    +0.000 NA
ATOM      3  C   UNL     1       1.990   6.281  20.663  0.00  0.00    +0.000 A 
ATOM      4  N   UNL     1       1.408   7.494  20.639  0.00  0.00    +0.000 NA
ATOM      5  C   UNL     1       1.693   8.131  19.493  0.00  0.00    +0.000 A 
ATOM      6  C   UNL     1       2.456   7.668  18.432  0.00  0.00    +0.000 A 
ATOM      7  N   UNL     1       2.550   8.636  17.444  0.00  0.00    +0.000 NA
ATOM      8  C   UNL     1       1.857   9.654  17.899  0.00  0.00    +0.000 A 
ATOM      9  N   UNL     1       1.298   9.382  19.119  0.00  0.00    +0.000 N 
ENDROOT
BRANCH   1  13
ATOM     10  N   UNL     1       5.885   4.007  16.607  0.00  0.00    +0.000 NA
ATOM     11  C   UNL     1       6.159   5.305  17.271  0.00  0.00    +0.000 C 
ATOM     12  C   UNL     1       5.019   6.334  17.153  0.00  0.00    +0.000 C 
ATOM     13  N   UNL     1       3.742   5.758  17.564  0.00  0.00    +0.000 N 
ATOM     14  C   UNL     1       3.406   4.395  17.138  0.00  0.00    +0.000 C 
ATOM     15  C   UNL     1       4.644   3.464  17.216  0.00  0.00    +0.000 C 
BRANCH  10  16
ATOM     16  C   UNL     1       5.726   4.124  15.146  0.00  0.00    +0.000 C 
BRANCH  16  17
ATOM     17  C   UNL     1       6.980   4.604  14.405  0.00  0.00    +0.000 C 
BRANCH  17  19
ATOM     18  C   UNL     1       5.890   3.362  12.511  0.00  0.00    +0.000 C 
ATOM     19  C   UNL     1       6.854   4.473  12.888  0.00  0.00    +0.000 C 
ENDBRANCH  17  19
ENDBRANCH  16  17
ENDBRANCH  10  16
ENDBRANCH   1  13
BRANCH   9  20
ATOM     20  C   UNL     1       0.480  10.286  19.901  0.00  0.00    +0.000 C 
BRANCH  20  21
ATOM     21  C   UNL     1      -0.018  11.464  19.087  0.00  0.00    +0.000 C 
ATOM     22  O   UNL     1       0.642  12.496  18.950  0.00  0.00    +0.000 OA
BRANCH  21  23
ATOM     23  C   UNL     1      -1.345  11.267  18.528  0.00  0.00    +0.000 A 
ATOM     24  N   UNL     1      -1.582  10.446  17.525  0.00  0.00    +0.000 NA
ATOM     25  C   UNL     1      -2.942  10.392  17.292  0.00  0.00    +0.000 A 
ATOM     26  C   UNL     1      -3.720  11.162  18.130  0.00  0.00    +0.000 A 
ATOM     27  S   UNL     1      -2.715  12.039  19.208  0.00  0.00    +0.000 S 
ENDBRANCH  21  23
ENDBRANCH  20  21
ENDBRANCH   9  20
TORSDOF 7
ENDMDL
MODEL 9
REMARK VINA RESULT:      -6.7      2.444      2.845
REMARK  Name = 
REMARK  8 active torsions:
REMARK  status: ('A' for Active; 'I' for Inactive)
REMARK    1  A    between atoms: C_1  and  C_2
REMARK    2  A    between atoms: C_2  and  C_3
REMARK    3  A    between atoms: C_3  and  C_4
REMARK    4  A    between atoms: C_4  and  N_5
REMARK    5  A    between atoms: N_8  and  C_9
REMARK    6  A    between atoms: N_17  and  C_18
REMARK    7  A    between atoms: C_18  and  C_19
REMARK    8  A    between atoms: C_19  and  C_21
REMARK                            x       y       z     vdW  Elec       q    Type
REMARK                         _______ _______ _______ _____ _____    ______ ____
ROOT
ATOM      1  C   UNL     1       2.300   7.329  18.971  0.00  0.00    +0.000 A 
ATOM      2  N   UNL     1       2.019   6.890  20.231  0.00  0.00    +0.000 NA
ATOM      3  C   UNL     1       1.313   7.679  21.064  0.00  0.00    +0.000 A 
ATOM      4  N   UNL     1       0.836   8.917  20.838  0.00  0.00    +0.000 NA
ATOM      5  C   UNL     1       1.163   9.329  19.603  0.00  0.00    +0.000 A 
ATOM      6  C   UNL     1       1.873   8.634  18.637  0.00  0.00    +0.000 A 
ATOM      7  N   UNL     1       2.041   9.414  17.504  0.00  0.00    +0.000 NA
ATOM      8  C   UNL     1       1.441  10.549  17.781  0.00  0.00    +0.000 A 
ATOM      9  N   UNL     1       0.872  10.531  19.026  0.00  0.00    +0.000 N 
ENDROOT
BRANCH   1  13
ATOM     10  N   UNL     1       5.063   4.554  17.433  0.00  0.00    +0.000 NA
ATOM     11  C   UNL     1       5.378   5.964  17.770  0.00  0.00    +0.000 C 
ATOM     12  C   UNL     1       4.232   6.956  17.495  0.00  0.00    +0.000 C 
ATOM     13  N   UNL     1       2.985   6.505  18.103  0.00  0.00    +0.000 N 
ATOM     14  C   UNL     1       2.623   5.086  18.016  0.00  0.00    +0.000 C 
ATOM     15  C   UNL     1       3.864   4.179  18.224  0.00  0.00    +0.000 C 
BRANCH  10  16
ATOM     16  C   UNL     1       4.812   4.343  15.996  0.00  0.00    +0.000 C 
BRANCH  16  17
ATOM     17  C   UNL     1       5.879   4.937  15.068  0.00  0.00    +0.000 C 
BRANCH  17  19
ATOM     18  C   UNL     1       5.497   3.690  12.919  0.00  0.00    +0.000 C 
ATOM     19  C   UNL     1       6.443   3.912  14.087  0.00  0.00    +0.000 C 
ENDBRANCH  17  19
ENDBRANCH  16  17
ENDBRANCH  10  16
ENDBRANCH   1  13
BRANCH   9  20
ATOM     20  C   UNL     1       0.141  11.618  19.644  0.00  0.00    +0.000 C 
BRANCH  20  21
ATOM     21  C   UNL     1      -0.678  12.406  18.642  0.00  0.00    +0.000 C 
ATOM     22  O   UNL     1      -0.262  13.444  18.122  0.00  0.00    +0.000 OA
BRANCH  21  23
ATOM     23  C   UNL     1      -1.993  11.842  18.391  0.00  0.00    +0.000 A 
ATOM     24  N   UNL     1      -3.028  12.067  19.177  0.00  0.00    +0.000 NA
ATOM     25  C   UNL     1      -4.154  11.490  18.624  0.00  0.00    +0.000 A 
ATOM     26  C   UNL     1      -3.962  10.848  17.419  0.00  0.00    +0.000 A 
ATOM     27  S   UNL     1      -2.303  10.906  16.990  0.00  0.00    +0.000 S 
ENDBRANCH  21  23
ENDBRANCH  20  21
ENDBRANCH   9  20
TORSDOF 7
ENDMDL
