MODEL 1
REMARK VINA RESULT:      -6.7      0.000      0.000
REMARK  Name = 
REMARK  14 active torsions:
REMARK  status: ('A' for Active; 'I' for Inactive)
REMARK    1  A    between atoms: C_1  and  C_2
REMARK    2  A    between atoms: N_4  and  C_5
REMARK    3  A    between atoms: C_5  and  C_6
REMARK    4  A    between atoms: C_8  and  C_9
REMARK    5  A    between atoms: C_10  and  C_11
REMARK    6  A    between atoms: C_11  and  C_12
REMARK    7  A    between atoms: N_14  and  C_15
REMARK    8  A    between atoms: C_15  and  C_16
REMARK    9  A    between atoms: C_16  and  N_17
REMARK   10  A    between atoms: N_17  and  C_18
REMARK   11  A    between atoms: N_17  and  C_19
REMARK   12  A    between atoms: C_21  and  C_22
REMARK   13  A    between atoms: C_22  and  C_23
REMARK   14  A    between atoms: C_22  and  C_24
REMARK                            x       y       z     vdW  Elec       q    Type
REMARK                         _______ _______ _______ _____ _____    ______ ____
ROOT
ATOM      1  C   UNL     1       4.780   6.648  17.447  0.00  0.00    +0.000 C 
ATOM      2  C   UNL     1       4.858   5.983  16.091  0.00  0.00    +0.000 C 
ATOM      3  C   UNL     1       5.133   4.681  15.898  0.00  0.00    +0.000 C 
ATOM      4  C   UNL     1       5.395   4.166  14.507  0.00  0.00    +0.000 C 
ATOM      5  C   UNL     1       5.296   3.692  17.056  0.00  0.00    +0.000 C 
ATOM      6  C   UNL     1       5.124   4.361  18.445  0.00  0.00    +0.000 C 
ATOM      7  C   UNL     1       5.595   5.833  18.497  0.00  0.00    +0.000 C 
ENDROOT
BRANCH   7   8
ATOM      8  C   UNL     1       7.148   5.970  18.313  0.00  0.00    +0.000 C 
ATOM      9  C   UNL     1       7.917   5.684  19.611  0.00  0.00    +0.000 C 
ATOM     10  C   UNL     1       7.560   7.366  17.821  0.00  0.00    +0.000 C 
ENDBRANCH   7   8
BRANCH   1  11
ATOM     11  C   UNL     1       3.314   6.883  17.875  0.00  0.00    +0.000 C 
BRANCH  11  15
ATOM     12  C   UNL     1       1.676  10.303  18.091  0.00  0.00    +0.000 C 
ATOM     13  C   UNL     1       2.054   8.916  18.544  0.00  0.00    +0.000 C 
ATOM     14  O   UNL     1       1.619   8.419  19.575  0.00  0.00    +0.000 OA
ATOM     15  N   UNL     1       2.882   8.258  17.663  0.00  0.00    +0.000 N 
ATOM     16  H   UNL     1       3.334   8.784  16.926  0.00  0.00    +0.000 HD
ENDBRANCH  11  15
ENDBRANCH   1  11
BRANCH   5  17
ATOM     17  C   UNL     1       4.325   2.497  16.920  0.00  0.00    +0.000 C 
BRANCH  17  18
ATOM     18  C   UNL     1       2.899   2.832  17.308  0.00  0.00    +0.000 C 
ATOM     19  O   UNL     1       2.283   3.749  16.774  0.00  0.00    +0.000 OA
ATOM     20  N   UNL     1       2.373   2.046  18.303  0.00  0.00    +0.000 N 
ATOM     21  H   UNL     1       2.782   1.133  18.463  0.00  0.00    +0.000 HD
BRANCH  20  22
ATOM     22  C   UNL     1       1.012   2.231  18.773  0.00  0.00    +0.000 C 
BRANCH  22  23
ATOM     23  C   UNL     1       0.894   3.356  19.819  0.00  0.00    +0.000 C 
BRANCH  23  24
ATOM     24  N   UNL     1       2.128   3.607  20.603  0.00  0.00    +0.000 NA
ATOM     25  C   UNL     1       2.291   5.026  20.932  0.00  0.00    +0.000 C 
ATOM     26  C   UNL     1       2.074   2.826  21.846  0.00  0.00    +0.000 C 
ENDBRANCH  23  24
ENDBRANCH  22  23
ENDBRANCH  20  22
ENDBRANCH  17  18
ENDBRANCH   5  17
TORSDOF 8
ENDMDL
MODEL 2
REMARK VINA RESULT:      -6.6      0.800      1.056
REMARK  Name = 
REMARK  14 active torsions:
REMARK  status: ('A' for Active; 'I' for Inactive)
REMARK    1  A    between atoms: C_1  and  C_2
REMARK    2  A    between atoms: N_4  and  C_5
REMARK    3  A    between atoms: C_5  and  C_6
REMARK    4  A    between atoms: C_8  and  C_9
REMARK    5  A    between atoms: C_10  and  C_11
REMARK    6  A    between atoms: C_11  and  C_12
REMARK    7  A    between atoms: N_14  and  C_15
REMARK    8  A    between atoms: C_15  and  C_16
REMARK    9  A    between atoms: C_16  and  N_17
REMARK   10  A    between atoms: N_17  and  C_18
REMARK   11  A    between atoms: N_17  and  C_19
REMARK   12  A    between atoms: C_21  and  C_22
REMARK   13  A    between atoms: C_22  and  C_23
REMARK   14  A    between atoms: C_22  and  C_24
REMARK                            x       y       z     vdW  Elec       q    Type
REMARK                         _______ _______ _______ _____ _____    ______ ____
ROOT
ATOM      1  C   UNL     1       4.841   6.694  17.407  0.00  0.00    +0.000 C 
ATOM      2  C   UNL     1       4.935   6.073  16.031  0.00  0.00    +0.000 C 
ATOM      3  C   UNL     1       5.222   4.780  15.800  0.00  0.00    +0.000 C 
ATOM      4  C   UNL     1       5.498   4.311  14.395  0.00  0.00    +0.000 C 
ATOM      5  C   UNL     1       5.386   3.757  16.928  0.00  0.00    +0.000 C 
ATOM      6  C   UNL     1       5.198   4.381  18.336  0.00  0.00    +0.000 C 
ATOM      7  C   UNL     1       5.656   5.854  18.437  0.00  0.00    +0.000 C 
ENDROOT
BRANCH   7   8
ATOM      8  C   UNL     1       7.209   6.010  18.269  0.00  0.00    +0.000 C 
ATOM      9  C   UNL     1       7.971   5.698  19.564  0.00  0.00    +0.000 C 
ATOM     10  C   UNL     1       7.611   7.422  17.816  0.00  0.00    +0.000 C 
ENDBRANCH   7   8
BRANCH   1  11
ATOM     11  C   UNL     1       3.370   6.903  17.832  0.00  0.00    +0.000 C 
BRANCH  11  15
ATOM     12  C   UNL     1       1.685  10.299  18.078  0.00  0.00    +0.000 C 
ATOM     13  C   UNL     1       2.083   8.913  18.518  0.00  0.00    +0.000 C 
ATOM     14  O   UNL     1       1.656   8.402  19.546  0.00  0.00    +0.000 OA
ATOM     15  N   UNL     1       2.918   8.274  17.631  0.00  0.00    +0.000 N 
ATOM     16  H   UNL     1       3.362   8.812  16.898  0.00  0.00    +0.000 HD
ENDBRANCH  11  15
ENDBRANCH   1  11
BRANCH   5  17
ATOM     17  C   UNL     1       4.426   2.558  16.747  0.00  0.00    +0.000 C 
BRANCH  17  18
ATOM     18  C   UNL     1       3.611   2.247  17.987  0.00  0.00    +0.000 C 
ATOM     19  O   UNL     1       4.129   1.796  19.004  0.00  0.00    +0.000 OA
ATOM     20  N   UNL     1       2.266   2.494  17.868  0.00  0.00    +0.000 N 
ATOM     21  H   UNL     1       1.956   3.151  17.163  0.00  0.00    +0.000 HD
BRANCH  20  22
ATOM     22  C   UNL     1       1.355   2.263  18.975  0.00  0.00    +0.000 C 
BRANCH  22  23
ATOM     23  C   UNL     1       0.813   3.573  19.579  0.00  0.00    +0.000 C 
BRANCH  23  24
ATOM     24  N   UNL     1       1.325   3.891  20.935  0.00  0.00    +0.000 NA
ATOM     25  C   UNL     1       1.887   2.713  21.600  0.00  0.00    +0.000 C 
ATOM     26  C   UNL     1       2.361   4.926  20.825  0.00  0.00    +0.000 C 
ENDBRANCH  23  24
ENDBRANCH  22  23
ENDBRANCH  20  22
ENDBRANCH  17  18
ENDBRANCH   5  17
TORSDOF 8
ENDMDL
MODEL 3
REMARK VINA RESULT:      -6.6      3.027      5.845
REMARK  Name = 
REMARK  14 active torsions:
REMARK  status: ('A' for Active; 'I' for Inactive)
REMARK    1  A    between atoms: C_1  and  C_2
REMARK    2  A    between atoms: N_4  and  C_5
REMARK    3  A    between atoms: C_5  and  C_6
REMARK    4  A    between atoms: C_8  and  C_9
REMARK    5  A    between atoms: C_10  and  C_11
REMARK    6  A    between atoms: C_11  and  C_12
REMARK    7  A    between atoms: N_14  and  C_15
REMARK    8  A    between atoms: C_15  and  C_16
REMARK    9  A    between atoms: C_16  and  N_17
REMARK   10  A    between atoms: N_17  and  C_18
REMARK   11  A    between atoms: N_17  and  C_19
REMARK   12  A    between atoms: C_21  and  C_22
REMARK   13  A    between atoms: C_22  and  C_23
REMARK   14  A    between atoms: C_22  and  C_24
REMARK                            x       y       z     vdW  Elec       q    Type
REMARK                         _______ _______ _______ _____ _____    ______ ____
ROOT
ATOM      1  C   UNL     1       2.794   5.592  19.746  0.00  0.00    +0.000 C 
ATOM      2  C   UNL     1       4.303   5.685  19.792  0.00  0.00    +0.000 C 
ATOM      3  C   UNL     1       5.113   5.412  18.755  0.00  0.00    +0.000 C 
ATOM      4  C   UNL     1       6.603   5.332  18.966  0.00  0.00    +0.000 C 
ATOM      5  C   UNL     1       4.581   5.071  17.360  0.00  0.00    +0.000 C 
ATOM      6  C   UNL     1       3.031   5.066  17.294  0.00  0.00    +0.000 C 
ATOM      7  C   UNL     1       2.347   4.624  18.608  0.00  0.00    +0.000 C 
ENDROOT
BRANCH   7   8
ATOM      8  C   UNL     1       2.616   3.114  18.943  0.00  0.00    +0.000 C 
ATOM      9  C   UNL     1       2.436   2.203  17.720  0.00  0.00    +0.000 C 
ATOM     10  C   UNL     1       1.700   2.587  20.059  0.00  0.00    +0.000 C 
ENDBRANCH   7   8
BRANCH   1  11
ATOM     11  C   UNL     1       2.145   6.990  19.634  0.00  0.00    +0.000 C 
BRANCH  11  15
ATOM     12  C   UNL     1       0.995   9.184  22.513  0.00  0.00    +0.000 C 
ATOM     13  C   UNL     1       1.055   8.676  21.095  0.00  0.00    +0.000 C 
ATOM     14  O   UNL     1       0.449   9.215  20.177  0.00  0.00    +0.000 OA
ATOM     15  N   UNL     1       1.891   7.595  20.935  0.00  0.00    +0.000 N 
ATOM     16  H   UNL     1       2.222   7.103  21.754  0.00  0.00    +0.000 HD
ENDBRANCH  11  15
ENDBRANCH   1  11
BRANCH   5  17
ATOM     17  C   UNL     1       5.154   6.026  16.288  0.00  0.00    +0.000 C 
BRANCH  17  18
ATOM     18  C   UNL     1       6.146   5.359  15.356  0.00  0.00    +0.000 C 
ATOM     19  O   UNL     1       7.293   5.777  15.228  0.00  0.00    +0.000 OA
ATOM     20  N   UNL     1       5.653   4.278  14.667  0.00  0.00    +0.000 N 
ATOM     21  H   UNL     1       4.848   3.794  15.044  0.00  0.00    +0.000 HD
BRANCH  20  22
ATOM     22  C   UNL     1       6.487   3.523  13.750  0.00  0.00    +0.000 C 
BRANCH  22  23
ATOM     23  C   UNL     1       6.026   3.653  12.286  0.00  0.00    +0.000 C 
BRANCH  23  24
ATOM     24  N   UNL     1       5.082   2.600  11.836  0.00  0.00    +0.000 NA
ATOM     25  C   UNL     1       4.050   3.134  10.941  0.00  0.00    +0.000 C 
ATOM     26  C   UNL     1       5.833   1.550  11.136  0.00  0.00    +0.000 C 
ENDBRANCH  23  24
ENDBRANCH  22  23
ENDBRANCH  20  22
ENDBRANCH  17  18
ENDBRANCH   5  17
TORSDOF 8
ENDMDL
MODEL 4
REMARK VINA RESULT:      -6.6      2.519      5.890
REMARK  Name = 
REMARK  14 active torsions:
REMARK  status: ('A' for Active; 'I' for Inactive)
REMARK    1  A    between atoms: C_1  and  C_2
REMARK    2  A    between atoms: N_4  and  C_5
REMARK    3  A    between atoms: C_5  and  C_6
REMARK    4  A    between atoms: C_8  and  C_9
REMARK    5  A    between atoms: C_10  and  C_11
REMARK    6  A    between atoms: C_11  and  C_12
REMARK    7  A    between atoms: N_14  and  C_15
REMARK    8  A    between atoms: C_15  and  C_16
REMARK    9  A    between atoms: C_16  and  N_17
REMARK   10  A    between atoms: N_17  and  C_18
REMARK   11  A    between atoms: N_17  and  C_19
REMARK   12  A    between atoms: C_21  and  C_22
REMARK   13  A    between atoms: C_22  and  C_23
REMARK   14  A    between atoms: C_22  and  C_24
REMARK                            x       y       z     vdW  Elec       q    Type
REMARK                         _______ _______ _______ _____ _____    ______ ____
ROOT
ATOM      1  C   UNL     1       5.832   4.551  16.080  0.00  0.00    +0.000 C 
ATOM      2  C   UNL     1       4.793   3.825  16.906  0.00  0.00    +0.000 C 
ATOM      3  C   UNL     1       3.956   4.425  17.770  0.00  0.00    +0.000 C 
ATOM      4  C   UNL     1       3.107   3.592  18.695  0.00  0.00    +0.000 C 
ATOM      5  C   UNL     1       3.893   5.946  17.937  0.00  0.00    +0.000 C 
ATOM      6  C   UNL     1       4.898   6.693  17.021  0.00  0.00    +0.000 C 
ATOM      7  C   UNL     1       6.203   5.909  16.749  0.00  0.00    +0.000 C 
ENDROOT
BRANCH   7   8
ATOM      8  C   UNL     1       7.078   5.741  18.042  0.00  0.00    +0.000 C 
ATOM      9  C   UNL     1       7.949   6.974  18.323  0.00  0.00    +0.000 C 
ATOM     10  C   UNL     1       8.006   4.518  17.968  0.00  0.00    +0.000 C 
ENDBRANCH   7   8
BRANCH   1  11
ATOM     11  C   UNL     1       5.376   4.709  14.612  0.00  0.00    +0.000 C 
BRANCH  11  15
ATOM     12  C   UNL     1       6.783   2.673  11.731  0.00  0.00    +0.000 C 
ATOM     13  C   UNL     1       5.746   3.444  12.508  0.00  0.00    +0.000 C 
ATOM     14  O   UNL     1       4.582   3.533  12.140  0.00  0.00    +0.000 OA
ATOM     15  N   UNL     1       6.227   3.982  13.679  0.00  0.00    +0.000 N 
ATOM     16  H   UNL     1       7.227   4.014  13.833  0.00  0.00    +0.000 HD
ENDBRANCH  11  15
ENDBRANCH   1  11
BRANCH   5  17
ATOM     17  C   UNL     1       2.462   6.482  17.701  0.00  0.00    +0.000 C 
BRANCH  17  18
ATOM     18  C   UNL     1       2.161   7.753  18.471  0.00  0.00    +0.000 C 
ATOM     19  O   UNL     1       2.138   7.775  19.698  0.00  0.00    +0.000 OA
ATOM     20  N   UNL     1       1.904   8.852  17.689  0.00  0.00    +0.000 N 
ATOM     21  H   UNL     1       2.253   8.860  16.738  0.00  0.00    +0.000 HD
BRANCH  20  22
ATOM     22  C   UNL     1       1.616  10.148  18.279  0.00  0.00    +0.000 C 
BRANCH  22  23
ATOM     23  C   UNL     1       0.132  10.309  18.658  0.00  0.00    +0.000 C 
BRANCH  23  24
ATOM     24  N   UNL     1      -0.106  10.906  19.995  0.00  0.00    +0.000 NA
ATOM     25  C   UNL     1      -0.267   9.884  21.033  0.00  0.00    +0.000 C 
ATOM     26  C   UNL     1       1.028  11.773  20.343  0.00  0.00    +0.000 C 
ENDBRANCH  23  24
ENDBRANCH  22  23
ENDBRANCH  20  22
ENDBRANCH  17  18
ENDBRANCH   5  17
TORSDOF 8
ENDMDL
MODEL 5
REMARK VINA RESULT:      -6.5      2.847      5.772
REMARK  Name = 
REMARK  14 active torsions:
REMARK  status: ('A' for Active; 'I' for Inactive)
REMARK    1  A    between atoms: C_1  and  C_2
REMARK    2  A    between atoms: N_4  and  C_5
REMARK    3  A    between atoms: C_5  and  C_6
REMARK    4  A    between atoms: C_8  and  C_9
REMARK    5  A    between atoms: C_10  and  C_11
REMARK    6  A    between atoms: C_11  and  C_12
REMARK    7  A    between atoms: N_14  and  C_15
REMARK    8  A    between atoms: C_15  and  C_16
REMARK    9  A    between atoms: C_16  and  N_17
REMARK   10  A    between atoms: N_17  and  C_18
REMARK   11  A    between atoms: N_17  and  C_19
REMARK   12  A    between atoms: C_21  and  C_22
REMARK   13  A    between atoms: C_22  and  C_23
REMARK   14  A    between atoms: C_22  and  C_24
REMARK                            x       y       z     vdW  Elec       q    Type
REMARK                         _______ _______ _______ _____ _____    ______ ____
ROOT
ATOM      1  C   UNL     1       5.708   4.666  16.344  0.00  0.00    +0.000 C 
ATOM      2  C   UNL     1       4.750   4.041  17.334  0.00  0.00    +0.000 C 
ATOM      3  C   UNL     1       3.932   4.737  18.143  0.00  0.00    +0.000 C 
ATOM      4  C   UNL     1       3.174   4.029  19.235  0.00  0.00    +0.000 C 
ATOM      5  C   UNL     1       3.806   6.262  18.074  0.00  0.00    +0.000 C 
ATOM      6  C   UNL     1       4.723   6.892  16.994  0.00  0.00    +0.000 C 
ATOM      7  C   UNL     1       6.048   6.127  16.770  0.00  0.00    +0.000 C 
ENDROOT
BRANCH   7   8
ATOM      8  C   UNL     1       6.998   6.200  18.018  0.00  0.00    +0.000 C 
ATOM      9  C   UNL     1       7.937   7.413  17.968  0.00  0.00    +0.000 C 
ATOM     10  C   UNL     1       7.866   4.941  18.170  0.00  0.00    +0.000 C 
ENDBRANCH   7   8
BRANCH   1  11
ATOM     11  C   UNL     1       5.166   4.573  14.900  0.00  0.00    +0.000 C 
BRANCH  11  15
ATOM     12  C   UNL     1       7.053   3.160  11.921  0.00  0.00    +0.000 C 
ATOM     13  C   UNL     1       5.856   3.628  12.710  0.00  0.00    +0.000 C 
ATOM     14  O   UNL     1       4.711   3.522  12.290  0.00  0.00    +0.000 OA
ATOM     15  N   UNL     1       6.178   4.127  13.950  0.00  0.00    +0.000 N 
ATOM     16  H   UNL     1       7.145   4.341  14.160  0.00  0.00    +0.000 HD
ENDBRANCH  11  15
ENDBRANCH   1  11
BRANCH   5  17
ATOM     17  C   UNL     1       2.340   6.698  17.844  0.00  0.00    +0.000 C 
BRANCH  17  18
ATOM     18  C   UNL     1       2.061   8.123  18.279  0.00  0.00    +0.000 C 
ATOM     19  O   UNL     1       2.242   9.075  17.525  0.00  0.00    +0.000 OA
ATOM     20  N   UNL     1       1.612   8.254  19.570  0.00  0.00    +0.000 N 
ATOM     21  H   UNL     1       1.178   7.454  20.013  0.00  0.00    +0.000 HD
BRANCH  20  22
ATOM     22  C   UNL     1       1.284   9.554  20.127  0.00  0.00    +0.000 C 
BRANCH  22  23
ATOM     23  C   UNL     1       1.176   9.531  21.663  0.00  0.00    +0.000 C 
BRANCH  23  24
ATOM     24  N   UNL     1       0.292  10.572  22.241  0.00  0.00    +0.000 NA
ATOM     25  C   UNL     1      -0.439  11.309  21.206  0.00  0.00    +0.000 C 
ATOM     26  C   UNL     1      -0.670   9.935  23.151  0.00  0.00    +0.000 C 
ENDBRANCH  23  24
ENDBRANCH  22  23
ENDBRANCH  20  22
ENDBRANCH  17  18
ENDBRANCH   5  17
TORSDOF 8
ENDMDL
MODEL 6
REMARK VINA RESULT:      -6.4      2.573      6.228
REMARK  Name = 
REMARK  14 active torsions:
REMARK  status: ('A' for Active; 'I' for Inactive)
REMARK    1  A    between atoms: C_1  and  C_2
REMARK    2  A    between atoms: N_4  and  C_5
REMARK    3  A    between atoms: C_5  and  C_6
REMARK    4  A    between atoms: C_8  and  C_9
REMARK    5  A    between atoms: C_10  and  C_11
REMARK    6  A    between atoms: C_11  and  C_12
REMARK    7  A    between atoms: N_14  and  C_15
REMARK    8  A    between atoms: C_15  and  C_16
REMARK    9  A    between atoms: C_16  and  N_17
REMARK   10  A    between atoms: N_17  and  C_18
REMARK   11  A    between atoms: N_17  and  C_19
REMARK   12  A    between atoms: C_21  and  C_22
REMARK   13  A    between atoms: C_22  and  C_23
REMARK   14  A    between atoms: C_22  and  C_24
REMARK                            x       y       z     vdW  Elec       q    Type
REMARK                         _______ _______ _______ _____ _____    ______ ____
ROOT
ATOM      1  C   UNL     1       5.639   4.458  16.136  0.00  0.00    +0.000 C 
ATOM      2  C   UNL     1       4.597   3.864  17.058  0.00  0.00    +0.000 C 
ATOM      3  C   UNL     1       3.811   4.583  17.878  0.00  0.00    +0.000 C 
ATOM      4  C   UNL     1       2.957   3.884  18.904  0.00  0.00    +0.000 C 
ATOM      5  C   UNL     1       3.813   6.114  17.890  0.00  0.00    +0.000 C 
ATOM      6  C   UNL     1       4.818   6.722  16.877  0.00  0.00    +0.000 C 
ATOM      7  C   UNL     1       6.083   5.860  16.653  0.00  0.00    +0.000 C 
ENDROOT
BRANCH   7   8
ATOM      8  C   UNL     1       6.989   5.787  17.933  0.00  0.00    +0.000 C 
ATOM      9  C   UNL     1       7.837   7.052  18.123  0.00  0.00    +0.000 C 
ATOM     10  C   UNL     1       7.942   4.582  17.909  0.00  0.00    +0.000 C 
ENDBRANCH   7   8
BRANCH   1  11
ATOM     11  C   UNL     1       5.145   4.487  14.672  0.00  0.00    +0.000 C 
BRANCH  11  15
ATOM     12  C   UNL     1       6.984   2.948  11.726  0.00  0.00    +0.000 C 
ATOM     13  C   UNL     1       5.805   3.479  12.500  0.00  0.00    +0.000 C 
ATOM     14  O   UNL     1       4.658   3.415  12.076  0.00  0.00    +0.000 OA
ATOM     15  N   UNL     1       6.142   3.984  13.735  0.00  0.00    +0.000 N 
ATOM     16  H   UNL     1       7.116   4.159  13.946  0.00  0.00    +0.000 HD
ENDBRANCH  11  15
ENDBRANCH   1  11
BRANCH   5  17
ATOM     17  C   UNL     1       2.397   6.683  17.638  0.00  0.00    +0.000 C 
BRANCH  17  18
ATOM     18  C   UNL     1       2.069   7.886  18.501  0.00  0.00    +0.000 C 
ATOM     19  O   UNL     1       2.103   7.829  19.727  0.00  0.00    +0.000 OA
ATOM     20  N   UNL     1       1.722   9.017  17.806  0.00  0.00    +0.000 N 
ATOM     21  H   UNL     1       2.024   9.103  16.843  0.00  0.00    +0.000 HD
BRANCH  20  22
ATOM     22  C   UNL     1       1.397  10.255  18.491  0.00  0.00    +0.000 C 
BRANCH  22  23
ATOM     23  C   UNL     1      -0.112  10.407  18.759  0.00  0.00    +0.000 C 
BRANCH  23  24
ATOM     24  N   UNL     1      -0.657  11.762  18.501  0.00  0.00    +0.000 NA
ATOM     25  C   UNL     1      -2.003  11.712  17.925  0.00  0.00    +0.000 C 
ATOM     26  C   UNL     1      -0.698  12.511  19.764  0.00  0.00    +0.000 C 
ENDBRANCH  23  24
ENDBRANCH  22  23
ENDBRANCH  20  22
ENDBRANCH  17  18
ENDBRANCH   5  17
TORSDOF 8
ENDMDL
MODEL 7
REMARK VINA RESULT:      -6.4      2.835      6.604
REMARK  Name = 
REMARK  14 active torsions:
REMARK  status: ('A' for Active; 'I' for Inactive)
REMARK    1  A    between atoms: C_1  and  C_2
REMARK    2  A    between atoms: N_4  and  C_5
REMARK    3  A    between atoms: C_5  and  C_6
REMARK    4  A    between atoms: C_8  and  C_9
REMARK    5  A    between atoms: C_10  and  C_11
REMARK    6  A    between atoms: C_11  and  C_12
REMARK    7  A    between atoms: N_14  and  C_15
REMARK    8  A    between atoms: C_15  and  C_16
REMARK    9  A    between atoms: C_16  and  N_17
REMARK   10  A    between atoms: N_17  and  C_18
REMARK   11  A    between atoms: N_17  and  C_19
REMARK   12  A    between atoms: C_21  and  C_22
REMARK   13  A    between atoms: C_22  and  C_23
REMARK   14  A    between atoms: C_22  and  C_24
REMARK                            x       y       z     vdW  Elec       q    Type
REMARK                         _______ _______ _______ _____ _____    ______ ____
ROOT
ATOM      1  C   UNL     1       3.830   4.818  18.698  0.00  0.00    +0.000 C 
ATOM      2  C   UNL     1       3.485   6.182  18.142  0.00  0.00    +0.000 C 
ATOM      3  C   UNL     1       2.551   6.999  18.659  0.00  0.00    +0.000 C 
ATOM      4  C   UNL     1       2.139   8.239  17.910  0.00  0.00    +0.000 C 
ATOM      5  C   UNL     1       1.795   6.673  19.950  0.00  0.00    +0.000 C 
ATOM      6  C   UNL     1       2.217   5.314  20.568  0.00  0.00    +0.000 C 
ATOM      7  C   UNL     1       2.635   4.253  19.524  0.00  0.00    +0.000 C 
ENDROOT
BRANCH   7   8
ATOM      8  C   UNL     1       1.432   3.789  18.629  0.00  0.00    +0.000 C 
ATOM      9  C   UNL     1       0.631   2.648  19.272  0.00  0.00    +0.000 C 
ATOM     10  C   UNL     1       1.882   3.320  17.237  0.00  0.00    +0.000 C 
ENDBRANCH   7   8
BRANCH   1  11
ATOM     11  C   UNL     1       5.151   4.854  19.499  0.00  0.00    +0.000 C 
BRANCH  11  15
ATOM     12  C   UNL     1       8.053   7.008  18.332  0.00  0.00    +0.000 C 
ATOM     13  C   UNL     1       7.304   5.734  18.628  0.00  0.00    +0.000 C 
ATOM     14  O   UNL     1       7.814   4.628  18.509  0.00  0.00    +0.000 OA
ATOM     15  N   UNL     1       6.025   5.946  19.091  0.00  0.00    +0.000 N 
ATOM     16  H   UNL     1       5.616   6.867  19.002  0.00  0.00    +0.000 HD
ENDBRANCH  11  15
ENDBRANCH   1  11
BRANCH   5  17
ATOM     17  C   UNL     1       1.951   7.802  20.996  0.00  0.00    +0.000 C 
BRANCH  17  18
ATOM     18  C   UNL     1       0.701   8.644  21.164  0.00  0.00    +0.000 C 
ATOM     19  O   UNL     1      -0.397   8.136  21.369  0.00  0.00    +0.000 OA
ATOM     20  N   UNL     1       0.900   9.997  21.051  0.00  0.00    +0.000 N 
ATOM     21  H   UNL     1       1.830  10.363  21.212  0.00  0.00    +0.000 HD
BRANCH  20  22
ATOM     22  C   UNL     1      -0.197  10.937  21.205  0.00  0.00    +0.000 C 
BRANCH  22  23
ATOM     23  C   UNL     1      -0.609  11.590  19.872  0.00  0.00    +0.000 C 
BRANCH  23  24
ATOM     24  N   UNL     1      -1.648  10.852  19.113  0.00  0.00    +0.000 NA
ATOM     25  C   UNL     1      -2.723  11.735  18.653  0.00  0.00    +0.000 C 
ATOM     26  C   UNL     1      -1.023  10.204  17.952  0.00  0.00    +0.000 C 
ENDBRANCH  23  24
ENDBRANCH  22  23
ENDBRANCH  20  22
ENDBRANCH  17  18
ENDBRANCH   5  17
TORSDOF 8
ENDMDL
MODEL 8
REMARK VINA RESULT:      -6.4      2.902      5.922
REMARK  Name = 
REMARK  14 active torsions:
REMARK  status: ('A' for Active; 'I' for Inactive)
REMARK    1  A    between atoms: C_1  and  C_2
REMARK    2  A    between atoms: N_4  and  C_5
REMARK    3  A    between atoms: C_5  and  C_6
REMARK    4  A    between atoms: C_8  and  C_9
REMARK    5  A    between atoms: C_10  and  C_11
REMARK    6  A    between atoms: C_11  and  C_12
REMARK    7  A    between atoms: N_14  and  C_15
REMARK    8  A    between atoms: C_15  and  C_16
REMARK    9  A    between atoms: C_16  and  N_17
REMARK   10  A    between atoms: N_17  and  C_18
REMARK   11  A    between atoms: N_17  and  C_19
REMARK   12  A    between atoms: C_21  and  C_22
REMARK   13  A    between atoms: C_22  and  C_23
REMARK   14  A    between atoms: C_22  and  C_24
REMARK                            x       y       z     vdW  Elec       q    Type
REMARK                         _______ _______ _______ _____ _____    ______ ____
ROOT
ATOM      1  C   UNL     1       2.344   5.747  19.965  0.00  0.00    +0.000 C 
ATOM      2  C   UNL     1       3.851   5.615  19.972  0.00  0.00    +0.000 C 
ATOM      3  C   UNL     1       4.570   5.065  18.977  0.00  0.00    +0.000 C 
ATOM      4  C   UNL     1       6.038   4.791  19.173  0.00  0.00    +0.000 C 
ATOM      5  C   UNL     1       3.937   4.599  17.663  0.00  0.00    +0.000 C 
ATOM      6  C   UNL     1       2.402   4.821  17.623  0.00  0.00    +0.000 C 
ATOM      7  C   UNL     1       1.713   4.695  19.002  0.00  0.00    +0.000 C 
ENDROOT
BRANCH   7   8
ATOM      8  C   UNL     1       1.768   3.231  19.566  0.00  0.00    +0.000 C 
ATOM      9  C   UNL     1       0.935   2.251  18.730  0.00  0.00    +0.000 C 
ATOM     10  C   UNL     1       1.278   3.143  21.020  0.00  0.00    +0.000 C 
ENDBRANCH   7   8
BRANCH   1  11
ATOM     11  C   UNL     1       1.907   7.194  19.645  0.00  0.00    +0.000 C 
BRANCH  11  15
ATOM     12  C   UNL     1       1.053   9.389  22.624  0.00  0.00    +0.000 C 
ATOM     13  C   UNL     1       0.796   8.432  21.489  0.00  0.00    +0.000 C 
ATOM     14  O   UNL     1      -0.331   8.067  21.178  0.00  0.00    +0.000 OA
ATOM     15  N   UNL     1       1.937   8.060  20.816  0.00  0.00    +0.000 N 
ATOM     16  H   UNL     1       2.839   8.261  21.228  0.00  0.00    +0.000 HD
ENDBRANCH  11  15
ENDBRANCH   1  11
BRANCH   5  17
ATOM     17  C   UNL     1       4.602   5.280  16.444  0.00  0.00    +0.000 C 
BRANCH  17  18
ATOM     18  C   UNL     1       5.487   4.346  15.642  0.00  0.00    +0.000 C 
ATOM     19  O   UNL     1       5.781   3.226  16.050  0.00  0.00    +0.000 OA
ATOM     20  N   UNL     1       5.935   4.859  14.450  0.00  0.00    +0.000 N 
ATOM     21  H   UNL     1       5.414   5.616  14.025  0.00  0.00    +0.000 HD
BRANCH  20  22
ATOM     22  C   UNL     1       6.778   4.080  13.561  0.00  0.00    +0.000 C 
BRANCH  22  23
ATOM     23  C   UNL     1       6.173   3.930  12.152  0.00  0.00    +0.000 C 
BRANCH  23  24
ATOM     24  N   UNL     1       5.212   2.810  12.003  0.00  0.00    +0.000 NA
ATOM     25  C   UNL     1       4.050   3.187  11.194  0.00  0.00    +0.000 C 
ATOM     26  C   UNL     1       5.895   1.673  11.370  0.00  0.00    +0.000 C 
ENDBRANCH  23  24
ENDBRANCH  22  23
ENDBRANCH  20  22
ENDBRANCH  17  18
ENDBRANCH   5  17
TORSDOF 8
ENDMDL
MODEL 9
REMARK VINA RESULT:      -6.3      2.717      5.669
REMARK  Name = 
REMARK  14 active torsions:
REMARK  status: ('A' for Active; 'I' for Inactive)
REMARK    1  A    between atoms: C_1  and  C_2
REMARK    2  A    between atoms: N_4  and  C_5
REMARK    3  A    between atoms: C_5  and  C_6
REMARK    4  A    between atoms: C_8  and  C_9
REMARK    5  A    between atoms: C_10  and  C_11
REMARK    6  A    between atoms: C_11  and  C_12
REMARK    7  A    between atoms: N_14  and  C_15
REMARK    8  A    between atoms: C_15  and  C_16
REMARK    9  A    between atoms: C_16  and  N_17
REMARK   10  A    between atoms: N_17  and  C_18
REMARK   11  A    between atoms: N_17  and  C_19
REMARK   12  A    between atoms: C_21  and  C_22
REMARK   13  A    between atoms: C_22  and  C_23
REMARK   14  A    between atoms: C_22  and  C_24
REMARK                            x       y       z     vdW  Elec       q    Type
REMARK                         _______ _______ _______ _____ _____    ______ ____
ROOT
ATOM      1  C   UNL     1       6.063   4.502  17.268  0.00  0.00    +0.000 C 
ATOM      2  C   UNL     1       4.995   4.298  18.320  0.00  0.00    +0.000 C 
ATOM      3  C   UNL     1       4.132   5.248  18.721  0.00  0.00    +0.000 C 
ATOM      4  C   UNL     1       3.251   5.006  19.918  0.00  0.00    +0.000 C 
ATOM      5  C   UNL     1       4.069   6.632  18.069  0.00  0.00    +0.000 C 
ATOM      6  C   UNL     1       5.105   6.807  16.928  0.00  0.00    +0.000 C 
ATOM      7  C   UNL     1       6.416   6.015  17.143  0.00  0.00    +0.000 C 
ENDROOT
BRANCH   7   8
ATOM      8  C   UNL     1       7.249   6.557  18.359  0.00  0.00    +0.000 C 
ATOM      9  C   UNL     1       8.106   7.773  17.984  0.00  0.00    +0.000 C 
ATOM     10  C   UNL     1       8.181   5.490  18.954  0.00  0.00    +0.000 C 
ENDBRANCH   7   8
BRANCH   1  11
ATOM     11  C   UNL     1       5.655   3.866  15.920  0.00  0.00    +0.000 C 
BRANCH  11  15
ATOM     12  C   UNL     1       7.363   4.410  12.572  0.00  0.00    +0.000 C 
ATOM     13  C   UNL     1       6.233   4.085  13.515  0.00  0.00    +0.000 C 
ATOM     14  O   UNL     1       5.136   3.711  13.122  0.00  0.00    +0.000 OA
ATOM     15  N   UNL     1       6.578   4.198  14.842  0.00  0.00    +0.000 N 
ATOM     16  H   UNL     1       7.438   4.671  15.089  0.00  0.00    +0.000 HD
ENDBRANCH  11  15
ENDBRANCH   1  11
BRANCH   5  17
ATOM     17  C   UNL     1       2.648   6.946  17.547  0.00  0.00    +0.000 C 
BRANCH  17  18
ATOM     18  C   UNL     1       2.090   8.255  18.071  0.00  0.00    +0.000 C 
ATOM     19  O   UNL     1       1.986   9.246  17.353  0.00  0.00    +0.000 OA
ATOM     20  N   UNL     1       1.735   8.241  19.397  0.00  0.00    +0.000 N 
ATOM     21  H   UNL     1       1.534   7.349  19.832  0.00  0.00    +0.000 HD
BRANCH  20  22
ATOM     22  C   UNL     1       1.169   9.413  20.040  0.00  0.00    +0.000 C 
BRANCH  22  23
ATOM     23  C   UNL     1       0.123   9.053  21.112  0.00  0.00    +0.000 C 
BRANCH  23  24
ATOM     24  N   UNL     1      -0.580  10.215  21.710  0.00  0.00    +0.000 NA
ATOM     25  C   UNL     1      -0.661  10.117  23.170  0.00  0.00    +0.000 C 
ATOM     26  C   UNL     1       0.134  11.446  21.346  0.00  0.00    +0.000 C 
ENDBRANCH  23  24
ENDBRANCH  22  23
ENDBRANCH  20  22
ENDBRANCH  17  18
ENDBRANCH   5  17
TORSDOF 8
ENDMDL
