MODEL 1
REMARK VINA RESULT:      -8.6      0.000      0.000
REMARK  Name = 
REMARK  6 active torsions:
REMARK  status: ('A' for Active; 'I' for Inactive)
REMARK    1  A    between atoms: N_14  and  C_15
REMARK    2  A    between atoms: C_15  and  C_16
REMARK    3  A    between atoms: C_16  and  C_17
REMARK    4  A    between atoms: C_17  and  C_18
REMARK    5  A    between atoms: C_18  and  N_19
REMARK    6  A    between atoms: C_26  and  C_27
REMARK                            x       y       z     vdW  Elec       q    Type
REMARK                         _______ _______ _______ _____ _____    ______ ____
ROOT
ATOM      1  C   UNL     1       2.094   6.681  20.118  0.00  0.00    +0.000 C 
ENDROOT
BRANCH   1   2
ATOM      2  C   UNL     1       1.748   5.257  20.635  0.00  0.00    +0.000 C 
BRANCH   2   3
ATOM      3  C   UNL     1       1.759   4.179  19.538  0.00  0.00    +0.000 C 
BRANCH   3  17
ATOM      4  O   UNL     1       4.191   2.986  20.513  0.00  0.00    +0.000 OA
ATOM      5  C   UNL     1       4.125   3.576  19.459  0.00  0.00    +0.000 C 
ATOM      6  C   UNL     1       5.285   3.861  18.557  0.00  0.00    +0.000 C 
ATOM      7  C   UNL     1       5.696   5.358  18.507  0.00  0.00    +0.000 C 
ATOM      8  C   UNL     1       4.777   6.356  17.708  0.00  0.00    +0.000 C 
ATOM      9  C   UNL     1       5.064   6.542  16.209  0.00  0.00    +0.000 C 
ATOM     10  C   UNL     1       5.077   5.266  15.374  0.00  0.00    +0.000 C 
ATOM     11  C   UNL     1       5.664   4.058  16.097  0.00  0.00    +0.000 C 
ATOM     12  C   UNL     1       7.097   4.430  16.633  0.00  0.00    +0.000 C 
ATOM     13  C   UNL     1       7.091   5.339  17.882  0.00  0.00    +0.000 C 
ATOM     14  C   UNL     1       4.739   3.450  17.205  0.00  0.00    +0.000 C 
ATOM     15  C   UNL     1       3.222   3.802  17.424  0.00  0.00    +0.000 C 
ATOM     16  O   UNL     1       2.366   3.803  16.564  0.00  0.00    +0.000 OA
ATOM     17  N   UNL     1       3.015   3.997  18.790  0.00  0.00    +0.000 N 
ENDBRANCH   3  17
ENDBRANCH   2   3
ENDBRANCH   1   2
BRANCH   1  18
ATOM     18  C   UNL     1       1.640   7.903  20.968  0.00  0.00    +0.000 C 
BRANCH  18  19
ATOM     19  N   UNL     1       0.354   8.498  20.568  0.00  0.00    +0.000 NA
ATOM     20  C   UNL     1      -0.656   8.534  21.656  0.00  0.00    +0.000 C 
ATOM     21  C   UNL     1      -0.391   9.569  22.770  0.00  0.00    +0.000 C 
ATOM     22  N   UNL     1      -0.275  10.904  22.191  0.00  0.00    +0.000 N 
ATOM     23  C   UNL     1      -1.046  11.932  22.681  0.00  0.00    +0.000 A 
ATOM     24  C   UNL     1      -0.634  13.258  22.581  0.00  0.00    +0.000 A 
ATOM     25  C   UNL     1      -1.422  14.286  23.100  0.00  0.00    +0.000 A 
ATOM     26  C   UNL     1      -2.629  13.982  23.722  0.00  0.00    +0.000 A 
ATOM     27  C   UNL     1      -2.982  12.646  23.778  0.00  0.00    +0.000 A 
ATOM     28  N   UNL     1      -2.219  11.638  23.285  0.00  0.00    +0.000 NA
ATOM     29  C   UNL     1       0.666  11.039  21.078  0.00  0.00    +0.000 C 
ATOM     30  C   UNL     1       0.485   9.887  20.044  0.00  0.00    +0.000 C 
BRANCH  26  31
ATOM     31  C   UNL     1      -3.518  15.023  24.319  0.00  0.00    +0.000 C 
ATOM     32  F   UNL     1      -4.844  14.722  24.220  0.00  0.00    +0.000 F 
ATOM     33  F   UNL     1      -3.281  15.218  25.645  0.00  0.00    +0.000 F 
ATOM     34  F   UNL     1      -3.371  16.241  23.729  0.00  0.00    +0.000 F 
ENDBRANCH  26  31
ENDBRANCH  18  19
ENDBRANCH   1  18
TORSDOF 6
ENDMDL
MODEL 2
REMARK VINA RESULT:      -8.4      2.132      3.501
REMARK  Name = 
REMARK  6 active torsions:
REMARK  status: ('A' for Active; 'I' for Inactive)
REMARK    1  A    between atoms: N_14  and  C_15
REMARK    2  A    between atoms: C_15  and  C_16
REMARK    3  A    between atoms: C_16  and  C_17
REMARK    4  A    between atoms: C_17  and  C_18
REMARK    5  A    between atoms: C_18  and  N_19
REMARK    6  A    between atoms: C_26  and  C_27
REMARK                            x       y       z     vdW  Elec       q    Type
REMARK                         _______ _______ _______ _____ _____    ______ ____
ROOT
ATOM      1  C   UNL     1       1.584   9.663  17.803  0.00  0.00    +0.000 C 
ENDROOT
BRANCH   1   2
ATOM      2  C   UNL     1       2.240   8.256  17.731  0.00  0.00    +0.000 C 
BRANCH   2   3
ATOM      3  C   UNL     1       2.507   7.624  19.109  0.00  0.00    +0.000 C 
BRANCH   3  17
ATOM      4  O   UNL     1       4.803   6.492  17.790  0.00  0.00    +0.000 OA
ATOM      5  C   UNL     1       3.939   5.817  18.303  0.00  0.00    +0.000 C 
ATOM      6  C   UNL     1       3.873   4.322  18.256  0.00  0.00    +0.000 C 
ATOM      7  C   UNL     1       2.725   3.767  17.367  0.00  0.00    +0.000 C 
ATOM      8  C   UNL     1       1.252   3.856  17.914  0.00  0.00    +0.000 C 
ATOM      9  C   UNL     1       0.740   2.689  18.774  0.00  0.00    +0.000 C 
ATOM     10  C   UNL     1       1.590   2.341  19.991  0.00  0.00    +0.000 C 
ATOM     11  C   UNL     1       3.090   2.493  19.764  0.00  0.00    +0.000 C 
ATOM     12  C   UNL     1       3.501   1.655  18.495  0.00  0.00    +0.000 C 
ATOM     13  C   UNL     1       3.100   2.301  17.150  0.00  0.00    +0.000 C 
ATOM     14  C   UNL     1       3.593   3.974  19.703  0.00  0.00    +0.000 C 
ATOM     15  C   UNL     1       2.756   5.241  20.113  0.00  0.00    +0.000 C 
ATOM     16  O   UNL     1       2.151   5.380  21.156  0.00  0.00    +0.000 OA
ATOM     17  N   UNL     1       2.929   6.213  19.127  0.00  0.00    +0.000 N 
ENDBRANCH   3  17
ENDBRANCH   2   3
ENDBRANCH   1   2
BRANCH   1  18
ATOM     18  C   UNL     1       1.152  10.204  19.197  0.00  0.00    +0.000 C 
BRANCH  18  19
ATOM     19  N   UNL     1      -0.182   9.775  19.646  0.00  0.00    +0.000 NA
ATOM     20  C   UNL     1      -0.438  10.019  21.089  0.00  0.00    +0.000 C 
ATOM     21  C   UNL     1      -0.652  11.496  21.482  0.00  0.00    +0.000 C 
ATOM     22  N   UNL     1      -1.753  12.062  20.706  0.00  0.00    +0.000 N 
ATOM     23  C   UNL     1      -2.791  12.691  21.350  0.00  0.00    +0.000 A 
ATOM     24  C   UNL     1      -3.545  13.677  20.720  0.00  0.00    +0.000 A 
ATOM     25  C   UNL     1      -4.584  14.317  21.396  0.00  0.00    +0.000 A 
ATOM     26  C   UNL     1      -4.869  13.965  22.711  0.00  0.00    +0.000 A 
ATOM     27  C   UNL     1      -4.089  12.971  23.274  0.00  0.00    +0.000 A 
ATOM     28  N   UNL     1      -3.069  12.350  22.629  0.00  0.00    +0.000 NA
ATOM     29  C   UNL     1      -1.670  11.884  19.255  0.00  0.00    +0.000 C 
ATOM     30  C   UNL     1      -1.293  10.417  18.888  0.00  0.00    +0.000 C 
BRANCH  26  31
ATOM     31  C   UNL     1      -5.952  14.616  23.509  0.00  0.00    +0.000 C 
ATOM     32  F   UNL     1      -6.614  13.751  24.328  0.00  0.00    +0.000 F 
ATOM     33  F   UNL     1      -5.485  15.607  24.317  0.00  0.00    +0.000 F 
ATOM     34  F   UNL     1      -6.908  15.189  22.727  0.00  0.00    +0.000 F 
ENDBRANCH  26  31
ENDBRANCH  18  19
ENDBRANCH   1  18
TORSDOF 6
ENDMDL
MODEL 3
REMARK VINA RESULT:      -8.3      1.092      1.495
REMARK  Name = 
REMARK  6 active torsions:
REMARK  status: ('A' for Active; 'I' for Inactive)
REMARK    1  A    between atoms: N_14  and  C_15
REMARK    2  A    between atoms: C_15  and  C_16
REMARK    3  A    between atoms: C_16  and  C_17
REMARK    4  A    between atoms: C_17  and  C_18
REMARK    5  A    between atoms: C_18  and  N_19
REMARK    6  A    between atoms: C_26  and  C_27
REMARK                            x       y       z     vdW  Elec       q    Type
REMARK                         _______ _______ _______ _____ _____    ______ ____
ROOT
ATOM      1  C   UNL     1       2.054   6.176  20.322  0.00  0.00    +0.000 C 
ENDROOT
BRANCH   1   2
ATOM      2  C   UNL     1       2.047   4.723  20.872  0.00  0.00    +0.000 C 
BRANCH   2   3
ATOM      3  C   UNL     1       2.098   3.644  19.776  0.00  0.00    +0.000 C 
BRANCH   3  17
ATOM      4  O   UNL     1       4.661   2.465  20.355  0.00  0.00    +0.000 OA
ATOM      5  C   UNL     1       4.469   3.188  19.404  0.00  0.00    +0.000 C 
ATOM      6  C   UNL     1       5.524   3.656  18.450  0.00  0.00    +0.000 C 
ATOM      7  C   UNL     1       5.865   5.166  18.574  0.00  0.00    +0.000 C 
ATOM      8  C   UNL     1       4.833   6.211  18.007  0.00  0.00    +0.000 C 
ATOM      9  C   UNL     1       4.967   6.613  16.529  0.00  0.00    +0.000 C 
ATOM     10  C   UNL     1       4.954   5.464  15.526  0.00  0.00    +0.000 C 
ATOM     11  C   UNL     1       5.657   4.204  16.018  0.00  0.00    +0.000 C 
ATOM     12  C   UNL     1       7.118   4.578  16.471  0.00  0.00    +0.000 C 
ATOM     13  C   UNL     1       7.194   5.308  17.830  0.00  0.00    +0.000 C 
ATOM     14  C   UNL     1       4.869   3.402  17.108  0.00  0.00    +0.000 C 
ATOM     15  C   UNL     1       3.367   3.638  17.509  0.00  0.00    +0.000 C 
ATOM     16  O   UNL     1       2.433   3.708  16.737  0.00  0.00    +0.000 OA
ATOM     17  N   UNL     1       3.283   3.635  18.901  0.00  0.00    +0.000 N 
ENDBRANCH   3  17
ENDBRANCH   2   3
ENDBRANCH   1   2
BRANCH   1  18
ATOM     18  C   UNL     1       1.037   7.193  20.916  0.00  0.00    +0.000 C 
BRANCH  18  19
ATOM     19  N   UNL     1       1.540   8.569  21.055  0.00  0.00    +0.000 NA
ATOM     20  C   UNL     1       0.938   9.531  20.096  0.00  0.00    +0.000 C 
ATOM     21  C   UNL     1      -0.530   9.914  20.379  0.00  0.00    +0.000 C 
ATOM     22  N   UNL     1      -0.650  10.459  21.729  0.00  0.00    +0.000 N 
ATOM     23  C   UNL     1      -1.250  11.680  21.923  0.00  0.00    +0.000 A 
ATOM     24  C   UNL     1      -1.867  12.001  23.129  0.00  0.00    +0.000 A 
ATOM     25  C   UNL     1      -2.486  13.239  23.301  0.00  0.00    +0.000 A 
ATOM     26  C   UNL     1      -2.486  14.161  22.259  0.00  0.00    +0.000 A 
ATOM     27  C   UNL     1      -1.847  13.781  21.093  0.00  0.00    +0.000 A 
ATOM     28  N   UNL     1      -1.250  12.576  20.911  0.00  0.00    +0.000 NA
ATOM     29  C   UNL     1      -0.077   9.643  22.801  0.00  0.00    +0.000 C 
ATOM     30  C   UNL     1       1.346   9.132  22.422  0.00  0.00    +0.000 C 
BRANCH  26  31
ATOM     31  C   UNL     1      -3.143  15.498  22.358  0.00  0.00    +0.000 C 
ATOM     32  F   UNL     1      -4.499  15.445  22.231  0.00  0.00    +0.000 F 
ATOM     33  F   UNL     1      -2.906  16.112  23.550  0.00  0.00    +0.000 F 
ATOM     34  F   UNL     1      -2.717  16.366  21.399  0.00  0.00    +0.000 F 
ENDBRANCH  26  31
ENDBRANCH  18  19
ENDBRANCH   1  18
TORSDOF 6
ENDMDL
MODEL 4
REMARK VINA RESULT:      -8.2      2.042      3.513
REMARK  Name = 
REMARK  6 active torsions:
REMARK  status: ('A' for Active; 'I' for Inactive)
REMARK    1  A    between atoms: N_14  and  C_15
REMARK    2  A    between atoms: C_15  and  C_16
REMARK    3  A    between atoms: C_16  and  C_17
REMARK    4  A    between atoms: C_17  and  C_18
REMARK    5  A    between atoms: C_18  and  N_19
REMARK    6  A    between atoms: C_26  and  C_27
REMARK                            x       y       z     vdW  Elec       q    Type
REMARK                         _______ _______ _______ _____ _____    ______ ____
ROOT
ATOM      1  C   UNL     1       1.353   9.577  17.941  0.00  0.00    +0.000 C 
ENDROOT
BRANCH   1   2
ATOM      2  C   UNL     1       1.753   8.097  17.683  0.00  0.00    +0.000 C 
BRANCH   2   3
ATOM      3  C   UNL     1       3.120   7.712  18.275  0.00  0.00    +0.000 C 
BRANCH   3  17
ATOM      4  O   UNL     1       5.292   6.043  17.389  0.00  0.00    +0.000 OA
ATOM      5  C   UNL     1       4.315   5.606  17.953  0.00  0.00    +0.000 C 
ATOM      6  C   UNL     1       4.035   4.155  18.193  0.00  0.00    +0.000 C 
ATOM      7  C   UNL     1       2.867   3.586  17.341  0.00  0.00    +0.000 C 
ATOM      8  C   UNL     1       1.396   3.978  17.741  0.00  0.00    +0.000 C 
ATOM      9  C   UNL     1       0.676   3.088  18.768  0.00  0.00    +0.000 C 
ATOM     10  C   UNL     1       1.402   2.887  20.093  0.00  0.00    +0.000 C 
ATOM     11  C   UNL     1       2.919   2.791  19.961  0.00  0.00    +0.000 C 
ATOM     12  C   UNL     1       3.269   1.665  18.917  0.00  0.00    +0.000 C 
ATOM     13  C   UNL     1       3.036   2.070  17.444  0.00  0.00    +0.000 C 
ATOM     14  C   UNL     1       3.633   4.150  19.654  0.00  0.00    +0.000 C 
ATOM     15  C   UNL     1       2.969   5.572  19.741  0.00  0.00    +0.000 C 
ATOM     16  O   UNL     1       2.337   5.999  20.685  0.00  0.00    +0.000 OA
ATOM     17  N   UNL     1       3.331   6.291  18.602  0.00  0.00    +0.000 N 
ENDBRANCH   3  17
ENDBRANCH   2   3
ENDBRANCH   1   2
BRANCH   1  18
ATOM     18  C   UNL     1       0.529   9.905  19.220  0.00  0.00    +0.000 C 
BRANCH  18  19
ATOM     19  N   UNL     1       0.712  11.266  19.748  0.00  0.00    +0.000 NA
ATOM     20  C   UNL     1      -0.304  12.239  19.269  0.00  0.00    +0.000 C 
ATOM     21  C   UNL     1      -1.715  12.070  19.871  0.00  0.00    +0.000 C 
ATOM     22  N   UNL     1      -1.646  12.140  21.328  0.00  0.00    +0.000 N 
ATOM     23  C   UNL     1      -2.456  13.017  22.010  0.00  0.00    +0.000 A 
ATOM     24  C   UNL     1      -2.836  12.778  23.327  0.00  0.00    +0.000 A 
ATOM     25  C   UNL     1      -3.673  13.671  23.997  0.00  0.00    +0.000 A 
ATOM     26  C   UNL     1      -4.130  14.810  23.342  0.00  0.00    +0.000 A 
ATOM     27  C   UNL     1      -3.705  14.992  22.039  0.00  0.00    +0.000 A 
ATOM     28  N   UNL     1      -2.900  14.125  21.374  0.00  0.00    +0.000 NA
ATOM     29  C   UNL     1      -0.666  11.259  21.965  0.00  0.00    +0.000 C 
ATOM     30  C   UNL     1       0.711  11.327  21.237  0.00  0.00    +0.000 C 
BRANCH  26  31
ATOM     31  C   UNL     1      -5.042  15.804  23.983  0.00  0.00    +0.000 C 
ATOM     32  F   UNL     1      -6.297  15.320  24.205  0.00  0.00    +0.000 F 
ATOM     33  F   UNL     1      -4.589  16.227  25.195  0.00  0.00    +0.000 F 
ATOM     34  F   UNL     1      -5.208  16.927  23.232  0.00  0.00    +0.000 F 
ENDBRANCH  26  31
ENDBRANCH  18  19
ENDBRANCH   1  18
TORSDOF 6
ENDMDL
MODEL 5
REMARK VINA RESULT:      -8.1      2.333      3.792
REMARK  Name = 
REMARK  6 active torsions:
REMARK  status: ('A' for Active; 'I' for Inactive)
REMARK    1  A    between atoms: N_14  and  C_15
REMARK    2  A    between atoms: C_15  and  C_16
REMARK    3  A    between atoms: C_16  and  C_17
REMARK    4  A    between atoms: C_17  and  C_18
REMARK    5  A    between atoms: C_18  and  N_19
REMARK    6  A    between atoms: C_26  and  C_27
REMARK                            x       y       z     vdW  Elec       q    Type
REMARK                         _______ _______ _______ _____ _____    ______ ____
ROOT
ATOM      1  C   UNL     1       1.277   9.752  17.917  0.00  0.00    +0.000 C 
ENDROOT
BRANCH   1   2
ATOM      2  C   UNL     1       1.913   8.561  18.688  0.00  0.00    +0.000 C 
BRANCH   2   3
ATOM      3  C   UNL     1       2.851   7.696  17.828  0.00  0.00    +0.000 C 
BRANCH   3  17
ATOM      4  O   UNL     1       5.236   6.183  17.265  0.00  0.00    +0.000 OA
ATOM      5  C   UNL     1       4.279   5.713  17.838  0.00  0.00    +0.000 C 
ATOM      6  C   UNL     1       4.140   4.281  18.252  0.00  0.00    +0.000 C 
ATOM      7  C   UNL     1       3.089   3.484  17.431  0.00  0.00    +0.000 C 
ATOM      8  C   UNL     1       1.565   3.755  17.711  0.00  0.00    +0.000 C 
ATOM      9  C   UNL     1       0.885   2.925  18.813  0.00  0.00    +0.000 C 
ATOM     10  C   UNL     1       1.550   2.974  20.184  0.00  0.00    +0.000 C 
ATOM     11  C   UNL     1       3.073   3.033  20.133  0.00  0.00    +0.000 C 
ATOM     12  C   UNL     1       3.600   1.832  19.261  0.00  0.00    +0.000 C 
ATOM     13  C   UNL     1       3.411   2.021  17.739  0.00  0.00    +0.000 C 
ATOM     14  C   UNL     1       3.657   4.414  19.682  0.00  0.00    +0.000 C 
ATOM     15  C   UNL     1       2.842   5.753  19.553  0.00  0.00    +0.000 C 
ATOM     16  O   UNL     1       2.115   6.221  20.404  0.00  0.00    +0.000 OA
ATOM     17  N   UNL     1       3.192   6.360  18.347  0.00  0.00    +0.000 N 
ENDBRANCH   3  17
ENDBRANCH   2   3
ENDBRANCH   1   2
BRANCH   1  18
ATOM     18  C   UNL     1      -0.116  10.269  18.379  0.00  0.00    +0.000 C 
BRANCH  18  19
ATOM     19  N   UNL     1      -0.146  11.674  18.814  0.00  0.00    +0.000 NA
ATOM     20  C   UNL     1      -1.396  12.390  18.450  0.00  0.00    +0.000 C 
ATOM     21  C   UNL     1      -2.647  11.989  19.260  0.00  0.00    +0.000 C 
ATOM     22  N   UNL     1      -2.397  12.178  20.687  0.00  0.00    +0.000 N 
ATOM     23  C   UNL     1      -3.269  12.925  21.442  0.00  0.00    +0.000 A 
ATOM     24  C   UNL     1      -3.409  12.711  22.810  0.00  0.00    +0.000 A 
ATOM     25  C   UNL     1      -4.312  13.468  23.557  0.00  0.00    +0.000 A 
ATOM     26  C   UNL     1      -5.078  14.444  22.928  0.00  0.00    +0.000 A 
ATOM     27  C   UNL     1      -4.882  14.611  21.570  0.00  0.00    +0.000 A 
ATOM     28  N   UNL     1      -4.013  13.874  20.832  0.00  0.00    +0.000 NA
ATOM     29  C   UNL     1      -1.178  11.555  21.209  0.00  0.00    +0.000 C 
ATOM     30  C   UNL     1       0.043  11.841  20.283  0.00  0.00    +0.000 C 
BRANCH  26  31
ATOM     31  C   UNL     1      -6.080  15.282  23.654  0.00  0.00    +0.000 C 
ATOM     32  F   UNL     1      -6.832  16.062  22.827  0.00  0.00    +0.000 F 
ATOM     33  F   UNL     1      -6.967  14.537  24.369  0.00  0.00    +0.000 F 
ATOM     34  F   UNL     1      -5.505  16.135  24.544  0.00  0.00    +0.000 F 
ENDBRANCH  26  31
ENDBRANCH  18  19
ENDBRANCH   1  18
TORSDOF 6
ENDMDL
MODEL 6
REMARK VINA RESULT:      -8.1      2.054      3.703
REMARK  Name = 
REMARK  6 active torsions:
REMARK  status: ('A' for Active; 'I' for Inactive)
REMARK    1  A    between atoms: N_14  and  C_15
REMARK    2  A    between atoms: C_15  and  C_16
REMARK    3  A    between atoms: C_16  and  C_17
REMARK    4  A    between atoms: C_17  and  C_18
REMARK    5  A    between atoms: C_18  and  N_19
REMARK    6  A    between atoms: C_26  and  C_27
REMARK                            x       y       z     vdW  Elec       q    Type
REMARK                         _______ _______ _______ _____ _____    ______ ____
ROOT
ATOM      1  C   UNL     1       1.563   9.841  17.899  0.00  0.00    +0.000 C 
ENDROOT
BRANCH   1   2
ATOM      2  C   UNL     1       1.690   8.292  17.924  0.00  0.00    +0.000 C 
BRANCH   2   3
ATOM      3  C   UNL     1       3.143   7.788  17.909  0.00  0.00    +0.000 C 
BRANCH   3  17
ATOM      4  O   UNL     1       5.229   6.032  16.984  0.00  0.00    +0.000 OA
ATOM      5  C   UNL     1       4.299   5.650  17.658  0.00  0.00    +0.000 C 
ATOM      6  C   UNL     1       4.032   4.226  18.032  0.00  0.00    +0.000 C 
ATOM      7  C   UNL     1       2.796   3.606  17.324  0.00  0.00    +0.000 C 
ATOM      8  C   UNL     1       1.364   4.044  17.809  0.00  0.00    +0.000 C 
ATOM      9  C   UNL     1       0.726   3.244  18.957  0.00  0.00    +0.000 C 
ATOM     10  C   UNL     1       1.557   3.139  20.232  0.00  0.00    +0.000 C 
ATOM     11  C   UNL     1       3.057   3.016  19.986  0.00  0.00    +0.000 C 
ATOM     12  C   UNL     1       3.316   1.809  19.008  0.00  0.00    +0.000 C 
ATOM     13  C   UNL     1       2.966   2.101  17.532  0.00  0.00    +0.000 C 
ATOM     14  C   UNL     1       3.751   4.339  19.516  0.00  0.00    +0.000 C 
ATOM     15  C   UNL     1       3.102   5.771  19.545  0.00  0.00    +0.000 C 
ATOM     16  O   UNL     1       2.551   6.277  20.500  0.00  0.00    +0.000 OA
ATOM     17  N   UNL     1       3.374   6.395  18.328  0.00  0.00    +0.000 N 
ENDBRANCH   3  17
ENDBRANCH   2   3
ENDBRANCH   1   2
BRANCH   1  18
ATOM     18  C   UNL     1       0.570  10.515  18.890  0.00  0.00    +0.000 C 
BRANCH  18  19
ATOM     19  N   UNL     1       1.136  10.854  20.205  0.00  0.00    +0.000 NA
ATOM     20  C   UNL     1       1.476  12.291  20.362  0.00  0.00    +0.000 C 
ATOM     21  C   UNL     1       0.270  13.244  20.504  0.00  0.00    +0.000 C 
ATOM     22  N   UNL     1      -0.558  12.832  21.634  0.00  0.00    +0.000 N 
ATOM     23  C   UNL     1      -0.888  13.742  22.609  0.00  0.00    +0.000 A 
ATOM     24  C   UNL     1      -2.044  13.602  23.371  0.00  0.00    +0.000 A 
ATOM     25  C   UNL     1      -2.371  14.546  24.345  0.00  0.00    +0.000 A 
ATOM     26  C   UNL     1      -1.533  15.636  24.556  0.00  0.00    +0.000 A 
ATOM     27  C   UNL     1      -0.396  15.709  23.772  0.00  0.00    +0.000 A 
ATOM     28  N   UNL     1      -0.073  14.802  22.816  0.00  0.00    +0.000 NA
ATOM     29  C   UNL     1      -0.962  11.424  21.650  0.00  0.00    +0.000 C 
ATOM     30  C   UNL     1       0.245  10.487  21.343  0.00  0.00    +0.000 C 
BRANCH  26  31
ATOM     31  C   UNL     1      -1.823  16.699  25.565  0.00  0.00    +0.000 C 
ATOM     32  F   UNL     1      -1.370  16.396  26.814  0.00  0.00    +0.000 F 
ATOM     33  F   UNL     1      -1.256  17.895  25.245  0.00  0.00    +0.000 F 
ATOM     34  F   UNL     1      -3.155  16.942  25.704  0.00  0.00    +0.000 F 
ENDBRANCH  26  31
ENDBRANCH  18  19
ENDBRANCH   1  18
TORSDOF 6
ENDMDL
MODEL 7
REMARK VINA RESULT:      -8.0      1.843      3.438
REMARK  Name = 
REMARK  6 active torsions:
REMARK  status: ('A' for Active; 'I' for Inactive)
REMARK    1  A    between atoms: N_14  and  C_15
REMARK    2  A    between atoms: C_15  and  C_16
REMARK    3  A    between atoms: C_16  and  C_17
REMARK    4  A    between atoms: C_17  and  C_18
REMARK    5  A    between atoms: C_18  and  N_19
REMARK    6  A    between atoms: C_26  and  C_27
REMARK                            x       y       z     vdW  Elec       q    Type
REMARK                         _______ _______ _______ _____ _____    ______ ____
ROOT
ATOM      1  C   UNL     1       1.745   9.365  19.236  0.00  0.00    +0.000 C 
ENDROOT
BRANCH   1   2
ATOM      2  C   UNL     1       1.624   8.273  18.137  0.00  0.00    +0.000 C 
BRANCH   2   3
ATOM      3  C   UNL     1       2.976   7.701  17.679  0.00  0.00    +0.000 C 
BRANCH   3  17
ATOM      4  O   UNL     1       5.022   5.984  16.603  0.00  0.00    +0.000 OA
ATOM      5  C   UNL     1       4.193   5.601  17.397  0.00  0.00    +0.000 C 
ATOM      6  C   UNL     1       4.036   4.188  17.866  0.00  0.00    +0.000 C 
ATOM      7  C   UNL     1       2.757   3.483  17.336  0.00  0.00    +0.000 C 
ATOM      8  C   UNL     1       1.372   3.887  17.963  0.00  0.00    +0.000 C 
ATOM      9  C   UNL     1       0.906   3.123  19.214  0.00  0.00    +0.000 C 
ATOM     10  C   UNL     1       1.881   3.118  20.387  0.00  0.00    +0.000 C 
ATOM     11  C   UNL     1       3.347   3.043  19.975  0.00  0.00    +0.000 C 
ATOM     12  C   UNL     1       3.548   1.798  19.031  0.00  0.00    +0.000 C 
ATOM     13  C   UNL     1       3.019   1.999  17.594  0.00  0.00    +0.000 C 
ATOM     14  C   UNL     1       3.921   4.366  19.366  0.00  0.00    +0.000 C 
ATOM     15  C   UNL     1       3.215   5.771  19.403  0.00  0.00    +0.000 C 
ATOM     16  O   UNL     1       2.753   6.303  20.391  0.00  0.00    +0.000 OA
ATOM     17  N   UNL     1       3.317   6.341  18.134  0.00  0.00    +0.000 N 
ENDBRANCH   3  17
ENDBRANCH   2   3
ENDBRANCH   1   2
BRANCH   1  18
ATOM     18  C   UNL     1       0.836   9.248  20.494  0.00  0.00    +0.000 C 
BRANCH  18  19
ATOM     19  N   UNL     1       1.046  10.289  21.514  0.00  0.00    +0.000 NA
ATOM     20  C   UNL     1       0.729  11.662  21.046  0.00  0.00    +0.000 C 
ATOM     21  C   UNL     1      -0.773  11.971  20.872  0.00  0.00    +0.000 C 
ATOM     22  N   UNL     1      -1.479  11.727  22.127  0.00  0.00    +0.000 N 
ATOM     23  C   UNL     1      -2.274  12.709  22.667  0.00  0.00    +0.000 A 
ATOM     24  C   UNL     1      -3.346  12.398  23.500  0.00  0.00    +0.000 A 
ATOM     25  C   UNL     1      -4.153  13.408  24.024  0.00  0.00    +0.000 A 
ATOM     26  C   UNL     1      -3.883  14.737  23.713  0.00  0.00    +0.000 A 
ATOM     27  C   UNL     1      -2.798  14.976  22.890  0.00  0.00    +0.000 A 
ATOM     28  N   UNL     1      -2.012  14.001  22.366  0.00  0.00    +0.000 NA
ATOM     29  C   UNL     1      -1.252  10.418  22.744  0.00  0.00    +0.000 C 
ATOM     30  C   UNL     1       0.264  10.058  22.761  0.00  0.00    +0.000 C 
BRANCH  26  31
ATOM     31  C   UNL     1      -4.710  15.873  24.219  0.00  0.00    +0.000 C 
ATOM     32  F   UNL     1      -4.740  16.940  23.370  0.00  0.00    +0.000 F 
ATOM     33  F   UNL     1      -6.011  15.525  24.422  0.00  0.00    +0.000 F 
ATOM     34  F   UNL     1      -4.263  16.361  25.409  0.00  0.00    +0.000 F 
ENDBRANCH  26  31
ENDBRANCH  18  19
ENDBRANCH   1  18
TORSDOF 6
ENDMDL
MODEL 8
REMARK VINA RESULT:      -8.0      2.137      2.758
REMARK  Name = 
REMARK  6 active torsions:
REMARK  status: ('A' for Active; 'I' for Inactive)
REMARK    1  A    between atoms: N_14  and  C_15
REMARK    2  A    between atoms: C_15  and  C_16
REMARK    3  A    between atoms: C_16  and  C_17
REMARK    4  A    between atoms: C_17  and  C_18
REMARK    5  A    between atoms: C_18  and  N_19
REMARK    6  A    between atoms: C_26  and  C_27
REMARK                            x       y       z     vdW  Elec       q    Type
REMARK                         _______ _______ _______ _____ _____    ______ ____
ROOT
ATOM      1  C   UNL     1       1.675   5.569  20.495  0.00  0.00    +0.000 C 
ENDROOT
BRANCH   1   2
ATOM      2  C   UNL     1       0.874   4.238  20.559  0.00  0.00    +0.000 C 
BRANCH   2   3
ATOM      3  C   UNL     1       1.326   3.192  19.526  0.00  0.00    +0.000 C 
BRANCH   3  17
ATOM      4  O   UNL     1       3.789   2.308  20.726  0.00  0.00    +0.000 OA
ATOM      5  C   UNL     1       3.753   3.026  19.753  0.00  0.00    +0.000 C 
ATOM      6  C   UNL     1       4.946   3.635  19.085  0.00  0.00    +0.000 C 
ATOM      7  C   UNL     1       5.064   5.172  19.279  0.00  0.00    +0.000 C 
ATOM      8  C   UNL     1       4.086   6.101  18.469  0.00  0.00    +0.000 C 
ATOM      9  C   UNL     1       4.530   6.550  17.067  0.00  0.00    +0.000 C 
ATOM     10  C   UNL     1       4.900   5.431  16.099  0.00  0.00    +0.000 C 
ATOM     11  C   UNL     1       5.606   4.250  16.758  0.00  0.00    +0.000 C 
ATOM     12  C   UNL     1       6.855   4.783  17.554  0.00  0.00    +0.000 C 
ATOM     13  C   UNL     1       6.508   5.485  18.886  0.00  0.00    +0.000 C 
ATOM     14  C   UNL     1       4.676   3.337  17.625  0.00  0.00    +0.000 C 
ATOM     15  C   UNL     1       3.104   3.386  17.641  0.00  0.00    +0.000 C 
ATOM     16  O   UNL     1       2.387   3.364  16.663  0.00  0.00    +0.000 OA
ATOM     17  N   UNL     1       2.682   3.342  18.970  0.00  0.00    +0.000 N 
ENDBRANCH   3  17
ENDBRANCH   2   3
ENDBRANCH   1   2
BRANCH   1  18
ATOM     18  C   UNL     1       0.932   6.893  20.839  0.00  0.00    +0.000 C 
BRANCH  18  19
ATOM     19  N   UNL     1       1.763   8.106  20.782  0.00  0.00    +0.000 NA
ATOM     20  C   UNL     1       1.563   8.915  19.553  0.00  0.00    +0.000 C 
ATOM     21  C   UNL     1       0.227   9.685  19.478  0.00  0.00    +0.000 C 
ATOM     22  N   UNL     1       0.089  10.556  20.642  0.00  0.00    +0.000 N 
ATOM     23  C   UNL     1      -0.183  11.892  20.468  0.00  0.00    +0.000 A 
ATOM     24  C   UNL     1      -0.837  12.632  21.449  0.00  0.00    +0.000 A 
ATOM     25  C   UNL     1      -1.120  13.983  21.247  0.00  0.00    +0.000 A 
ATOM     26  C   UNL     1      -0.745  14.595  20.056  0.00  0.00    +0.000 A 
ATOM     27  C   UNL     1      -0.090  13.805  19.129  0.00  0.00    +0.000 A 
ATOM     28  N   UNL     1       0.182  12.488  19.311  0.00  0.00    +0.000 NA
ATOM     29  C   UNL     1       0.286   9.918  21.945  0.00  0.00    +0.000 C 
ATOM     30  C   UNL     1       1.557   9.016  21.945  0.00  0.00    +0.000 C 
BRANCH  26  31
ATOM     31  C   UNL     1      -1.028  16.031  19.757  0.00  0.00    +0.000 C 
ATOM     32  F   UNL     1      -2.323  16.387  19.994  0.00  0.00    +0.000 F 
ATOM     33  F   UNL     1      -0.269  16.882  20.499  0.00  0.00    +0.000 F 
ATOM     34  F   UNL     1      -0.789  16.354  18.456  0.00  0.00    +0.000 F 
ENDBRANCH  26  31
ENDBRANCH  18  19
ENDBRANCH   1  18
TORSDOF 6
ENDMDL
MODEL 9
REMARK VINA RESULT:      -8.0      6.622      8.059
REMARK  Name = 
REMARK  6 active torsions:
REMARK  status: ('A' for Active; 'I' for Inactive)
REMARK    1  A    between atoms: N_14  and  C_15
REMARK    2  A    between atoms: C_15  and  C_16
REMARK    3  A    between atoms: C_16  and  C_17
REMARK    4  A    between atoms: C_17  and  C_18
REMARK    5  A    between atoms: C_18  and  N_19
REMARK    6  A    between atoms: C_26  and  C_27
REMARK                            x       y       z     vdW  Elec       q    Type
REMARK                         _______ _______ _______ _____ _____    ______ ____
ROOT
ATOM      1  C   UNL     1       4.769  15.043  17.915  0.00  0.00    +0.000 C 
ENDROOT
BRANCH   1   2
ATOM      2  C   UNL     1       6.214  14.518  17.686  0.00  0.00    +0.000 C 
BRANCH   2   3
ATOM      3  C   UNL     1       7.298  15.360  18.380  0.00  0.00    +0.000 C 
BRANCH   3  17
ATOM      4  O   UNL     1      10.008  15.970  17.622  0.00  0.00    +0.000 OA
ATOM      5  C   UNL     1       9.703  14.964  18.221  0.00  0.00    +0.000 C 
ATOM      6  C   UNL     1      10.643  13.853  18.574  0.00  0.00    +0.000 C 
ATOM      7  C   UNL     1      10.405  12.544  17.772  0.00  0.00    +0.000 C 
ATOM      8  C   UNL     1       9.157  11.660  18.143  0.00  0.00    +0.000 C 
ATOM      9  C   UNL     1       9.338  10.597  19.239  0.00  0.00    +0.000 C 
ATOM     10  C   UNL     1       9.870  11.105  20.574  0.00  0.00    +0.000 C 
ATOM     11  C   UNL     1      10.901  12.222  20.446  0.00  0.00    +0.000 C 
ATOM     12  C   UNL     1      12.058  11.740  19.492  0.00  0.00    +0.000 C 
ATOM     13  C   UNL     1      11.684  11.736  17.993  0.00  0.00    +0.000 C 
ATOM     14  C   UNL     1      10.309  13.611  20.031  0.00  0.00    +0.000 C 
ATOM     15  C   UNL     1       8.781  13.983  20.009  0.00  0.00    +0.000 C 
ATOM     16  O   UNL     1       7.998  13.804  20.918  0.00  0.00    +0.000 OA
ATOM     17  N   UNL     1       8.516  14.656  18.816  0.00  0.00    +0.000 N 
ENDBRANCH   3  17
ENDBRANCH   2   3
ENDBRANCH   1   2
BRANCH   1  18
ATOM     18  C   UNL     1       3.710  14.058  18.491  0.00  0.00    +0.000 C 
BRANCH  18  19
ATOM     19  N   UNL     1       2.312  14.494  18.350  0.00  0.00    +0.000 NA
ATOM     20  C   UNL     1       1.328  13.383  18.390  0.00  0.00    +0.000 C 
ATOM     21  C   UNL     1       1.111  12.741  19.777  0.00  0.00    +0.000 C 
ATOM     22  N   UNL     1       0.706  13.762  20.739  0.00  0.00    +0.000 N 
ATOM     23  C   UNL     1      -0.430  13.581  21.491  0.00  0.00    +0.000 A 
ATOM     24  C   UNL     1      -0.581  14.187  22.735  0.00  0.00    +0.000 A 
ATOM     25  C   UNL     1      -1.734  13.978  23.491  0.00  0.00    +0.000 A 
ATOM     26  C   UNL     1      -2.743  13.157  22.996  0.00  0.00    +0.000 A 
ATOM     27  C   UNL     1      -2.534  12.596  21.750  0.00  0.00    +0.000 A 
ATOM     28  N   UNL     1      -1.412  12.785  21.010  0.00  0.00    +0.000 NA
ATOM     29  C   UNL     1       1.559  14.950  20.808  0.00  0.00    +0.000 C 
ATOM     30  C   UNL     1       1.897  15.485  19.384  0.00  0.00    +0.000 C 
BRANCH  26  31
ATOM     31  C   UNL     1      -3.998  12.869  23.752  0.00  0.00    +0.000 C 
ATOM     32  F   UNL     1      -5.065  12.601  22.947  0.00  0.00    +0.000 F 
ATOM     33  F   UNL     1      -3.878  11.793  24.577  0.00  0.00    +0.000 F 
ATOM     34  F   UNL     1      -4.385  13.906  24.544  0.00  0.00    +0.000 F 
ENDBRANCH  26  31
ENDBRANCH  18  19
ENDBRANCH   1  18
TORSDOF 6
ENDMDL
