MODEL 1
REMARK VINA RESULT:      -9.6      0.000      0.000
REMARK  Name = 
REMARK  7 active torsions:
REMARK  status: ('A' for Active; 'I' for Inactive)
REMARK    1  A    between atoms: C_1  and  C_2
REMARK    2  A    between atoms: C_5  and  S_6
REMARK    3  A    between atoms: S_6  and  C_7
REMARK    4  A    between atoms: C_10  and  C_11
REMARK    5  A    between atoms: C_11  and  C_13
REMARK    6  A    between atoms: C_17  and  C_19
REMARK    7  A    between atoms: C_23  and  O_24
REMARK                            x       y       z     vdW  Elec       q    Type
REMARK                         _______ _______ _______ _____ _____    ______ ____
ROOT
ATOM      1  C   UNL     1       2.429   4.447  18.747  0.00  0.00    +0.000 C 
ATOM      2  O   UNL     1       1.457   3.757  18.480  0.00  0.00    +0.000 OA
ENDROOT
BRANCH   1   3
ATOM      3  C   UNL     1       3.857   3.827  18.843  0.00  0.00    +0.000 C 
ATOM      4  C   UNL     1       4.986   4.782  19.199  0.00  0.00    +0.000 C 
ATOM      5  C   UNL     1       5.555   5.585  18.034  0.00  0.00    +0.000 C 
ATOM      6  N   UNL     1       5.739   4.835  16.780  0.00  0.00    +0.000 N 
ATOM      7  C   UNL     1       6.702   5.353  15.909  0.00  0.00    +0.000 C 
ATOM      8  O   UNL     1       7.465   6.273  16.263  0.00  0.00    +0.000 OA
ATOM      9  C   UNL     1       4.798   3.759  16.427  0.00  0.00    +0.000 C 
ATOM     10  C   UNL     1       4.300   2.975  17.625  0.00  0.00    +0.000 C 
BRANCH   7  11
ATOM     11  C   UNL     1       6.943   4.831  14.539  0.00  0.00    +0.000 A 
ATOM     12  C   UNL     1       7.710   5.617  13.663  0.00  0.00    +0.000 A 
ATOM     13  C   UNL     1       7.806   5.307  12.305  0.00  0.00    +0.000 A 
ATOM     14  C   UNL     1       7.135   4.196  11.800  0.00  0.00    +0.000 A 
ATOM     15  C   UNL     1       6.387   3.410  12.668  0.00  0.00    +0.000 A 
ATOM     16  C   UNL     1       6.281   3.713  14.022  0.00  0.00    +0.000 A 
BRANCH  15  17
ATOM     17  O   UNL     1       5.687   2.332  12.214  0.00  0.00    +0.000 OA
ATOM     18  H   UNL     1       4.799   2.633  11.951  0.00  0.00    +0.000 HD
ENDBRANCH  15  17
ENDBRANCH   7  11
ENDBRANCH   1   3
BRANCH   1  22
ATOM     19  C   UNL     1       1.594   8.642  19.710  0.00  0.00    +0.000 A 
ATOM     20  C   UNL     1       2.076   8.289  18.451  0.00  0.00    +0.000 A 
ATOM     21  C   UNL     1       2.334   6.947  18.127  0.00  0.00    +0.000 A 
ATOM     22  C   UNL     1       2.180   5.922  19.064  0.00  0.00    +0.000 A 
ATOM     23  C   UNL     1       1.817   6.298  20.371  0.00  0.00    +0.000 A 
ATOM     24  C   UNL     1       1.510   7.643  20.685  0.00  0.00    +0.000 A 
BRANCH  19  25
ATOM     25  S   UNL     1       1.113  10.332  20.006  0.00  0.00    +0.000 S 
BRANCH  25  30
ATOM     26  C   UNL     1      -4.161  11.209  17.003  0.00  0.00    +0.000 C 
ATOM     27  C   UNL     1      -2.866  10.976  17.727  0.00  0.00    +0.000 A 
ATOM     28  C   UNL     1      -2.543  11.693  18.881  0.00  0.00    +0.000 A 
ATOM     29  C   UNL     1      -1.316  11.489  19.526  0.00  0.00    +0.000 A 
ATOM     30  C   UNL     1      -0.391  10.550  19.049  0.00  0.00    +0.000 A 
ATOM     31  C   UNL     1      -0.702   9.862  17.870  0.00  0.00    +0.000 A 
ATOM     32  C   UNL     1      -1.932  10.066  17.223  0.00  0.00    +0.000 A 
ENDBRANCH  25  30
ENDBRANCH  19  25
ENDBRANCH   1  22
TORSDOF 6
ENDMDL
MODEL 2
REMARK VINA RESULT:      -8.9      1.352      1.918
REMARK  Name = 
REMARK  7 active torsions:
REMARK  status: ('A' for Active; 'I' for Inactive)
REMARK    1  A    between atoms: C_1  and  C_2
REMARK    2  A    between atoms: C_5  and  S_6
REMARK    3  A    between atoms: S_6  and  C_7
REMARK    4  A    between atoms: C_10  and  C_11
REMARK    5  A    between atoms: C_11  and  C_13
REMARK    6  A    between atoms: C_17  and  C_19
REMARK    7  A    between atoms: C_23  and  O_24
REMARK                            x       y       z     vdW  Elec       q    Type
REMARK                         _______ _______ _______ _____ _____    ______ ____
ROOT
ATOM      1  C   UNL     1       1.724   3.867  19.520  0.00  0.00    +0.000 C 
ATOM      2  O   UNL     1       0.680   3.515  20.045  0.00  0.00    +0.000 OA
ENDROOT
BRANCH   1   3
ATOM      3  C   UNL     1       2.862   2.844  19.218  0.00  0.00    +0.000 C 
ATOM      4  C   UNL     1       4.210   3.122  19.865  0.00  0.00    +0.000 C 
ATOM      5  C   UNL     1       5.095   4.125  19.130  0.00  0.00    +0.000 C 
ATOM      6  N   UNL     1       5.118   3.990  17.664  0.00  0.00    +0.000 N 
ATOM      7  C   UNL     1       6.259   4.497  17.035  0.00  0.00    +0.000 C 
ATOM      8  O   UNL     1       7.251   4.864  17.695  0.00  0.00    +0.000 OA
ATOM      9  C   UNL     1       3.907   3.549  16.951  0.00  0.00    +0.000 C 
ATOM     10  C   UNL     1       3.094   2.525  17.718  0.00  0.00    +0.000 C 
BRANCH   7  11
ATOM     11  C   UNL     1       6.418   4.586  15.560  0.00  0.00    +0.000 A 
ATOM     12  C   UNL     1       5.659   3.712  14.766  0.00  0.00    +0.000 A 
ATOM     13  C   UNL     1       5.901   3.581  13.396  0.00  0.00    +0.000 A 
ATOM     14  C   UNL     1       6.909   4.332  12.797  0.00  0.00    +0.000 A 
ATOM     15  C   UNL     1       7.651   5.207  13.579  0.00  0.00    +0.000 A 
ATOM     16  C   UNL     1       7.422   5.341  14.946  0.00  0.00    +0.000 A 
BRANCH  15  17
ATOM     17  O   UNL     1       8.670   5.938  13.045  0.00  0.00    +0.000 OA
ATOM     18  H   UNL     1       8.652   6.826  13.445  0.00  0.00    +0.000 HD
ENDBRANCH  15  17
ENDBRANCH   7  11
ENDBRANCH   1   3
BRANCH   1  22
ATOM     19  C   UNL     1       2.129   8.175  18.806  0.00  0.00    +0.000 A 
ATOM     20  C   UNL     1       2.288   7.267  17.760  0.00  0.00    +0.000 A 
ATOM     21  C   UNL     1       2.146   5.886  17.974  0.00  0.00    +0.000 A 
ATOM     22  C   UNL     1       1.905   5.361  19.246  0.00  0.00    +0.000 A 
ATOM     23  C   UNL     1       1.875   6.271  20.319  0.00  0.00    +0.000 A 
ATOM     24  C   UNL     1       1.969   7.665  20.098  0.00  0.00    +0.000 A 
BRANCH  19  25
ATOM     25  S   UNL     1       2.139   9.919  18.442  0.00  0.00    +0.000 S 
BRANCH  25  30
ATOM     26  C   UNL     1      -3.802  11.440  18.380  0.00  0.00    +0.000 C 
ATOM     27  C   UNL     1      -2.342  11.086  18.406  0.00  0.00    +0.000 A 
ATOM     28  C   UNL     1      -1.833  10.058  17.610  0.00  0.00    +0.000 A 
ATOM     29  C   UNL     1      -0.475   9.716  17.671  0.00  0.00    +0.000 A 
ATOM     30  C   UNL     1       0.412  10.406  18.510  0.00  0.00    +0.000 A 
ATOM     31  C   UNL     1      -0.111  11.409  19.335  0.00  0.00    +0.000 A 
ATOM     32  C   UNL     1      -1.472  11.751  19.275  0.00  0.00    +0.000 A 
ENDBRANCH  25  30
ENDBRANCH  19  25
ENDBRANCH   1  22
TORSDOF 6
ENDMDL
MODEL 3
REMARK VINA RESULT:      -8.8      4.099     10.583
REMARK  Name = 
REMARK  7 active torsions:
REMARK  status: ('A' for Active; 'I' for Inactive)
REMARK    1  A    between atoms: C_1  and  C_2
REMARK    2  A    between atoms: C_5  and  S_6
REMARK    3  A    between atoms: S_6  and  C_7
REMARK    4  A    between atoms: C_10  and  C_11
REMARK    5  A    between atoms: C_11  and  C_13
REMARK    6  A    between atoms: C_17  and  C_19
REMARK    7  A    between atoms: C_23  and  O_24
REMARK                            x       y       z     vdW  Elec       q    Type
REMARK                         _______ _______ _______ _____ _____    ______ ____
ROOT
ATOM      1  C   UNL     1       1.123   8.801  20.404  0.00  0.00    +0.000 C 
ATOM      2  O   UNL     1       0.588   8.840  21.500  0.00  0.00    +0.000 OA
ENDROOT
BRANCH   1   3
ATOM      3  C   UNL     1       0.999   9.988  19.400  0.00  0.00    +0.000 C 
ATOM      4  C   UNL     1       0.957  11.383  20.005  0.00  0.00    +0.000 C 
ATOM      5  C   UNL     1      -0.410  11.837  20.510  0.00  0.00    +0.000 C 
ATOM      6  N   UNL     1      -1.549  11.494  19.641  0.00  0.00    +0.000 N 
ATOM      7  C   UNL     1      -2.675  12.312  19.782  0.00  0.00    +0.000 C 
ATOM      8  O   UNL     1      -2.633  13.356  20.460  0.00  0.00    +0.000 OA
ATOM      9  C   UNL     1      -1.527  10.242  18.867  0.00  0.00    +0.000 C 
ATOM     10  C   UNL     1      -0.147   9.868  18.362  0.00  0.00    +0.000 C 
BRANCH   7  11
ATOM     11  C   UNL     1      -3.972  12.053  19.104  0.00  0.00    +0.000 A 
ATOM     12  C   UNL     1      -3.952  11.808  17.722  0.00  0.00    +0.000 A 
ATOM     13  C   UNL     1      -5.131  11.767  16.974  0.00  0.00    +0.000 A 
ATOM     14  C   UNL     1      -6.356  11.969  17.605  0.00  0.00    +0.000 A 
ATOM     15  C   UNL     1      -6.379  12.198  18.974  0.00  0.00    +0.000 A 
ATOM     16  C   UNL     1      -5.209  12.246  19.727  0.00  0.00    +0.000 A 
BRANCH  15  17
ATOM     17  O   UNL     1      -7.551  12.433  19.630  0.00  0.00    +0.000 OA
ATOM     18  H   UNL     1      -8.280  12.090  19.084  0.00  0.00    +0.000 HD
ENDBRANCH  15  17
ENDBRANCH   7  11
ENDBRANCH   1   3
BRANCH   1  22
ATOM     19  C   UNL     1       3.253   5.091  19.437  0.00  0.00    +0.000 A 
ATOM     20  C   UNL     1       3.367   6.208  18.611  0.00  0.00    +0.000 A 
ATOM     21  C   UNL     1       2.701   7.405  18.918  0.00  0.00    +0.000 A 
ATOM     22  C   UNL     1       1.851   7.511  20.022  0.00  0.00    +0.000 A 
ATOM     23  C   UNL     1       1.638   6.344  20.779  0.00  0.00    +0.000 A 
ATOM     24  C   UNL     1       2.346   5.152  20.500  0.00  0.00    +0.000 A 
BRANCH  19  25
ATOM     25  S   UNL     1       4.261   3.662  19.100  0.00  0.00    +0.000 S 
BRANCH  25  30
ATOM     26  C   UNL     1       7.369   5.024  13.992  0.00  0.00    +0.000 C 
ATOM     27  C   UNL     1       6.627   4.693  15.255  0.00  0.00    +0.000 A 
ATOM     28  C   UNL     1       5.331   4.174  15.216  0.00  0.00    +0.000 A 
ATOM     29  C   UNL     1       4.637   3.902  16.403  0.00  0.00    +0.000 A 
ATOM     30  C   UNL     1       5.227   4.118  17.657  0.00  0.00    +0.000 A 
ATOM     31  C   UNL     1       6.511   4.676  17.690  0.00  0.00    +0.000 A 
ATOM     32  C   UNL     1       7.207   4.949  16.501  0.00  0.00    +0.000 A 
ENDBRANCH  25  30
ENDBRANCH  19  25
ENDBRANCH   1  22
TORSDOF 6
ENDMDL
MODEL 4
REMARK VINA RESULT:      -8.8      0.749      1.409
REMARK  Name = 
REMARK  7 active torsions:
REMARK  status: ('A' for Active; 'I' for Inactive)
REMARK    1  A    between atoms: C_1  and  C_2
REMARK    2  A    between atoms: C_5  and  S_6
REMARK    3  A    between atoms: S_6  and  C_7
REMARK    4  A    between atoms: C_10  and  C_11
REMARK    5  A    between atoms: C_11  and  C_13
REMARK    6  A    between atoms: C_17  and  C_19
REMARK    7  A    between atoms: C_23  and  O_24
REMARK                            x       y       z     vdW  Elec       q    Type
REMARK                         _______ _______ _______ _____ _____    ______ ____
ROOT
ATOM      1  C   UNL     1       2.670   4.748  19.426  0.00  0.00    +0.000 C 
ATOM      2  O   UNL     1       1.756   3.969  19.646  0.00  0.00    +0.000 OA
ENDROOT
BRANCH   1   3
ATOM      3  C   UNL     1       4.153   4.265  19.392  0.00  0.00    +0.000 C 
ATOM      4  C   UNL     1       5.218   5.349  19.450  0.00  0.00    +0.000 C 
ATOM      5  C   UNL     1       5.542   6.020  18.119  0.00  0.00    +0.000 C 
ATOM      6  N   UNL     1       5.630   5.115  16.960  0.00  0.00    +0.000 N 
ATOM      7  C   UNL     1       6.410   5.578  15.896  0.00  0.00    +0.000 C 
ATOM      8  O   UNL     1       7.118   6.597  16.012  0.00  0.00    +0.000 OA
ATOM      9  C   UNL     1       4.762   3.927  16.893  0.00  0.00    +0.000 C 
ATOM     10  C   UNL     1       4.510   3.286  18.244  0.00  0.00    +0.000 C 
BRANCH   7  11
ATOM     11  C   UNL     1       6.515   4.885  14.586  0.00  0.00    +0.000 A 
ATOM     12  C   UNL     1       7.634   5.165  13.785  0.00  0.00    +0.000 A 
ATOM     13  C   UNL     1       7.707   4.727  12.461  0.00  0.00    +0.000 A 
ATOM     14  C   UNL     1       6.655   3.994  11.917  0.00  0.00    +0.000 A 
ATOM     15  C   UNL     1       5.554   3.705  12.712  0.00  0.00    +0.000 A 
ATOM     16  C   UNL     1       5.470   4.141  14.032  0.00  0.00    +0.000 A 
BRANCH  15  17
ATOM     17  O   UNL     1       4.487   3.019  12.215  0.00  0.00    +0.000 OA
ATOM     18  H   UNL     1       4.559   2.091  12.501  0.00  0.00    +0.000 HD
ENDBRANCH  15  17
ENDBRANCH   7  11
ENDBRANCH   1   3
BRANCH   1  22
ATOM     19  C   UNL     1       1.758   9.004  18.900  0.00  0.00    +0.000 A 
ATOM     20  C   UNL     1       1.648   8.408  20.155  0.00  0.00    +0.000 A 
ATOM     21  C   UNL     1       1.951   7.049  20.338  0.00  0.00    +0.000 A 
ATOM     22  C   UNL     1       2.312   6.226  19.268  0.00  0.00    +0.000 A 
ATOM     23  C   UNL     1       2.295   6.801  17.984  0.00  0.00    +0.000 A 
ATOM     24  C   UNL     1       2.039   8.181  17.804  0.00  0.00    +0.000 A 
BRANCH  19  25
ATOM     25  S   UNL     1       1.539  10.767  18.760  0.00  0.00    +0.000 S 
BRANCH  25  30
ATOM     26  C   UNL     1      -4.540  11.406  18.262  0.00  0.00    +0.000 C 
ATOM     27  C   UNL     1      -3.050  11.269  18.395  0.00  0.00    +0.000 A 
ATOM     28  C   UNL     1      -2.346  10.301  17.676  0.00  0.00    +0.000 A 
ATOM     29  C   UNL     1      -0.961  10.162  17.836  0.00  0.00    +0.000 A 
ATOM     30  C   UNL     1      -0.241  11.000  18.699  0.00  0.00    +0.000 A 
ATOM     31  C   UNL     1      -0.956  11.942  19.447  0.00  0.00    +0.000 A 
ATOM     32  C   UNL     1      -2.345  12.082  19.288  0.00  0.00    +0.000 A 
ENDBRANCH  25  30
ENDBRANCH  19  25
ENDBRANCH   1  22
TORSDOF 6
ENDMDL
MODEL 5
REMARK VINA RESULT:      -8.8      5.723      8.589
REMARK  Name = 
REMARK  7 active torsions:
REMARK  status: ('A' for Active; 'I' for Inactive)
REMARK    1  A    between atoms: C_1  and  C_2
REMARK    2  A    between atoms: C_5  and  S_6
REMARK    3  A    between atoms: S_6  and  C_7
REMARK    4  A    between atoms: C_10  and  C_11
REMARK    5  A    between atoms: C_11  and  C_13
REMARK    6  A    between atoms: C_17  and  C_19
REMARK    7  A    between atoms: C_23  and  O_24
REMARK                            x       y       z     vdW  Elec       q    Type
REMARK                         _______ _______ _______ _____ _____    ______ ____
ROOT
ATOM      1  C   UNL     1       7.405   7.618  17.500  0.00  0.00    +0.000 C 
ATOM      2  O   UNL     1       6.561   7.792  16.636  0.00  0.00    +0.000 OA
ENDROOT
BRANCH   1   3
ATOM      3  C   UNL     1       7.671   6.200  18.095  0.00  0.00    +0.000 C 
ATOM      4  C   UNL     1       7.593   5.033  17.123  0.00  0.00    +0.000 C 
ATOM      5  C   UNL     1       6.188   4.509  16.842  0.00  0.00    +0.000 C 
ATOM      6  N   UNL     1       5.306   4.407  18.016  0.00  0.00    +0.000 N 
ATOM      7  C   UNL     1       4.265   3.480  17.905  0.00  0.00    +0.000 C 
ATOM      8  O   UNL     1       4.214   2.679  16.951  0.00  0.00    +0.000 OA
ATOM      9  C   UNL     1       5.425   5.389  19.107  0.00  0.00    +0.000 C 
ATOM     10  C   UNL     1       6.850   5.841  19.360  0.00  0.00    +0.000 C 
BRANCH   7  11
ATOM     11  C   UNL     1       3.187   3.323  18.915  0.00  0.00    +0.000 A 
ATOM     12  C   UNL     1       1.974   3.995  18.688  0.00  0.00    +0.000 A 
ATOM     13  C   UNL     1       0.993   4.076  19.679  0.00  0.00    +0.000 A 
ATOM     14  C   UNL     1       1.211   3.478  20.917  0.00  0.00    +0.000 A 
ATOM     15  C   UNL     1       2.403   2.801  21.138  0.00  0.00    +0.000 A 
ATOM     16  C   UNL     1       3.390   2.719  20.159  0.00  0.00    +0.000 A 
BRANCH  15  17
ATOM     17  O   UNL     1       2.675   2.228  22.344  0.00  0.00    +0.000 OA
ATOM     18  H   UNL     1       2.343   1.313  22.330  0.00  0.00    +0.000 HD
ENDBRANCH  15  17
ENDBRANCH   7  11
ENDBRANCH   1   3
BRANCH   1  22
ATOM     19  C   UNL     1       9.532  11.184  18.910  0.00  0.00    +0.000 A 
ATOM     20  C   UNL     1       9.616   9.985  19.617  0.00  0.00    +0.000 A 
ATOM     21  C   UNL     1       8.950   8.833  19.167  0.00  0.00    +0.000 A 
ATOM     22  C   UNL     1       8.130   8.853  18.036  0.00  0.00    +0.000 A 
ATOM     23  C   UNL     1       7.946  10.095  17.400  0.00  0.00    +0.000 A 
ATOM     24  C   UNL     1       8.654  11.244  17.822  0.00  0.00    +0.000 A 
BRANCH  19  25
ATOM     25  S   UNL     1      10.541  12.560  19.423  0.00  0.00    +0.000 S 
BRANCH  25  30
ATOM     26  C   UNL     1       8.147  14.774  24.616  0.00  0.00    +0.000 C 
ATOM     27  C   UNL     1       8.732  14.211  23.353  0.00  0.00    +0.000 A 
ATOM     28  C   UNL     1       9.287  15.045  22.379  0.00  0.00    +0.000 A 
ATOM     29  C   UNL     1       9.799  14.508  21.190  0.00  0.00    +0.000 A 
ATOM     30  C   UNL     1       9.790  13.126  20.953  0.00  0.00    +0.000 A 
ATOM     31  C   UNL     1       9.197  12.299  21.914  0.00  0.00    +0.000 A 
ATOM     32  C   UNL     1       8.684  12.836  23.106  0.00  0.00    +0.000 A 
ENDBRANCH  25  30
ENDBRANCH  19  25
ENDBRANCH   1  22
TORSDOF 6
ENDMDL
MODEL 6
REMARK VINA RESULT:      -8.7      5.563      8.154
REMARK  Name = 
REMARK  7 active torsions:
REMARK  status: ('A' for Active; 'I' for Inactive)
REMARK    1  A    between atoms: C_1  and  C_2
REMARK    2  A    between atoms: C_5  and  S_6
REMARK    3  A    between atoms: S_6  and  C_7
REMARK    4  A    between atoms: C_10  and  C_11
REMARK    5  A    between atoms: C_11  and  C_13
REMARK    6  A    between atoms: C_17  and  C_19
REMARK    7  A    between atoms: C_23  and  O_24
REMARK                            x       y       z     vdW  Elec       q    Type
REMARK                         _______ _______ _______ _____ _____    ______ ____
ROOT
ATOM      1  C   UNL     1       7.260   7.442  17.413  0.00  0.00    +0.000 C 
ATOM      2  O   UNL     1       6.424   7.597  16.537  0.00  0.00    +0.000 OA
ENDROOT
BRANCH   1   3
ATOM      3  C   UNL     1       7.532   6.036  18.030  0.00  0.00    +0.000 C 
ATOM      4  C   UNL     1       7.475   4.855  17.074  0.00  0.00    +0.000 C 
ATOM      5  C   UNL     1       6.078   4.313  16.785  0.00  0.00    +0.000 C 
ATOM      6  N   UNL     1       5.184   4.220  17.951  0.00  0.00    +0.000 N 
ATOM      7  C   UNL     1       4.153   3.282  17.841  0.00  0.00    +0.000 C 
ATOM      8  O   UNL     1       4.120   2.468  16.898  0.00  0.00    +0.000 OA
ATOM      9  C   UNL     1       5.282   5.219  19.029  0.00  0.00    +0.000 C 
ATOM     10  C   UNL     1       6.700   5.687  19.292  0.00  0.00    +0.000 C 
BRANCH   7  11
ATOM     11  C   UNL     1       3.065   3.130  18.842  0.00  0.00    +0.000 A 
ATOM     12  C   UNL     1       1.809   3.678  18.532  0.00  0.00    +0.000 A 
ATOM     13  C   UNL     1       0.799   3.768  19.493  0.00  0.00    +0.000 A 
ATOM     14  C   UNL     1       1.032   3.303  20.785  0.00  0.00    +0.000 A 
ATOM     15  C   UNL     1       2.268   2.748  21.089  0.00  0.00    +0.000 A 
ATOM     16  C   UNL     1       3.283   2.659  20.139  0.00  0.00    +0.000 A 
BRANCH  15  17
ATOM     17  O   UNL     1       2.554   2.310  22.347  0.00  0.00    +0.000 OA
ATOM     18  H   UNL     1       3.188   1.574  22.279  0.00  0.00    +0.000 HD
ENDBRANCH  15  17
ENDBRANCH   7  11
ENDBRANCH   1   3
BRANCH   1  22
ATOM     19  C   UNL     1       9.333  11.052  18.791  0.00  0.00    +0.000 A 
ATOM     20  C   UNL     1       9.495   9.843  19.465  0.00  0.00    +0.000 A 
ATOM     21  C   UNL     1       8.847   8.678  19.025  0.00  0.00    +0.000 A 
ATOM     22  C   UNL     1       7.969   8.691  17.938  0.00  0.00    +0.000 A 
ATOM     23  C   UNL     1       7.709   9.939  17.341  0.00  0.00    +0.000 A 
ATOM     24  C   UNL     1       8.398  11.104  17.752  0.00  0.00    +0.000 A 
BRANCH  19  25
ATOM     25  S   UNL     1      10.319  12.452  19.282  0.00  0.00    +0.000 S 
BRANCH  25  30
ATOM     26  C   UNL     1       6.622  17.341  19.085  0.00  0.00    +0.000 C 
ATOM     27  C   UNL     1       7.520  16.139  19.154  0.00  0.00    +0.000 A 
ATOM     28  C   UNL     1       8.516  15.925  18.198  0.00  0.00    +0.000 A 
ATOM     29  C   UNL     1       9.324  14.782  18.256  0.00  0.00    +0.000 A 
ATOM     30  C   UNL     1       9.174  13.836  19.280  0.00  0.00    +0.000 A 
ATOM     31  C   UNL     1       8.149  14.035  20.213  0.00  0.00    +0.000 A 
ATOM     32  C   UNL     1       7.338  15.181  20.155  0.00  0.00    +0.000 A 
ENDBRANCH  25  30
ENDBRANCH  19  25
ENDBRANCH   1  22
TORSDOF 6
ENDMDL
MODEL 7
REMARK VINA RESULT:      -8.7      3.991     10.693
REMARK  Name = 
REMARK  7 active torsions:
REMARK  status: ('A' for Active; 'I' for Inactive)
REMARK    1  A    between atoms: C_1  and  C_2
REMARK    2  A    between atoms: C_5  and  S_6
REMARK    3  A    between atoms: S_6  and  C_7
REMARK    4  A    between atoms: C_10  and  C_11
REMARK    5  A    between atoms: C_11  and  C_13
REMARK    6  A    between atoms: C_17  and  C_19
REMARK    7  A    between atoms: C_23  and  O_24
REMARK                            x       y       z     vdW  Elec       q    Type
REMARK                         _______ _______ _______ _____ _____    ______ ____
ROOT
ATOM      1  C   UNL     1       1.395   8.866  19.659  0.00  0.00    +0.000 C 
ATOM      2  O   UNL     1       1.021   8.974  20.816  0.00  0.00    +0.000 OA
ENDROOT
BRANCH   1   3
ATOM      3  C   UNL     1       0.980   9.909  18.575  0.00  0.00    +0.000 C 
ATOM      4  C   UNL     1       1.272  11.367  18.893  0.00  0.00    +0.000 C 
ATOM      5  C   UNL     1       0.240  12.065  19.773  0.00  0.00    +0.000 C 
ATOM      6  N   UNL     1      -1.167  11.761  19.458  0.00  0.00    +0.000 N 
ATOM      7  C   UNL     1      -2.092  12.733  19.852  0.00  0.00    +0.000 C 
ATOM      8  O   UNL     1      -1.719  13.846  20.269  0.00  0.00    +0.000 OA
ATOM      9  C   UNL     1      -1.532  10.422  18.967  0.00  0.00    +0.000 C 
ATOM     10  C   UNL     1      -0.482   9.800  18.068  0.00  0.00    +0.000 C 
BRANCH   7  11
ATOM     11  C   UNL     1      -3.564  12.559  19.754  0.00  0.00    +0.000 A 
ATOM     12  C   UNL     1      -4.324  12.744  20.921  0.00  0.00    +0.000 A 
ATOM     13  C   UNL     1      -5.676  12.396  20.969  0.00  0.00    +0.000 A 
ATOM     14  C   UNL     1      -6.292  11.858  19.842  0.00  0.00    +0.000 A 
ATOM     15  C   UNL     1      -5.545  11.688  18.683  0.00  0.00    +0.000 A 
ATOM     16  C   UNL     1      -4.196  12.027  18.627  0.00  0.00    +0.000 A 
BRANCH  15  17
ATOM     17  O   UNL     1      -6.095  11.136  17.565  0.00  0.00    +0.000 OA
ATOM     18  H   UNL     1      -6.793  11.733  17.242  0.00  0.00    +0.000 HD
ENDBRANCH  15  17
ENDBRANCH   7  11
ENDBRANCH   1   3
BRANCH   1  22
ATOM     19  C   UNL     1       3.687   5.314  18.496  0.00  0.00    +0.000 A 
ATOM     20  C   UNL     1       3.048   5.369  19.733  0.00  0.00    +0.000 A 
ATOM     21  C   UNL     1       2.300   6.495  20.111  0.00  0.00    +0.000 A 
ATOM     22  C   UNL     1       2.215   7.627  19.296  0.00  0.00    +0.000 A 
ATOM     23  C   UNL     1       2.966   7.618  18.106  0.00  0.00    +0.000 A 
ATOM     24  C   UNL     1       3.680   6.465  17.702  0.00  0.00    +0.000 A 
BRANCH  19  25
ATOM     25  S   UNL     1       4.468   3.792  17.995  0.00  0.00    +0.000 S 
BRANCH  25  30
ATOM     26  C   UNL     1       7.799   5.149  13.028  0.00  0.00    +0.000 C 
ATOM     27  C   UNL     1       7.001   4.819  14.257  0.00  0.00    +0.000 A 
ATOM     28  C   UNL     1       5.720   4.271  14.162  0.00  0.00    +0.000 A 
ATOM     29  C   UNL     1       4.974   4.000  15.317  0.00  0.00    +0.000 A 
ATOM     30  C   UNL     1       5.495   4.249  16.595  0.00  0.00    +0.000 A 
ATOM     31  C   UNL     1       6.763   4.836  16.684  0.00  0.00    +0.000 A 
ATOM     32  C   UNL     1       7.512   5.107  15.526  0.00  0.00    +0.000 A 
ENDBRANCH  25  30
ENDBRANCH  19  25
ENDBRANCH   1  22
TORSDOF 6
ENDMDL
MODEL 8
REMARK VINA RESULT:      -8.6      4.722     11.565
REMARK  Name = 
REMARK  7 active torsions:
REMARK  status: ('A' for Active; 'I' for Inactive)
REMARK    1  A    between atoms: C_1  and  C_2
REMARK    2  A    between atoms: C_5  and  S_6
REMARK    3  A    between atoms: S_6  and  C_7
REMARK    4  A    between atoms: C_10  and  C_11
REMARK    5  A    between atoms: C_11  and  C_13
REMARK    6  A    between atoms: C_17  and  C_19
REMARK    7  A    between atoms: C_23  and  O_24
REMARK                            x       y       z     vdW  Elec       q    Type
REMARK                         _______ _______ _______ _____ _____    ______ ____
ROOT
ATOM      1  C   UNL     1      -0.009  10.337  18.349  0.00  0.00    +0.000 C 
ATOM      2  O   UNL     1      -0.981  10.049  17.670  0.00  0.00    +0.000 OA
ENDROOT
BRANCH   1   3
ATOM      3  C   UNL     1       0.250  11.806  18.807  0.00  0.00    +0.000 C 
ATOM      4  C   UNL     1       0.999  11.984  20.119  0.00  0.00    +0.000 C 
ATOM      5  C   UNL     1       0.146  11.880  21.379  0.00  0.00    +0.000 C 
ATOM      6  N   UNL     1      -1.166  12.546  21.310  0.00  0.00    +0.000 N 
ATOM      7  C   UNL     1      -1.713  12.920  22.542  0.00  0.00    +0.000 C 
ATOM      8  O   UNL     1      -1.044  12.852  23.591  0.00  0.00    +0.000 OA
ATOM      9  C   UNL     1      -1.898  12.588  20.033  0.00  0.00    +0.000 C 
ATOM     10  C   UNL     1      -0.995  12.731  18.823  0.00  0.00    +0.000 C 
BRANCH   7  11
ATOM     11  C   UNL     1      -3.081  13.475  22.703  0.00  0.00    +0.000 A 
ATOM     12  C   UNL     1      -3.220  14.872  22.744  0.00  0.00    +0.000 A 
ATOM     13  C   UNL     1      -4.430  15.471  23.103  0.00  0.00    +0.000 A 
ATOM     14  C   UNL     1      -5.527  14.675  23.424  0.00  0.00    +0.000 A 
ATOM     15  C   UNL     1      -5.394  13.293  23.370  0.00  0.00    +0.000 A 
ATOM     16  C   UNL     1      -4.191  12.687  23.019  0.00  0.00    +0.000 A 
BRANCH  15  17
ATOM     17  O   UNL     1      -6.430  12.473  23.707  0.00  0.00    +0.000 OA
ATOM     18  H   UNL     1      -7.260  12.900  23.432  0.00  0.00    +0.000 HD
ENDBRANCH  15  17
ENDBRANCH   7  11
ENDBRANCH   1   3
BRANCH   1  22
ATOM     19  C   UNL     1       2.806   7.070  19.138  0.00  0.00    +0.000 A 
ATOM     20  C   UNL     1       1.978   7.548  20.151  0.00  0.00    +0.000 A 
ATOM     21  C   UNL     1       1.062   8.585  19.907  0.00  0.00    +0.000 A 
ATOM     22  C   UNL     1       0.986   9.220  18.664  0.00  0.00    +0.000 A 
ATOM     23  C   UNL     1       1.914   8.822  17.684  0.00  0.00    +0.000 A 
ATOM     24  C   UNL     1       2.802   7.745  17.913  0.00  0.00    +0.000 A 
BRANCH  19  25
ATOM     25  S   UNL     1       3.815   5.636  19.454  0.00  0.00    +0.000 S 
BRANCH  25  30
ATOM     26  C   UNL     1       7.067   4.701  14.340  0.00  0.00    +0.000 C 
ATOM     27  C   UNL     1       6.288   4.941  15.601  0.00  0.00    +0.000 A 
ATOM     28  C   UNL     1       5.080   4.282  15.841  0.00  0.00    +0.000 A 
ATOM     29  C   UNL     1       4.347   4.541  17.007  0.00  0.00    +0.000 A 
ATOM     30  C   UNL     1       4.811   5.446  17.972  0.00  0.00    +0.000 A 
ATOM     31  C   UNL     1       6.003   6.133  17.709  0.00  0.00    +0.000 A 
ATOM     32  C   UNL     1       6.738   5.874  16.540  0.00  0.00    +0.000 A 
ENDBRANCH  25  30
ENDBRANCH  19  25
ENDBRANCH   1  22
TORSDOF 6
ENDMDL
MODEL 9
REMARK VINA RESULT:      -8.6      5.285     10.715
REMARK  Name = 
REMARK  7 active torsions:
REMARK  status: ('A' for Active; 'I' for Inactive)
REMARK    1  A    between atoms: C_1  and  C_2
REMARK    2  A    between atoms: C_5  and  S_6
REMARK    3  A    between atoms: S_6  and  C_7
REMARK    4  A    between atoms: C_10  and  C_11
REMARK    5  A    between atoms: C_11  and  C_13
REMARK    6  A    between atoms: C_17  and  C_19
REMARK    7  A    between atoms: C_23  and  O_24
REMARK                            x       y       z     vdW  Elec       q    Type
REMARK                         _______ _______ _______ _____ _____    ______ ____
ROOT
ATOM      1  C   UNL     1       0.515  10.608  19.634  0.00  0.00    +0.000 C 
ATOM      2  O   UNL     1      -0.261  10.810  18.714  0.00  0.00    +0.000 OA
ENDROOT
BRANCH   1   3
ATOM      3  C   UNL     1       0.908  11.748  20.624  0.00  0.00    +0.000 C 
ATOM      4  C   UNL     1      -0.233  12.407  21.383  0.00  0.00    +0.000 C 
ATOM      5  C   UNL     1      -0.977  13.502  20.624  0.00  0.00    +0.000 C 
ATOM      6  N   UNL     1      -0.129  14.419  19.845  0.00  0.00    +0.000 N 
ATOM      7  C   UNL     1      -0.681  15.679  19.595  0.00  0.00    +0.000 C 
ATOM      8  O   UNL     1      -1.734  16.043  20.153  0.00  0.00    +0.000 OA
ATOM      9  C   UNL     1       1.104  13.916  19.215  0.00  0.00    +0.000 C 
ATOM     10  C   UNL     1       1.815  12.860  20.037  0.00  0.00    +0.000 C 
BRANCH   7  11
ATOM     11  C   UNL     1      -0.052  16.697  18.714  0.00  0.00    +0.000 A 
ATOM     12  C   UNL     1      -0.900  17.527  17.963  0.00  0.00    +0.000 A 
ATOM     13  C   UNL     1      -0.398  18.358  16.959  0.00  0.00    +0.000 A 
ATOM     14  C   UNL     1       0.969  18.374  16.693  0.00  0.00    +0.000 A 
ATOM     15  C   UNL     1       1.810  17.564  17.445  0.00  0.00    +0.000 A 
ATOM     16  C   UNL     1       1.319  16.728  18.444  0.00  0.00    +0.000 A 
BRANCH  15  17
ATOM     17  O   UNL     1       3.150  17.521  17.200  0.00  0.00    +0.000 OA
ATOM     18  H   UNL     1       3.610  17.959  17.939  0.00  0.00    +0.000 HD
ENDBRANCH  15  17
ENDBRANCH   7  11
ENDBRANCH   1   3
BRANCH   1  22
ATOM     19  C   UNL     1       2.270   6.593  19.788  0.00  0.00    +0.000 A 
ATOM     20  C   UNL     1       1.679   7.150  20.921  0.00  0.00    +0.000 A 
ATOM     21  C   UNL     1       1.101   8.429  20.880  0.00  0.00    +0.000 A 
ATOM     22  C   UNL     1       1.149   9.220  19.728  0.00  0.00    +0.000 A 
ATOM     23  C   UNL     1       1.860   8.706  18.628  0.00  0.00    +0.000 A 
ATOM     24  C   UNL     1       2.399   7.399  18.652  0.00  0.00    +0.000 A 
BRANCH  19  25
ATOM     25  S   UNL     1       2.823   4.900  19.848  0.00  0.00    +0.000 S 
BRANCH  25  30
ATOM     26  C   UNL     1       7.089   4.667  15.449  0.00  0.00    +0.000 C 
ATOM     27  C   UNL     1       6.029   4.720  16.511  0.00  0.00    +0.000 A 
ATOM     28  C   UNL     1       6.310   5.206  17.790  0.00  0.00    +0.000 A 
ATOM     29  C   UNL     1       5.319   5.217  18.781  0.00  0.00    +0.000 A 
ATOM     30  C   UNL     1       4.019   4.766  18.515  0.00  0.00    +0.000 A 
ATOM     31  C   UNL     1       3.753   4.244  17.243  0.00  0.00    +0.000 A 
ATOM     32  C   UNL     1       4.745   4.232  16.249  0.00  0.00    +0.000 A 
ENDBRANCH  25  30
ENDBRANCH  19  25
ENDBRANCH   1  22
TORSDOF 6
ENDMDL
