MODEL 1
REMARK VINA RESULT:      -9.2      0.000      0.000
REMARK  Name = 
REMARK  9 active torsions:
REMARK  status: ('A' for Active; 'I' for Inactive)
REMARK    1  A    between atoms: C_1  and  O_2
REMARK    2  A    between atoms: O_2  and  C_3
REMARK    3  A    between atoms: C_9  and  C_10
REMARK    4  A    between atoms: C_14  and  C_15
REMARK    5  A    between atoms: C_15  and  C_16
REMARK    6  A    between atoms: C_15  and  C_20
REMARK    7  A    between atoms: C_16  and  C_17
REMARK    8  A    between atoms: C_17  and  O_19
REMARK    9  A    between atoms: C_23  and  C_24
REMARK                            x       y       z     vdW  Elec       q    Type
REMARK                         _______ _______ _______ _____ _____    ______ ____
ROOT
ATOM      1  C   UNL     1       3.062   5.829  18.172  0.00  0.00    +0.000 A 
ATOM      2  C   UNL     1       2.378   4.674  17.754  0.00  0.00    +0.000 A 
ATOM      3  C   UNL     1       3.028   3.642  17.068  0.00  0.00    +0.000 A 
ATOM      4  C   UNL     1       4.384   3.744  16.768  0.00  0.00    +0.000 A 
ATOM      5  C   UNL     1       5.104   4.877  17.161  0.00  0.00    +0.000 A 
ATOM      6  C   UNL     1       4.430   5.897  17.858  0.00  0.00    +0.000 A 
ENDROOT
BRANCH   1  13
ATOM      7  C   UNL     1       1.934   6.763  20.278  0.00  0.00    +0.000 A 
ATOM      8  C   UNL     1       1.301   7.825  20.948  0.00  0.00    +0.000 A 
ATOM      9  C   UNL     1       1.088   9.046  20.313  0.00  0.00    +0.000 A 
ATOM     10  C   UNL     1       1.502   9.211  18.999  0.00  0.00    +0.000 A 
ATOM     11  C   UNL     1       2.132   8.161  18.332  0.00  0.00    +0.000 A 
ATOM     12  F   UNL     1       2.479   8.383  17.053  0.00  0.00    +0.000 F 
ATOM     13  C   UNL     1       2.386   6.914  18.941  0.00  0.00    +0.000 A 
BRANCH   7  15
ATOM     14  C   UNL     1       1.231   4.544  20.776  0.00  0.00    +0.000 C 
ATOM     15  O   UNL     1       2.203   5.577  20.923  0.00  0.00    +0.000 OA
ENDBRANCH   7  15
ENDBRANCH   1  13
BRANCH   5  16
ATOM     16  C   UNL     1       6.593   4.995  16.852  0.00  0.00    +0.000 C 
BRANCH  16  17
ATOM     17  C   UNL     1       6.857   4.878  15.381  0.00  0.00    +0.000 A 
ATOM     18  N   UNL     1       7.719   5.541  14.635  0.00  0.00    +0.000 NA
ATOM     19  N   UNL     1       7.566   5.071  13.350  0.00  0.00    +0.000 NA
ATOM     20  C   UNL     1       6.621   4.157  13.399  0.00  0.00    +0.000 A 
ATOM     21  C   UNL     1       6.048   3.339  12.317  0.00  0.00    +0.000 C 
ATOM     22  O   UNL     1       6.129   3.964  14.663  0.00  0.00    +0.000 OA
ENDBRANCH  16  17
BRANCH  16  23
ATOM     23  C   UNL     1       7.184   6.321  17.368  0.00  0.00    +0.000 C 
BRANCH  23  24
ATOM     24  C   UNL     1       7.787   6.170  18.737  0.00  0.00    +0.000 C 
ATOM     25  O   UNL     1       7.650   5.185  19.445  0.00  0.00    +0.000 OA
BRANCH  24  26
ATOM     26  O   UNL     1       8.574   7.212  19.091  0.00  0.00    +0.000 OA
ATOM     27  H   UNL     1       8.377   8.053  18.631  0.00  0.00    +0.000 HD
ENDBRANCH  24  26
ENDBRANCH  23  24
ENDBRANCH  16  23
ENDBRANCH   5  16
TORSDOF 7
ENDMDL
MODEL 2
REMARK VINA RESULT:      -8.7      2.551      4.689
REMARK  Name = 
REMARK  9 active torsions:
REMARK  status: ('A' for Active; 'I' for Inactive)
REMARK    1  A    between atoms: C_1  and  O_2
REMARK    2  A    between atoms: O_2  and  C_3
REMARK    3  A    between atoms: C_9  and  C_10
REMARK    4  A    between atoms: C_14  and  C_15
REMARK    5  A    between atoms: C_15  and  C_16
REMARK    6  A    between atoms: C_15  and  C_20
REMARK    7  A    between atoms: C_16  and  C_17
REMARK    8  A    between atoms: C_17  and  O_19
REMARK    9  A    between atoms: C_23  and  C_24
REMARK                            x       y       z     vdW  Elec       q    Type
REMARK                         _______ _______ _______ _____ _____    ______ ____
ROOT
ATOM      1  C   UNL     1       2.849   5.667  18.591  0.00  0.00    +0.000 A 
ATOM      2  C   UNL     1       2.163   6.879  18.395  0.00  0.00    +0.000 A 
ATOM      3  C   UNL     1       2.724   7.932  17.665  0.00  0.00    +0.000 A 
ATOM      4  C   UNL     1       4.000   7.807  17.120  0.00  0.00    +0.000 A 
ATOM      5  C   UNL     1       4.722   6.622  17.294  0.00  0.00    +0.000 A 
ATOM      6  C   UNL     1       4.131   5.572  18.024  0.00  0.00    +0.000 A 
ENDROOT
BRANCH   1  13
ATOM      7  C   UNL     1       1.761   3.347  18.699  0.00  0.00    +0.000 A 
ATOM      8  C   UNL     1       1.195   2.304  19.454  0.00  0.00    +0.000 A 
ATOM      9  C   UNL     1       1.077   2.406  20.838  0.00  0.00    +0.000 A 
ATOM     10  C   UNL     1       1.519   3.555  21.477  0.00  0.00    +0.000 A 
ATOM     11  C   UNL     1       2.083   4.590  20.731  0.00  0.00    +0.000 A 
ATOM     12  F   UNL     1       2.462   5.684  21.413  0.00  0.00    +0.000 F 
ATOM     13  C   UNL     1       2.240   4.524  19.331  0.00  0.00    +0.000 A 
BRANCH   7  15
ATOM     14  C   UNL     1       2.953   2.316  16.916  0.00  0.00    +0.000 C 
ATOM     15  O   UNL     1       1.937   3.223  17.340  0.00  0.00    +0.000 OA
ENDBRANCH   7  15
ENDBRANCH   1  13
BRANCH   5  16
ATOM     16  C   UNL     1       6.113   6.466  16.690  0.00  0.00    +0.000 C 
BRANCH  16  17
ATOM     17  C   UNL     1       7.145   7.194  17.498  0.00  0.00    +0.000 A 
ATOM     18  N   UNL     1       7.896   6.748  18.486  0.00  0.00    +0.000 NA
ATOM     19  N   UNL     1       8.671   7.810  18.898  0.00  0.00    +0.000 NA
ATOM     20  C   UNL     1       8.337   8.829  18.138  0.00  0.00    +0.000 A 
ATOM     21  C   UNL     1       8.842  10.213  18.148  0.00  0.00    +0.000 C 
ATOM     22  O   UNL     1       7.381   8.514  17.209  0.00  0.00    +0.000 OA
ENDBRANCH  16  17
BRANCH  16  23
ATOM     23  C   UNL     1       6.523   4.986  16.564  0.00  0.00    +0.000 C 
BRANCH  23  24
ATOM     24  C   UNL     1       6.797   4.601  15.136  0.00  0.00    +0.000 C 
ATOM     25  O   UNL     1       6.222   3.704  14.542  0.00  0.00    +0.000 OA
BRANCH  24  26
ATOM     26  O   UNL     1       7.704   5.405  14.534  0.00  0.00    +0.000 OA
ATOM     27  H   UNL     1       7.650   6.348  14.783  0.00  0.00    +0.000 HD
ENDBRANCH  24  26
ENDBRANCH  23  24
ENDBRANCH  16  23
ENDBRANCH   5  16
TORSDOF 7
ENDMDL
MODEL 3
REMARK VINA RESULT:      -8.7      2.218      3.976
REMARK  Name = 
REMARK  9 active torsions:
REMARK  status: ('A' for Active; 'I' for Inactive)
REMARK    1  A    between atoms: C_1  and  O_2
REMARK    2  A    between atoms: O_2  and  C_3
REMARK    3  A    between atoms: C_9  and  C_10
REMARK    4  A    between atoms: C_14  and  C_15
REMARK    5  A    between atoms: C_15  and  C_16
REMARK    6  A    between atoms: C_15  and  C_20
REMARK    7  A    between atoms: C_16  and  C_17
REMARK    8  A    between atoms: C_17  and  O_19
REMARK    9  A    between atoms: C_23  and  C_24
REMARK                            x       y       z     vdW  Elec       q    Type
REMARK                         _______ _______ _______ _____ _____    ______ ____
ROOT
ATOM      1  C   UNL     1       2.647   5.984  18.468  0.00  0.00    +0.000 A 
ATOM      2  C   UNL     1       2.062   4.723  18.256  0.00  0.00    +0.000 A 
ATOM      3  C   UNL     1       2.659   3.767  17.427  0.00  0.00    +0.000 A 
ATOM      4  C   UNL     1       3.856   4.052  16.774  0.00  0.00    +0.000 A 
ATOM      5  C   UNL     1       4.471   5.296  16.952  0.00  0.00    +0.000 A 
ATOM      6  C   UNL     1       3.856   6.238  17.799  0.00  0.00    +0.000 A 
ENDROOT
BRANCH   1  13
ATOM      7  C   UNL     1       1.830   8.351  19.026  0.00  0.00    +0.000 A 
ATOM      8  C   UNL     1       1.252   9.255  19.936  0.00  0.00    +0.000 A 
ATOM      9  C   UNL     1       0.886   8.844  21.215  0.00  0.00    +0.000 A 
ATOM     10  C   UNL     1       1.099   7.527  21.596  0.00  0.00    +0.000 A 
ATOM     11  C   UNL     1       1.669   6.628  20.695  0.00  0.00    +0.000 A 
ATOM     12  F   UNL     1       1.873   5.378  21.142  0.00  0.00    +0.000 F 
ATOM     13  C   UNL     1       2.039   6.994  19.384  0.00  0.00    +0.000 A 
BRANCH   7  15
ATOM     14  C   UNL     1       2.220  10.142  17.507  0.00  0.00    +0.000 C 
ATOM     15  O   UNL     1       2.134   8.737  17.741  0.00  0.00    +0.000 OA
ENDBRANCH   7  15
ENDBRANCH   1  13
BRANCH   5  16
ATOM     16  C   UNL     1       5.789   5.616  16.255  0.00  0.00    +0.000 C 
BRANCH  16  17
ATOM     17  C   UNL     1       6.741   6.312  17.180  0.00  0.00    +0.000 A 
ATOM     18  N   UNL     1       7.387   5.833  18.226  0.00  0.00    +0.000 NA
ATOM     19  N   UNL     1       8.126   6.876  18.740  0.00  0.00    +0.000 NA
ATOM     20  C   UNL     1       7.878   7.917  17.976  0.00  0.00    +0.000 A 
ATOM     21  C   UNL     1       8.391   9.294  18.072  0.00  0.00    +0.000 C 
ATOM     22  O   UNL     1       7.016   7.636  16.950  0.00  0.00    +0.000 OA
ENDBRANCH  16  17
BRANCH  16  23
ATOM     23  C   UNL     1       6.464   4.350  15.693  0.00  0.00    +0.000 C 
BRANCH  23  24
ATOM     24  C   UNL     1       6.936   4.549  14.279  0.00  0.00    +0.000 C 
ATOM     25  O   UNL     1       7.716   5.420  13.929  0.00  0.00    +0.000 OA
BRANCH  24  26
ATOM     26  O   UNL     1       6.469   3.609  13.425  0.00  0.00    +0.000 OA
ATOM     27  H   UNL     1       5.585   3.255  13.644  0.00  0.00    +0.000 HD
ENDBRANCH  24  26
ENDBRANCH  23  24
ENDBRANCH  16  23
ENDBRANCH   5  16
TORSDOF 7
ENDMDL
MODEL 4
REMARK VINA RESULT:      -8.6      1.556      2.855
REMARK  Name = 
REMARK  9 active torsions:
REMARK  status: ('A' for Active; 'I' for Inactive)
REMARK    1  A    between atoms: C_1  and  O_2
REMARK    2  A    between atoms: O_2  and  C_3
REMARK    3  A    between atoms: C_9  and  C_10
REMARK    4  A    between atoms: C_14  and  C_15
REMARK    5  A    between atoms: C_15  and  C_16
REMARK    6  A    between atoms: C_15  and  C_20
REMARK    7  A    between atoms: C_16  and  C_17
REMARK    8  A    between atoms: C_17  and  O_19
REMARK    9  A    between atoms: C_23  and  C_24
REMARK                            x       y       z     vdW  Elec       q    Type
REMARK                         _______ _______ _______ _____ _____    ______ ____
ROOT
ATOM      1  C   UNL     1       3.202   5.276  18.175  0.00  0.00    +0.000 A 
ATOM      2  C   UNL     1       2.858   6.594  17.827  0.00  0.00    +0.000 A 
ATOM      3  C   UNL     1       3.755   7.436  17.161  0.00  0.00    +0.000 A 
ATOM      4  C   UNL     1       5.032   6.985  16.835  0.00  0.00    +0.000 A 
ATOM      5  C   UNL     1       5.419   5.682  17.166  0.00  0.00    +0.000 A 
ATOM      6  C   UNL     1       4.495   4.851  17.827  0.00  0.00    +0.000 A 
ENDROOT
BRANCH   1  13
ATOM      7  C   UNL     1       1.790   4.532  20.184  0.00  0.00    +0.000 A 
ATOM      8  C   UNL     1       0.879   3.630  20.761  0.00  0.00    +0.000 A 
ATOM      9  C   UNL     1       0.404   2.535  20.043  0.00  0.00    +0.000 A 
ATOM     10  C   UNL     1       0.842   2.332  18.743  0.00  0.00    +0.000 A 
ATOM     11  C   UNL     1       1.744   3.226  18.166  0.00  0.00    +0.000 A 
ATOM     12  F   UNL     1       2.146   2.950  16.914  0.00  0.00    +0.000 F 
ATOM     13  C   UNL     1       2.236   4.358  18.848  0.00  0.00    +0.000 A 
BRANCH   7  15
ATOM     14  C   UNL     1       1.270   6.716  20.976  0.00  0.00    +0.000 C 
ATOM     15  O   UNL     1       2.211   5.649  20.868  0.00  0.00    +0.000 OA
ENDBRANCH   7  15
ENDBRANCH   1  13
BRANCH   5  16
ATOM     16  C   UNL     1       6.808   5.170  16.801  0.00  0.00    +0.000 C 
BRANCH  16  17
ATOM     17  C   UNL     1       6.946   4.968  15.322  0.00  0.00    +0.000 A 
ATOM     18  N   UNL     1       7.741   5.584  14.468  0.00  0.00    +0.000 NA
ATOM     19  N   UNL     1       7.478   5.042  13.230  0.00  0.00    +0.000 NA
ATOM     20  C   UNL     1       6.540   4.138  13.412  0.00  0.00    +0.000 A 
ATOM     21  C   UNL     1       5.876   3.263  12.431  0.00  0.00    +0.000 C 
ATOM     22  O   UNL     1       6.158   4.020  14.722  0.00  0.00    +0.000 OA
ENDBRANCH  16  17
BRANCH  16  23
ATOM     23  C   UNL     1       7.918   6.123  17.287  0.00  0.00    +0.000 C 
BRANCH  23  24
ATOM     24  C   UNL     1       7.963   6.209  18.788  0.00  0.00    +0.000 C 
ATOM     25  O   UNL     1       7.594   5.322  19.540  0.00  0.00    +0.000 OA
BRANCH  24  26
ATOM     26  O   UNL     1       8.532   7.351  19.238  0.00  0.00    +0.000 OA
ATOM     27  H   UNL     1       9.451   7.501  18.940  0.00  0.00    +0.000 HD
ENDBRANCH  24  26
ENDBRANCH  23  24
ENDBRANCH  16  23
ENDBRANCH   5  16
TORSDOF 7
ENDMDL
MODEL 5
REMARK VINA RESULT:      -8.5      2.029      3.313
REMARK  Name = 
REMARK  9 active torsions:
REMARK  status: ('A' for Active; 'I' for Inactive)
REMARK    1  A    between atoms: C_1  and  O_2
REMARK    2  A    between atoms: O_2  and  C_3
REMARK    3  A    between atoms: C_9  and  C_10
REMARK    4  A    between atoms: C_14  and  C_15
REMARK    5  A    between atoms: C_15  and  C_16
REMARK    6  A    between atoms: C_15  and  C_20
REMARK    7  A    between atoms: C_16  and  C_17
REMARK    8  A    between atoms: C_17  and  O_19
REMARK    9  A    between atoms: C_23  and  C_24
REMARK                            x       y       z     vdW  Elec       q    Type
REMARK                         _______ _______ _______ _____ _____    ______ ____
ROOT
ATOM      1  C   UNL     1       3.260   5.410  18.693  0.00  0.00    +0.000 A 
ATOM      2  C   UNL     1       2.581   6.570  18.281  0.00  0.00    +0.000 A 
ATOM      3  C   UNL     1       3.205   7.548  17.498  0.00  0.00    +0.000 A 
ATOM      4  C   UNL     1       4.536   7.398  17.115  0.00  0.00    +0.000 A 
ATOM      5  C   UNL     1       5.252   6.261  17.506  0.00  0.00    +0.000 A 
ATOM      6  C   UNL     1       4.599   5.287  18.285  0.00  0.00    +0.000 A 
ENDROOT
BRANCH   1  13
ATOM      7  C   UNL     1       2.243   3.071  18.966  0.00  0.00    +0.000 A 
ATOM      8  C   UNL     1       1.611   2.107  19.772  0.00  0.00    +0.000 A 
ATOM      9  C   UNL     1       1.294   2.382  21.100  0.00  0.00    +0.000 A 
ATOM     10  C   UNL     1       1.603   3.626  21.631  0.00  0.00    +0.000 A 
ATOM     11  C   UNL     1       2.233   4.583  20.835  0.00  0.00    +0.000 A 
ATOM     12  F   UNL     1       2.475   5.774  21.407  0.00  0.00    +0.000 F 
ATOM     13  C   UNL     1       2.590   4.343  19.492  0.00  0.00    +0.000 A 
BRANCH   7  15
ATOM     14  C   UNL     1       3.668   1.830  17.518  0.00  0.00    +0.000 C 
ATOM     15  O   UNL     1       2.615   2.780  17.674  0.00  0.00    +0.000 OA
ENDBRANCH   7  15
ENDBRANCH   1  13
BRANCH   5  16
ATOM     16  C   UNL     1       6.705   6.077  17.081  0.00  0.00    +0.000 C 
BRANCH  16  17
ATOM     17  C   UNL     1       6.801   5.501  15.701  0.00  0.00    +0.000 A 
ATOM     18  N   UNL     1       7.757   5.647  14.803  0.00  0.00    +0.000 NA
ATOM     19  N   UNL     1       7.367   4.925  13.697  0.00  0.00    +0.000 NA
ATOM     20  C   UNL     1       6.201   4.393  13.993  0.00  0.00    +0.000 A 
ATOM     21  C   UNL     1       5.326   3.536  13.177  0.00  0.00    +0.000 C 
ATOM     22  O   UNL     1       5.779   4.700  15.260  0.00  0.00    +0.000 OA
ENDBRANCH  16  17
BRANCH  16  23
ATOM     23  C   UNL     1       7.491   7.401  17.134  0.00  0.00    +0.000 C 
BRANCH  23  24
ATOM     24  C   UNL     1       8.231   7.560  18.434  0.00  0.00    +0.000 C 
ATOM     25  O   UNL     1       8.698   8.613  18.835  0.00  0.00    +0.000 OA
BRANCH  24  26
ATOM     26  O   UNL     1       8.266   6.425  19.168  0.00  0.00    +0.000 OA
ATOM     27  H   UNL     1       7.837   5.651  18.754  0.00  0.00    +0.000 HD
ENDBRANCH  24  26
ENDBRANCH  23  24
ENDBRANCH  16  23
ENDBRANCH   5  16
TORSDOF 7
ENDMDL
MODEL 6
REMARK VINA RESULT:      -8.5      1.434      2.090
REMARK  Name = 
REMARK  9 active torsions:
REMARK  status: ('A' for Active; 'I' for Inactive)
REMARK    1  A    between atoms: C_1  and  O_2
REMARK    2  A    between atoms: O_2  and  C_3
REMARK    3  A    between atoms: C_9  and  C_10
REMARK    4  A    between atoms: C_14  and  C_15
REMARK    5  A    between atoms: C_15  and  C_16
REMARK    6  A    between atoms: C_15  and  C_20
REMARK    7  A    between atoms: C_16  and  C_17
REMARK    8  A    between atoms: C_17  and  O_19
REMARK    9  A    between atoms: C_23  and  C_24
REMARK                            x       y       z     vdW  Elec       q    Type
REMARK                         _______ _______ _______ _____ _____    ______ ____
ROOT
ATOM      1  C   UNL     1       2.897   5.738  18.491  0.00  0.00    +0.000 A 
ATOM      2  C   UNL     1       2.208   4.639  17.948  0.00  0.00    +0.000 A 
ATOM      3  C   UNL     1       2.855   3.686  17.153  0.00  0.00    +0.000 A 
ATOM      4  C   UNL     1       4.212   3.814  16.868  0.00  0.00    +0.000 A 
ATOM      5  C   UNL     1       4.937   4.894  17.384  0.00  0.00    +0.000 A 
ATOM      6  C   UNL     1       4.266   5.834  18.189  0.00  0.00    +0.000 A 
ENDROOT
BRANCH   1  13
ATOM      7  C   UNL     1       2.117   8.114  19.060  0.00  0.00    +0.000 A 
ATOM      8  C   UNL     1       1.470   9.005  19.936  0.00  0.00    +0.000 A 
ATOM      9  C   UNL     1       0.934   8.558  21.141  0.00  0.00    +0.000 A 
ATOM     10  C   UNL     1       1.045   7.218  21.481  0.00  0.00    +0.000 A 
ATOM     11  C   UNL     1       1.683   6.332  20.613  0.00  0.00    +0.000 A 
ATOM     12  F   UNL     1       1.778   5.055  21.021  0.00  0.00    +0.000 F 
ATOM     13  C   UNL     1       2.224   6.735  19.375  0.00  0.00    +0.000 A 
BRANCH   7  15
ATOM     14  C   UNL     1       2.283   9.884  17.477  0.00  0.00    +0.000 C 
ATOM     15  O   UNL     1       2.591   8.540  17.840  0.00  0.00    +0.000 OA
ENDBRANCH   7  15
ENDBRANCH   1  13
BRANCH   5  16
ATOM     16  C   UNL     1       6.426   5.038  17.092  0.00  0.00    +0.000 C 
BRANCH  16  17
ATOM     17  C   UNL     1       6.707   4.946  15.622  0.00  0.00    +0.000 A 
ATOM     18  N   UNL     1       7.541   5.657  14.888  0.00  0.00    +0.000 NA
ATOM     19  N   UNL     1       7.419   5.191  13.597  0.00  0.00    +0.000 NA
ATOM     20  C   UNL     1       6.520   4.232  13.633  0.00  0.00    +0.000 A 
ATOM     21  C   UNL     1       5.995   3.397  12.539  0.00  0.00    +0.000 C 
ATOM     22  O   UNL     1       6.029   4.005  14.891  0.00  0.00    +0.000 OA
ENDBRANCH  16  17
BRANCH  16  23
ATOM     23  C   UNL     1       6.992   6.365  17.633  0.00  0.00    +0.000 C 
BRANCH  23  24
ATOM     24  C   UNL     1       7.805   6.159  18.882  0.00  0.00    +0.000 C 
ATOM     25  O   UNL     1       7.841   5.117  19.515  0.00  0.00    +0.000 OA
BRANCH  24  26
ATOM     26  O   UNL     1       8.566   7.230  19.204  0.00  0.00    +0.000 OA
ATOM     27  H   UNL     1       9.454   7.017  19.551  0.00  0.00    +0.000 HD
ENDBRANCH  24  26
ENDBRANCH  23  24
ENDBRANCH  16  23
ENDBRANCH   5  16
TORSDOF 7
ENDMDL
MODEL 7
REMARK VINA RESULT:      -8.4      1.737      3.402
REMARK  Name = 
REMARK  9 active torsions:
REMARK  status: ('A' for Active; 'I' for Inactive)
REMARK    1  A    between atoms: C_1  and  O_2
REMARK    2  A    between atoms: O_2  and  C_3
REMARK    3  A    between atoms: C_9  and  C_10
REMARK    4  A    between atoms: C_14  and  C_15
REMARK    5  A    between atoms: C_15  and  C_16
REMARK    6  A    between atoms: C_15  and  C_20
REMARK    7  A    between atoms: C_16  and  C_17
REMARK    8  A    between atoms: C_17  and  O_19
REMARK    9  A    between atoms: C_23  and  C_24
REMARK                            x       y       z     vdW  Elec       q    Type
REMARK                         _______ _______ _______ _____ _____    ______ ____
ROOT
ATOM      1  C   UNL     1       2.856   5.692  18.242  0.00  0.00    +0.000 A 
ATOM      2  C   UNL     1       2.333   4.430  17.907  0.00  0.00    +0.000 A 
ATOM      3  C   UNL     1       2.990   3.574  17.017  0.00  0.00    +0.000 A 
ATOM      4  C   UNL     1       4.188   3.964  16.423  0.00  0.00    +0.000 A 
ATOM      5  C   UNL     1       4.743   5.212  16.723  0.00  0.00    +0.000 A 
ATOM      6  C   UNL     1       4.068   6.052  17.629  0.00  0.00    +0.000 A 
ENDROOT
BRANCH   1  13
ATOM      7  C   UNL     1       1.507   6.125  20.380  0.00  0.00    +0.000 A 
ATOM      8  C   UNL     1       0.891   7.026  21.267  0.00  0.00    +0.000 A 
ATOM      9  C   UNL     1       0.915   8.397  21.023  0.00  0.00    +0.000 A 
ATOM     10  C   UNL     1       1.552   8.877  19.888  0.00  0.00    +0.000 A 
ATOM     11  C   UNL     1       2.166   7.986  19.008  0.00  0.00    +0.000 A 
ATOM     12  F   UNL     1       2.737   8.519  17.915  0.00  0.00    +0.000 F 
ATOM     13  C   UNL     1       2.183   6.592  19.223  0.00  0.00    +0.000 A 
BRANCH   7  15
ATOM     14  C   UNL     1       2.531   4.343  21.580  0.00  0.00    +0.000 C 
ATOM     15  O   UNL     1       1.540   4.776  20.650  0.00  0.00    +0.000 OA
ENDBRANCH   7  15
ENDBRANCH   1  13
BRANCH   5  16
ATOM     16  C   UNL     1       6.062   5.645  16.091  0.00  0.00    +0.000 C 
BRANCH  16  17
ATOM     17  C   UNL     1       6.936   6.353  17.082  0.00  0.00    +0.000 A 
ATOM     18  N   UNL     1       7.545   5.872  18.149  0.00  0.00    +0.000 NA
ATOM     19  N   UNL     1       8.213   6.928  18.727  0.00  0.00    +0.000 NA
ATOM     20  C   UNL     1       7.965   7.980  17.977  0.00  0.00    +0.000 A 
ATOM     21  C   UNL     1       8.417   9.372  18.134  0.00  0.00    +0.000 C 
ATOM     22  O   UNL     1       7.169   7.692  16.900  0.00  0.00    +0.000 OA
ENDBRANCH  16  17
BRANCH  16  23
ATOM     23  C   UNL     1       6.835   4.451  15.498  0.00  0.00    +0.000 C 
BRANCH  23  24
ATOM     24  C   UNL     1       7.057   4.609  14.019  0.00  0.00    +0.000 C 
ATOM     25  O   UNL     1       6.458   3.979  13.162  0.00  0.00    +0.000 OA
BRANCH  24  26
ATOM     26  O   UNL     1       7.943   5.585  13.715  0.00  0.00    +0.000 OA
ATOM     27  H   UNL     1       7.673   6.175  12.984  0.00  0.00    +0.000 HD
ENDBRANCH  24  26
ENDBRANCH  23  24
ENDBRANCH  16  23
ENDBRANCH   5  16
TORSDOF 7
ENDMDL
MODEL 8
REMARK VINA RESULT:      -8.4      3.872      5.778
REMARK  Name = 
REMARK  9 active torsions:
REMARK  status: ('A' for Active; 'I' for Inactive)
REMARK    1  A    between atoms: C_1  and  O_2
REMARK    2  A    between atoms: O_2  and  C_3
REMARK    3  A    between atoms: C_9  and  C_10
REMARK    4  A    between atoms: C_14  and  C_15
REMARK    5  A    between atoms: C_15  and  C_16
REMARK    6  A    between atoms: C_15  and  C_20
REMARK    7  A    between atoms: C_16  and  C_17
REMARK    8  A    between atoms: C_17  and  O_19
REMARK    9  A    between atoms: C_23  and  C_24
REMARK                            x       y       z     vdW  Elec       q    Type
REMARK                         _______ _______ _______ _____ _____    ______ ____
ROOT
ATOM      1  C   UNL     1       1.084   9.246  19.877  0.00  0.00    +0.000 A 
ATOM      2  C   UNL     1       0.991   9.564  18.510  0.00  0.00    +0.000 A 
ATOM      3  C   UNL     1       1.621   8.789  17.531  0.00  0.00    +0.000 A 
ATOM      4  C   UNL     1       2.376   7.676  17.894  0.00  0.00    +0.000 A 
ATOM      5  C   UNL     1       2.500   7.324  19.242  0.00  0.00    +0.000 A 
ATOM      6  C   UNL     1       1.848   8.115  20.209  0.00  0.00    +0.000 A 
ENDROOT
BRANCH   1  13
ATOM      7  C   UNL     1       0.484  11.454  21.036  0.00  0.00    +0.000 A 
ATOM      8  C   UNL     1      -0.204  12.148  22.048  0.00  0.00    +0.000 A 
ATOM      9  C   UNL     1      -0.990  11.468  22.974  0.00  0.00    +0.000 A 
ATOM     10  C   UNL     1      -1.090  10.086  22.898  0.00  0.00    +0.000 A 
ATOM     11  C   UNL     1      -0.411   9.395  21.895  0.00  0.00    +0.000 A 
ATOM     12  F   UNL     1      -0.531   8.057  21.901  0.00  0.00    +0.000 F 
ATOM     13  C   UNL     1       0.381  10.043  20.924  0.00  0.00    +0.000 A 
BRANCH   7  15
ATOM     14  C   UNL     1       1.382  13.529  20.293  0.00  0.00    +0.000 C 
ATOM     15  O   UNL     1       1.210  12.130  20.082  0.00  0.00    +0.000 OA
ENDBRANCH   7  15
ENDBRANCH   1  13
BRANCH   5  16
ATOM     16  C   UNL     1       3.311   6.100  19.653  0.00  0.00    +0.000 C 
BRANCH  16  17
ATOM     17  C   UNL     1       2.421   4.933  19.961  0.00  0.00    +0.000 A 
ATOM     18  N   UNL     1       1.935   4.542  21.124  0.00  0.00    +0.000 NA
ATOM     19  N   UNL     1       1.185   3.414  20.872  0.00  0.00    +0.000 NA
ATOM     20  C   UNL     1       1.267   3.194  19.578  0.00  0.00    +0.000 A 
ATOM     21  C   UNL     1       0.668   2.120  18.769  0.00  0.00    +0.000 C 
ATOM     22  O   UNL     1       2.025   4.129  18.924  0.00  0.00    +0.000 OA
ENDBRANCH  16  17
BRANCH  16  23
ATOM     23  C   UNL     1       4.323   5.690  18.566  0.00  0.00    +0.000 C 
BRANCH  23  24
ATOM     24  C   UNL     1       5.433   4.844  19.127  0.00  0.00    +0.000 C 
ATOM     25  O   UNL     1       6.363   5.278  19.787  0.00  0.00    +0.000 OA
BRANCH  24  26
ATOM     26  O   UNL     1       5.264   3.522  18.893  0.00  0.00    +0.000 OA
ATOM     27  H   UNL     1       5.271   2.957  19.691  0.00  0.00    +0.000 HD
ENDBRANCH  24  26
ENDBRANCH  23  24
ENDBRANCH  16  23
ENDBRANCH   5  16
TORSDOF 7
ENDMDL
MODEL 9
REMARK VINA RESULT:      -8.4      2.320      4.527
REMARK  Name = 
REMARK  9 active torsions:
REMARK  status: ('A' for Active; 'I' for Inactive)
REMARK    1  A    between atoms: C_1  and  O_2
REMARK    2  A    between atoms: O_2  and  C_3
REMARK    3  A    between atoms: C_9  and  C_10
REMARK    4  A    between atoms: C_14  and  C_15
REMARK    5  A    between atoms: C_15  and  C_16
REMARK    6  A    between atoms: C_15  and  C_20
REMARK    7  A    between atoms: C_16  and  C_17
REMARK    8  A    between atoms: C_17  and  O_19
REMARK    9  A    between atoms: C_23  and  C_24
REMARK                            x       y       z     vdW  Elec       q    Type
REMARK                         _______ _______ _______ _____ _____    ______ ____
ROOT
ATOM      1  C   UNL     1       2.844   5.699  18.263  0.00  0.00    +0.000 A 
ATOM      2  C   UNL     1       2.205   6.940  18.090  0.00  0.00    +0.000 A 
ATOM      3  C   UNL     1       2.840   8.012  17.453  0.00  0.00    +0.000 A 
ATOM      4  C   UNL     1       4.143   7.875  16.981  0.00  0.00    +0.000 A 
ATOM      5  C   UNL     1       4.819   6.661  17.134  0.00  0.00    +0.000 A 
ATOM      6  C   UNL     1       4.155   5.594  17.770  0.00  0.00    +0.000 A 
ENDROOT
BRANCH   1  13
ATOM      7  C   UNL     1       1.866   4.469  20.290  0.00  0.00    +0.000 A 
ATOM      8  C   UNL     1       1.218   3.346  20.833  0.00  0.00    +0.000 A 
ATOM      9  C   UNL     1       0.861   2.267  20.028  0.00  0.00    +0.000 A 
ATOM     10  C   UNL     1       1.155   2.302  18.673  0.00  0.00    +0.000 A 
ATOM     11  C   UNL     1       1.796   3.416  18.130  0.00  0.00    +0.000 A 
ATOM     12  F   UNL     1       2.075   3.368  16.817  0.00  0.00    +0.000 F 
ATOM     13  C   UNL     1       2.158   4.539  18.903  0.00  0.00    +0.000 A 
BRANCH   7  15
ATOM     14  C   UNL     1       1.158   6.574  21.148  0.00  0.00    +0.000 C 
ATOM     15  O   UNL     1       2.162   5.563  21.071  0.00  0.00    +0.000 OA
ENDBRANCH   7  15
ENDBRANCH   1  13
BRANCH   5  16
ATOM     16  C   UNL     1       6.241   6.493  16.608  0.00  0.00    +0.000 C 
BRANCH  16  17
ATOM     17  C   UNL     1       7.232   7.213  17.471  0.00  0.00    +0.000 A 
ATOM     18  N   UNL     1       7.932   6.758  18.492  0.00  0.00    +0.000 NA
ATOM     19  N   UNL     1       8.687   7.815  18.950  0.00  0.00    +0.000 NA
ATOM     20  C   UNL     1       8.394   8.841  18.181  0.00  0.00    +0.000 A 
ATOM     21  C   UNL     1       8.900  10.223  18.226  0.00  0.00    +0.000 C 
ATOM     22  O   UNL     1       7.484   8.534  17.204  0.00  0.00    +0.000 OA
ENDBRANCH  16  17
BRANCH  16  23
ATOM     23  C   UNL     1       6.644   5.009  16.505  0.00  0.00    +0.000 C 
BRANCH  23  24
ATOM     24  C   UNL     1       6.876   4.591  15.079  0.00  0.00    +0.000 C 
ATOM     25  O   UNL     1       6.243   3.720  14.505  0.00  0.00    +0.000 OA
BRANCH  24  26
ATOM     26  O   UNL     1       7.819   5.333  14.454  0.00  0.00    +0.000 OA
ATOM     27  H   UNL     1       7.692   5.436  13.490  0.00  0.00    +0.000 HD
ENDBRANCH  24  26
ENDBRANCH  23  24
ENDBRANCH  16  23
ENDBRANCH   5  16
TORSDOF 7
ENDMDL
