MODEL 1
REMARK VINA RESULT:      -6.8      0.000      0.000
REMARK  Name = 
REMARK  14 active torsions:
REMARK  status: ('A' for Active; 'I' for Inactive)
REMARK    1  A    between atoms: C_1  and  C_2
REMARK    2  A    between atoms: C_2  and  C_3
REMARK    3  A    between atoms: C_2  and  C_4
REMARK    4  A    between atoms: C_2  and  C_5
REMARK    5  A    between atoms: C_5  and  O_7
REMARK    6  A    between atoms: O_7  and  C_8
REMARK    7  A    between atoms: C_8  and  O_9
REMARK    8  A    between atoms: O_9  and  P_10
REMARK    9  A    between atoms: P_10  and  O_12
REMARK   10  A    between atoms: P_10  and  C_13
REMARK   11  A    between atoms: C_13  and  O_14
REMARK   12  A    between atoms: O_14  and  C_15
REMARK   13  A    between atoms: C_15  and  C_16
REMARK   14  A    between atoms: C_16  and  N_17
REMARK                            x       y       z     vdW  Elec       q    Type
REMARK                         _______ _______ _______ _____ _____    ______ ____
ROOT
ATOM      1  O   UNL     1       8.404   8.621  18.416  0.00  0.00    +0.000 OA
ENDROOT
BRANCH   1   2
ATOM      2  C   UNL     1       7.629   7.942  17.410  0.00  0.00    +0.000 C 
BRANCH   2   3
ATOM      3  P   UNL     1       7.192   6.269  18.009  0.00  0.00    +0.000 P 
ATOM      4  O   UNL     1       7.661   5.690  16.670  0.00  0.00    +0.000 OA
BRANCH   3   5
ATOM      5  O   UNL     1       5.591   6.622  17.886  0.00  0.00    +0.000 OA
ATOM      6  H   UNL     1       5.402   7.307  17.219  0.00  0.00    +0.000 HD
ENDBRANCH   3   5
BRANCH   3   7
ATOM      7  O   UNL     1       6.779   4.688  18.576  0.00  0.00    +0.000 OA
BRANCH   7   8
ATOM      8  C   UNL     1       5.676   4.668  19.453  0.00  0.00    +0.000 C 
BRANCH   8   9
ATOM      9  O   UNL     1       4.509   4.148  18.804  0.00  0.00    +0.000 OA
BRANCH   9  10
ATOM     10  C   UNL     1       3.338   4.702  19.216  0.00  0.00    +0.000 C 
ATOM     11  O   UNL     1       3.249   5.791  19.770  0.00  0.00    +0.000 OA
BRANCH  10  13
ATOM     12  C   UNL     1       1.416   4.202  17.680  0.00  0.00    +0.000 C 
ATOM     13  C   UNL     1       2.149   3.762  18.957  0.00  0.00    +0.000 C 
ATOM     14  C   UNL     1       1.175   3.839  20.139  0.00  0.00    +0.000 C 
ATOM     15  C   UNL     1       2.633   2.317  18.769  0.00  0.00    +0.000 C 
ENDBRANCH  10  13
ENDBRANCH   9  10
ENDBRANCH   8   9
ENDBRANCH   7   8
ENDBRANCH   3   7
ENDBRANCH   2   3
ENDBRANCH   1   2
BRANCH   1  16
ATOM     16  C   UNL     1       8.537  10.009  18.071  0.00  0.00    +0.000 C 
BRANCH  16  17
ATOM     17  C   UNL     1       9.450  10.714  19.066  0.00  0.00    +0.000 C 
BRANCH  17  18
ATOM     18  N   UNL     1      10.203  11.782  18.446  0.00  0.00    +0.000 N 
ATOM     19  C   UNL     1      11.465  11.674  17.929  0.00  0.00    +0.000 A 
ATOM     20  N   UNL     1      11.888  12.814  17.425  0.00  0.00    +0.000 NA
ATOM     21  C   UNL     1      10.852  13.701  17.646  0.00  0.00    +0.000 A 
ATOM     22  C   UNL     1      10.693  15.064  17.352  0.00  0.00    +0.000 A 
ATOM     23  N   UNL     1      11.681  15.828  16.744  0.00  0.00    +0.000 N 
ATOM     24  N   UNL     1       9.518  15.658  17.662  0.00  0.00    +0.000 NA
ATOM     25  C   UNL     1       8.563  14.917  18.267  0.00  0.00    +0.000 A 
ATOM     26  N   UNL     1       8.602  13.611  18.606  0.00  0.00    +0.000 NA
ATOM     27  C   UNL     1       9.785  13.070  18.265  0.00  0.00    +0.000 A 
ATOM     28  H   UNL     1      12.374  15.276  16.252  0.00  0.00    +0.000 HD
ATOM     29  H   UNL     1      11.309  16.649  16.286  0.00  0.00    +0.000 HD
ENDBRANCH  17  18
ENDBRANCH  16  17
ENDBRANCH   1  16
TORSDOF 11
ENDMDL
MODEL 2
REMARK VINA RESULT:      -6.8      5.322     10.342
REMARK  Name = 
REMARK  14 active torsions:
REMARK  status: ('A' for Active; 'I' for Inactive)
REMARK    1  A    between atoms: C_1  and  C_2
REMARK    2  A    between atoms: C_2  and  C_3
REMARK    3  A    between atoms: C_2  and  C_4
REMARK    4  A    between atoms: C_2  and  C_5
REMARK    5  A    between atoms: C_5  and  O_7
REMARK    6  A    between atoms: O_7  and  C_8
REMARK    7  A    between atoms: C_8  and  O_9
REMARK    8  A    between atoms: O_9  and  P_10
REMARK    9  A    between atoms: P_10  and  O_12
REMARK   10  A    between atoms: P_10  and  C_13
REMARK   11  A    between atoms: C_13  and  O_14
REMARK   12  A    between atoms: O_14  and  C_15
REMARK   13  A    between atoms: C_15  and  C_16
REMARK   14  A    between atoms: C_16  and  N_17
REMARK                            x       y       z     vdW  Elec       q    Type
REMARK                         _______ _______ _______ _____ _____    ______ ____
ROOT
ATOM      1  O   UNL     1       4.872   6.025  16.699  0.00  0.00    +0.000 OA
ENDROOT
BRANCH   1   2
ATOM      2  C   UNL     1       5.791   5.309  17.546  0.00  0.00    +0.000 C 
BRANCH   2   3
ATOM      3  P   UNL     1       7.144   6.431  18.055  0.00  0.00    +0.000 P 
ATOM      4  O   UNL     1       7.601   6.508  16.594  0.00  0.00    +0.000 OA
BRANCH   3   5
ATOM      5  O   UNL     1       7.933   5.182  18.777  0.00  0.00    +0.000 OA
ATOM      6  H   UNL     1       8.810   5.432  19.120  0.00  0.00    +0.000 HD
ENDBRANCH   3   5
BRANCH   3   7
ATOM      7  O   UNL     1       8.423   7.491  18.537  0.00  0.00    +0.000 OA
BRANCH   7   8
ATOM      8  C   UNL     1       8.266   8.815  18.081  0.00  0.00    +0.000 C 
BRANCH   8   9
ATOM      9  O   UNL     1       9.113   9.716  18.806  0.00  0.00    +0.000 OA
BRANCH   9  10
ATOM     10  C   UNL     1       9.045  11.010  18.396  0.00  0.00    +0.000 C 
ATOM     11  O   UNL     1       8.261  11.425  17.551  0.00  0.00    +0.000 OA
BRANCH  10  13
ATOM     12  C   UNL     1      10.189  11.516  20.574  0.00  0.00    +0.000 C 
ATOM     13  C   UNL     1      10.118  11.874  19.081  0.00  0.00    +0.000 C 
ATOM     14  C   UNL     1       9.740  13.354  18.943  0.00  0.00    +0.000 C 
ATOM     15  C   UNL     1      11.496  11.622  18.452  0.00  0.00    +0.000 C 
ENDBRANCH  10  13
ENDBRANCH   9  10
ENDBRANCH   8   9
ENDBRANCH   7   8
ENDBRANCH   3   7
ENDBRANCH   2   3
ENDBRANCH   1   2
BRANCH   1  16
ATOM     16  C   UNL     1       4.144   6.989  17.478  0.00  0.00    +0.000 C 
BRANCH  16  17
ATOM     17  C   UNL     1       2.676   6.594  17.568  0.00  0.00    +0.000 C 
BRANCH  17  18
ATOM     18  N   UNL     1       2.390   5.848  18.774  0.00  0.00    +0.000 N 
ATOM     19  C   UNL     1       2.279   6.376  20.031  0.00  0.00    +0.000 A 
ATOM     20  N   UNL     1       2.007   5.453  20.929  0.00  0.00    +0.000 NA
ATOM     21  C   UNL     1       1.958   4.272  20.213  0.00  0.00    +0.000 A 
ATOM     22  C   UNL     1       1.723   2.942  20.594  0.00  0.00    +0.000 A 
ATOM     23  N   UNL     1       1.499   2.560  21.911  0.00  0.00    +0.000 N 
ATOM     24  N   UNL     1       1.697   1.990  19.634  0.00  0.00    +0.000 NA
ATOM     25  C   UNL     1       1.929   2.362  18.355  0.00  0.00    +0.000 A 
ATOM     26  N   UNL     1       2.175   3.598  17.870  0.00  0.00    +0.000 NA
ATOM     27  C   UNL     1       2.178   4.502  18.864  0.00  0.00    +0.000 A 
ATOM     28  H   UNL     1       1.207   3.323  22.511  0.00  0.00    +0.000 HD
ATOM     29  H   UNL     1       1.006   1.680  21.981  0.00  0.00    +0.000 HD
ENDBRANCH  17  18
ENDBRANCH  16  17
ENDBRANCH   1  16
TORSDOF 11
ENDMDL
MODEL 3
REMARK VINA RESULT:      -6.7      1.017      1.627
REMARK  Name = 
REMARK  14 active torsions:
REMARK  status: ('A' for Active; 'I' for Inactive)
REMARK    1  A    between atoms: C_1  and  C_2
REMARK    2  A    between atoms: C_2  and  C_3
REMARK    3  A    between atoms: C_2  and  C_4
REMARK    4  A    between atoms: C_2  and  C_5
REMARK    5  A    between atoms: C_5  and  O_7
REMARK    6  A    between atoms: O_7  and  C_8
REMARK    7  A    between atoms: C_8  and  O_9
REMARK    8  A    between atoms: O_9  and  P_10
REMARK    9  A    between atoms: P_10  and  O_12
REMARK   10  A    between atoms: P_10  and  C_13
REMARK   11  A    between atoms: C_13  and  O_14
REMARK   12  A    between atoms: O_14  and  C_15
REMARK   13  A    between atoms: C_15  and  C_16
REMARK   14  A    between atoms: C_16  and  N_17
REMARK                            x       y       z     vdW  Elec       q    Type
REMARK                         _______ _______ _______ _____ _____    ______ ____
ROOT
ATOM      1  O   UNL     1       8.375   8.283  18.467  0.00  0.00    +0.000 OA
ENDROOT
BRANCH   1   2
ATOM      2  C   UNL     1       7.708   7.587  17.397  0.00  0.00    +0.000 C 
BRANCH   2   3
ATOM      3  P   UNL     1       7.103   5.973  18.010  0.00  0.00    +0.000 P 
ATOM      4  O   UNL     1       5.685   6.550  18.068  0.00  0.00    +0.000 OA
BRANCH   3   5
ATOM      5  O   UNL     1       7.826   6.232  19.464  0.00  0.00    +0.000 OA
ATOM      6  H   UNL     1       7.644   7.118  19.827  0.00  0.00    +0.000 HD
ENDBRANCH   3   5
BRANCH   3   7
ATOM      7  O   UNL     1       6.532   4.446  18.589  0.00  0.00    +0.000 OA
BRANCH   7   8
ATOM      8  C   UNL     1       5.152   4.242  18.388  0.00  0.00    +0.000 C 
BRANCH   8   9
ATOM      9  O   UNL     1       4.448   4.200  19.636  0.00  0.00    +0.000 OA
BRANCH   9  10
ATOM     10  C   UNL     1       3.676   3.096  19.814  0.00  0.00    +0.000 C 
ATOM     11  O   UNL     1       4.039   1.954  19.560  0.00  0.00    +0.000 OA
BRANCH  10  13
ATOM     12  C   UNL     1       1.943   2.654  21.577  0.00  0.00    +0.000 C 
ATOM     13  C   UNL     1       2.269   3.467  20.313  0.00  0.00    +0.000 C 
ATOM     14  C   UNL     1       1.240   3.130  19.227  0.00  0.00    +0.000 C 
ATOM     15  C   UNL     1       2.196   4.961  20.661  0.00  0.00    +0.000 C 
ENDBRANCH  10  13
ENDBRANCH   9  10
ENDBRANCH   8   9
ENDBRANCH   7   8
ENDBRANCH   3   7
ENDBRANCH   2   3
ENDBRANCH   1   2
BRANCH   1  16
ATOM     16  C   UNL     1       8.500   9.676  18.137  0.00  0.00    +0.000 C 
BRANCH  16  17
ATOM     17  C   UNL     1       9.393  10.380  19.150  0.00  0.00    +0.000 C 
BRANCH  17  18
ATOM     18  N   UNL     1      10.158  11.449  18.546  0.00  0.00    +0.000 N 
ATOM     19  C   UNL     1      11.444  11.350  18.088  0.00  0.00    +0.000 A 
ATOM     20  N   UNL     1      11.873  12.487  17.584  0.00  0.00    +0.000 NA
ATOM     21  C   UNL     1      10.816  13.363  17.743  0.00  0.00    +0.000 A 
ATOM     22  C   UNL     1      10.652  14.718  17.420  0.00  0.00    +0.000 A 
ATOM     23  N   UNL     1      11.656  15.486  16.843  0.00  0.00    +0.000 N 
ATOM     24  N   UNL     1       9.457  15.301  17.667  0.00  0.00    +0.000 NA
ATOM     25  C   UNL     1       8.486  14.556  18.241  0.00  0.00    +0.000 A 
ATOM     26  N   UNL     1       8.527  13.256  18.604  0.00  0.00    +0.000 NA
ATOM     27  C   UNL     1       9.731  12.727  18.325  0.00  0.00    +0.000 A 
ATOM     28  H   UNL     1      12.378  14.937  16.392  0.00  0.00    +0.000 HD
ATOM     29  H   UNL     1      11.293  16.295  16.356  0.00  0.00    +0.000 HD
ENDBRANCH  17  18
ENDBRANCH  16  17
ENDBRANCH   1  16
TORSDOF 11
ENDMDL
MODEL 4
REMARK VINA RESULT:      -6.6      5.231     10.292
REMARK  Name = 
REMARK  14 active torsions:
REMARK  status: ('A' for Active; 'I' for Inactive)
REMARK    1  A    between atoms: C_1  and  C_2
REMARK    2  A    between atoms: C_2  and  C_3
REMARK    3  A    between atoms: C_2  and  C_4
REMARK    4  A    between atoms: C_2  and  C_5
REMARK    5  A    between atoms: C_5  and  O_7
REMARK    6  A    between atoms: O_7  and  C_8
REMARK    7  A    between atoms: C_8  and  O_9
REMARK    8  A    between atoms: O_9  and  P_10
REMARK    9  A    between atoms: P_10  and  O_12
REMARK   10  A    between atoms: P_10  and  C_13
REMARK   11  A    between atoms: C_13  and  O_14
REMARK   12  A    between atoms: O_14  and  C_15
REMARK   13  A    between atoms: C_15  and  C_16
REMARK   14  A    between atoms: C_16  and  N_17
REMARK                            x       y       z     vdW  Elec       q    Type
REMARK                         _______ _______ _______ _____ _____    ______ ____
ROOT
ATOM      1  O   UNL     1       7.050   4.804  17.514  0.00  0.00    +0.000 OA
ENDROOT
BRANCH   1   2
ATOM      2  C   UNL     1       6.428   5.942  18.140  0.00  0.00    +0.000 C 
BRANCH   2   3
ATOM      3  P   UNL     1       7.360   7.456  17.705  0.00  0.00    +0.000 P 
ATOM      4  O   UNL     1       7.813   6.778  16.407  0.00  0.00    +0.000 OA
BRANCH   3   5
ATOM      5  O   UNL     1       8.472   7.129  18.871  0.00  0.00    +0.000 OA
ATOM      6  H   UNL     1       8.379   7.699  19.657  0.00  0.00    +0.000 HD
ENDBRANCH   3   5
BRANCH   3   7
ATOM      7  O   UNL     1       8.241   8.887  17.294  0.00  0.00    +0.000 OA
BRANCH   7   8
ATOM      8  C   UNL     1       8.687   9.620  18.411  0.00  0.00    +0.000 C 
BRANCH   8   9
ATOM      9  O   UNL     1       9.714  10.550  18.043  0.00  0.00    +0.000 OA
BRANCH   9  10
ATOM     10  C   UNL     1       9.483  11.831  18.430  0.00  0.00    +0.000 C 
ATOM     11  O   UNL     1       8.585  12.535  17.981  0.00  0.00    +0.000 OA
BRANCH  10  13
ATOM     12  C   UNL     1      10.711  13.828  19.330  0.00  0.00    +0.000 C 
ATOM     13  C   UNL     1      10.526  12.307  19.455  0.00  0.00    +0.000 C 
ATOM     14  C   UNL     1      11.867  11.620  19.169  0.00  0.00    +0.000 C 
ATOM     15  C   UNL     1      10.065  11.987  20.884  0.00  0.00    +0.000 C 
ENDBRANCH  10  13
ENDBRANCH   9  10
ENDBRANCH   8   9
ENDBRANCH   7   8
ENDBRANCH   3   7
ENDBRANCH   2   3
ENDBRANCH   1   2
BRANCH   1  16
ATOM     16  C   UNL     1       6.074   4.077  16.749  0.00  0.00    +0.000 C 
BRANCH  16  17
ATOM     17  C   UNL     1       4.705   4.731  16.883  0.00  0.00    +0.000 C 
BRANCH  17  18
ATOM     18  N   UNL     1       3.850   4.012  17.801  0.00  0.00    +0.000 N 
ATOM     19  C   UNL     1       3.690   2.654  17.847  0.00  0.00    +0.000 A 
ATOM     20  N   UNL     1       2.851   2.290  18.793  0.00  0.00    +0.000 NA
ATOM     21  C   UNL     1       2.439   3.476  19.371  0.00  0.00    +0.000 A 
ATOM     22  C   UNL     1       1.548   3.761  20.417  0.00  0.00    +0.000 A 
ATOM     23  N   UNL     1       0.839   2.778  21.097  0.00  0.00    +0.000 N 
ATOM     24  N   UNL     1       1.381   5.050  20.790  0.00  0.00    +0.000 NA
ATOM     25  C   UNL     1       2.060   6.006  20.117  0.00  0.00    +0.000 A 
ATOM     26  N   UNL     1       2.931   5.858  19.096  0.00  0.00    +0.000 NA
ATOM     27  C   UNL     1       3.066   4.560  18.777  0.00  0.00    +0.000 A 
ATOM     28  H   UNL     1       1.241   1.852  21.006  0.00  0.00    +0.000 HD
ATOM     29  H   UNL     1       0.538   3.082  22.013  0.00  0.00    +0.000 HD
ENDBRANCH  17  18
ENDBRANCH  16  17
ENDBRANCH   1  16
TORSDOF 11
ENDMDL
MODEL 5
REMARK VINA RESULT:      -6.6      1.778      2.449
REMARK  Name = 
REMARK  14 active torsions:
REMARK  status: ('A' for Active; 'I' for Inactive)
REMARK    1  A    between atoms: C_1  and  C_2
REMARK    2  A    between atoms: C_2  and  C_3
REMARK    3  A    between atoms: C_2  and  C_4
REMARK    4  A    between atoms: C_2  and  C_5
REMARK    5  A    between atoms: C_5  and  O_7
REMARK    6  A    between atoms: O_7  and  C_8
REMARK    7  A    between atoms: C_8  and  O_9
REMARK    8  A    between atoms: O_9  and  P_10
REMARK    9  A    between atoms: P_10  and  O_12
REMARK   10  A    between atoms: P_10  and  C_13
REMARK   11  A    between atoms: C_13  and  O_14
REMARK   12  A    between atoms: O_14  and  C_15
REMARK   13  A    between atoms: C_15  and  C_16
REMARK   14  A    between atoms: C_16  and  N_17
REMARK                            x       y       z     vdW  Elec       q    Type
REMARK                         _______ _______ _______ _____ _____    ______ ____
ROOT
ATOM      1  O   UNL     1       8.344   8.098  18.518  0.00  0.00    +0.000 OA
ENDROOT
BRANCH   1   2
ATOM      2  C   UNL     1       7.679   7.340  17.491  0.00  0.00    +0.000 C 
BRANCH   2   3
ATOM      3  P   UNL     1       6.983   5.813  18.220  0.00  0.00    +0.000 P 
ATOM      4  O   UNL     1       7.994   5.925  19.366  0.00  0.00    +0.000 OA
BRANCH   3   5
ATOM      5  O   UNL     1       7.658   4.910  17.023  0.00  0.00    +0.000 OA
ATOM      6  H   UNL     1       7.021   4.658  16.331  0.00  0.00    +0.000 HD
ENDBRANCH   3   5
BRANCH   3   7
ATOM      7  O   UNL     1       6.324   4.370  18.910  0.00  0.00    +0.000 OA
BRANCH   7   8
ATOM      8  C   UNL     1       5.002   4.099  18.505  0.00  0.00    +0.000 C 
BRANCH   8   9
ATOM      9  O   UNL     1       4.089   4.223  19.604  0.00  0.00    +0.000 OA
BRANCH   9  10
ATOM     10  C   UNL     1       3.389   3.093  19.887  0.00  0.00    +0.000 C 
ATOM     11  O   UNL     1       3.826   1.957  19.747  0.00  0.00    +0.000 OA
BRANCH  10  13
ATOM     12  C   UNL     1       1.839   4.926  20.627  0.00  0.00    +0.000 C 
ATOM     13  C   UNL     1       1.957   3.419  20.347  0.00  0.00    +0.000 C 
ATOM     14  C   UNL     1       1.652   2.649  21.638  0.00  0.00    +0.000 C 
ATOM     15  C   UNL     1       0.942   3.044  19.258  0.00  0.00    +0.000 C 
ENDBRANCH  10  13
ENDBRANCH   9  10
ENDBRANCH   8   9
ENDBRANCH   7   8
ENDBRANCH   3   7
ENDBRANCH   2   3
ENDBRANCH   1   2
BRANCH   1  16
ATOM     16  C   UNL     1       8.432   9.478  18.124  0.00  0.00    +0.000 C 
BRANCH  16  17
ATOM     17  C   UNL     1       9.406  10.223  19.027  0.00  0.00    +0.000 C 
BRANCH  17  18
ATOM     18  N   UNL     1       9.234  11.657  18.941  0.00  0.00    +0.000 N 
ATOM     19  C   UNL     1       9.009  12.366  17.793  0.00  0.00    +0.000 A 
ATOM     20  N   UNL     1       8.888  13.655  18.029  0.00  0.00    +0.000 NA
ATOM     21  C   UNL     1       9.062  13.779  19.394  0.00  0.00    +0.000 A 
ATOM     22  C   UNL     1       9.058  14.889  20.253  0.00  0.00    +0.000 A 
ATOM     23  N   UNL     1       8.882  16.192  19.804  0.00  0.00    +0.000 N 
ATOM     24  N   UNL     1       9.219  14.681  21.579  0.00  0.00    +0.000 NA
ATOM     25  C   UNL     1       9.404  13.413  22.012  0.00  0.00    +0.000 A 
ATOM     26  N   UNL     1       9.437  12.274  21.288  0.00  0.00    +0.000 NA
ATOM     27  C   UNL     1       9.261  12.540  19.982  0.00  0.00    +0.000 A 
ATOM     28  H   UNL     1       8.449  16.252  18.890  0.00  0.00    +0.000 HD
ATOM     29  H   UNL     1       8.551  16.812  20.533  0.00  0.00    +0.000 HD
ENDBRANCH  17  18
ENDBRANCH  16  17
ENDBRANCH   1  16
TORSDOF 11
ENDMDL
MODEL 6
REMARK VINA RESULT:      -6.6      1.656      2.351
REMARK  Name = 
REMARK  14 active torsions:
REMARK  status: ('A' for Active; 'I' for Inactive)
REMARK    1  A    between atoms: C_1  and  C_2
REMARK    2  A    between atoms: C_2  and  C_3
REMARK    3  A    between atoms: C_2  and  C_4
REMARK    4  A    between atoms: C_2  and  C_5
REMARK    5  A    between atoms: C_5  and  O_7
REMARK    6  A    between atoms: O_7  and  C_8
REMARK    7  A    between atoms: C_8  and  O_9
REMARK    8  A    between atoms: O_9  and  P_10
REMARK    9  A    between atoms: P_10  and  O_12
REMARK   10  A    between atoms: P_10  and  C_13
REMARK   11  A    between atoms: C_13  and  O_14
REMARK   12  A    between atoms: O_14  and  C_15
REMARK   13  A    between atoms: C_15  and  C_16
REMARK   14  A    between atoms: C_16  and  N_17
REMARK                            x       y       z     vdW  Elec       q    Type
REMARK                         _______ _______ _______ _____ _____    ______ ____
ROOT
ATOM      1  O   UNL     1       7.365   8.110  17.455  0.00  0.00    +0.000 OA
ENDROOT
BRANCH   1   2
ATOM      2  C   UNL     1       8.160   7.065  18.046  0.00  0.00    +0.000 C 
BRANCH   2   3
ATOM      3  P   UNL     1       7.068   5.683  18.544  0.00  0.00    +0.000 P 
ATOM      4  O   UNL     1       7.838   4.760  17.593  0.00  0.00    +0.000 OA
BRANCH   3   5
ATOM      5  O   UNL     1       5.814   6.349  17.714  0.00  0.00    +0.000 OA
ATOM      6  H   UNL     1       5.773   7.319  17.800  0.00  0.00    +0.000 HD
ENDBRANCH   3   5
BRANCH   3   7
ATOM      7  O   UNL     1       6.036   4.378  19.016  0.00  0.00    +0.000 OA
BRANCH   7   8
ATOM      8  C   UNL     1       4.698   4.532  18.602  0.00  0.00    +0.000 C 
BRANCH   8   9
ATOM      9  O   UNL     1       3.793   4.365  19.701  0.00  0.00    +0.000 OA
BRANCH   9  10
ATOM     10  C   UNL     1       3.142   3.173  19.721  0.00  0.00    +0.000 C 
ATOM     11  O   UNL     1       3.614   2.123  19.301  0.00  0.00    +0.000 OA
BRANCH  10  13
ATOM     12  C   UNL     1       1.405   4.808  20.506  0.00  0.00    +0.000 C 
ATOM     13  C   UNL     1       1.717   3.319  20.280  0.00  0.00    +0.000 C 
ATOM     14  C   UNL     1       1.620   2.584  21.622  0.00  0.00    +0.000 C 
ATOM     15  C   UNL     1       0.688   2.749  19.292  0.00  0.00    +0.000 C 
ENDBRANCH  10  13
ENDBRANCH   9  10
ENDBRANCH   8   9
ENDBRANCH   7   8
ENDBRANCH   3   7
ENDBRANCH   2   3
ENDBRANCH   1   2
BRANCH   1  16
ATOM     16  C   UNL     1       7.819   9.390  17.925  0.00  0.00    +0.000 C 
BRANCH  16  17
ATOM     17  C   UNL     1       9.010   9.217  18.859  0.00  0.00    +0.000 C 
BRANCH  17  18
ATOM     18  N   UNL     1       9.420  10.471  19.450  0.00  0.00    +0.000 N 
ATOM     19  C   UNL     1       9.189  10.859  20.742  0.00  0.00    +0.000 A 
ATOM     20  N   UNL     1       9.687  12.051  20.993  0.00  0.00    +0.000 NA
ATOM     21  C   UNL     1      10.249  12.455  19.798  0.00  0.00    +0.000 A 
ATOM     22  C   UNL     1      10.921  13.626  19.414  0.00  0.00    +0.000 A 
ATOM     23  N   UNL     1      11.126  14.697  20.275  0.00  0.00    +0.000 N 
ATOM     24  N   UNL     1      11.404  13.711  18.154  0.00  0.00    +0.000 NA
ATOM     25  C   UNL     1      11.190  12.673  17.314  0.00  0.00    +0.000 A 
ATOM     26  N   UNL     1      10.556  11.508  17.562  0.00  0.00    +0.000 NA
ATOM     27  C   UNL     1      10.108  11.474  18.829  0.00  0.00    +0.000 A 
ATOM     28  H   UNL     1      11.046  14.452  21.255  0.00  0.00    +0.000 HD
ATOM     29  H   UNL     1      11.901  15.281  19.989  0.00  0.00    +0.000 HD
ENDBRANCH  17  18
ENDBRANCH  16  17
ENDBRANCH   1  16
TORSDOF 11
ENDMDL
MODEL 7
REMARK VINA RESULT:      -6.5      5.368     10.426
REMARK  Name = 
REMARK  14 active torsions:
REMARK  status: ('A' for Active; 'I' for Inactive)
REMARK    1  A    between atoms: C_1  and  C_2
REMARK    2  A    between atoms: C_2  and  C_3
REMARK    3  A    between atoms: C_2  and  C_4
REMARK    4  A    between atoms: C_2  and  C_5
REMARK    5  A    between atoms: C_5  and  O_7
REMARK    6  A    between atoms: O_7  and  C_8
REMARK    7  A    between atoms: C_8  and  O_9
REMARK    8  A    between atoms: O_9  and  P_10
REMARK    9  A    between atoms: P_10  and  O_12
REMARK   10  A    between atoms: P_10  and  C_13
REMARK   11  A    between atoms: C_13  and  O_14
REMARK   12  A    between atoms: O_14  and  C_15
REMARK   13  A    between atoms: C_15  and  C_16
REMARK   14  A    between atoms: C_16  and  N_17
REMARK                            x       y       z     vdW  Elec       q    Type
REMARK                         _______ _______ _______ _____ _____    ______ ____
ROOT
ATOM      1  O   UNL     1       5.279   5.158  17.567  0.00  0.00    +0.000 OA
ENDROOT
BRANCH   1   2
ATOM      2  C   UNL     1       6.700   5.280  17.762  0.00  0.00    +0.000 C 
BRANCH   2   3
ATOM      3  P   UNL     1       7.173   7.046  17.677  0.00  0.00    +0.000 P 
ATOM      4  O   UNL     1       7.872   6.772  16.341  0.00  0.00    +0.000 OA
BRANCH   3   5
ATOM      5  O   UNL     1       8.268   6.831  18.885  0.00  0.00    +0.000 OA
ATOM      6  H   UNL     1       7.988   7.230  19.729  0.00  0.00    +0.000 HD
ENDBRANCH   3   5
BRANCH   3   7
ATOM      7  O   UNL     1       7.619   8.715  17.597  0.00  0.00    +0.000 OA
BRANCH   7   8
ATOM      8  C   UNL     1       8.725   9.047  18.405  0.00  0.00    +0.000 C 
BRANCH   8   9
ATOM      9  O   UNL     1       8.628  10.394  18.887  0.00  0.00    +0.000 OA
BRANCH   9  10
ATOM     10  C   UNL     1       9.726  11.159  18.652  0.00  0.00    +0.000 C 
ATOM     11  O   UNL     1      10.362  11.148  17.604  0.00  0.00    +0.000 OA
BRANCH  10  13
ATOM     12  C   UNL     1       9.702  13.460  19.659  0.00  0.00    +0.000 C 
ATOM     13  C   UNL     1      10.106  11.994  19.887  0.00  0.00    +0.000 C 
ATOM     14  C   UNL     1      11.623  11.925  20.098  0.00  0.00    +0.000 C 
ATOM     15  C   UNL     1       9.377  11.475  21.134  0.00  0.00    +0.000 C 
ENDBRANCH  10  13
ENDBRANCH   9  10
ENDBRANCH   8   9
ENDBRANCH   7   8
ENDBRANCH   3   7
ENDBRANCH   2   3
ENDBRANCH   1   2
BRANCH   1  16
ATOM     16  C   UNL     1       4.683   6.465  17.504  0.00  0.00    +0.000 C 
BRANCH  16  17
ATOM     17  C   UNL     1       3.165   6.356  17.568  0.00  0.00    +0.000 C 
BRANCH  17  18
ATOM     18  N   UNL     1       2.722   5.677  18.765  0.00  0.00    +0.000 N 
ATOM     19  C   UNL     1       2.569   6.250  19.998  0.00  0.00    +0.000 A 
ATOM     20  N   UNL     1       2.145   5.384  20.893  0.00  0.00    +0.000 NA
ATOM     21  C   UNL     1       2.037   4.192  20.203  0.00  0.00    +0.000 A 
ATOM     22  C   UNL     1       1.648   2.902  20.595  0.00  0.00    +0.000 A 
ATOM     23  N   UNL     1       1.294   2.582  21.900  0.00  0.00    +0.000 N 
ATOM     24  N   UNL     1       1.603   1.928  19.658  0.00  0.00    +0.000 NA
ATOM     25  C   UNL     1       1.963   2.238  18.392  0.00  0.00    +0.000 A 
ATOM     26  N   UNL     1       2.360   3.430  17.899  0.00  0.00    +0.000 NA
ATOM     27  C   UNL     1       2.376   4.360  18.870  0.00  0.00    +0.000 A 
ATOM     28  H   UNL     1       1.032   3.386  22.458  0.00  0.00    +0.000 HD
ATOM     29  H   UNL     1       0.715   1.753  21.952  0.00  0.00    +0.000 HD
ENDBRANCH  17  18
ENDBRANCH  16  17
ENDBRANCH   1  16
TORSDOF 11
ENDMDL
MODEL 8
REMARK VINA RESULT:      -6.4      5.681      8.028
REMARK  Name = 
REMARK  14 active torsions:
REMARK  status: ('A' for Active; 'I' for Inactive)
REMARK    1  A    between atoms: C_1  and  C_2
REMARK    2  A    between atoms: C_2  and  C_3
REMARK    3  A    between atoms: C_2  and  C_4
REMARK    4  A    between atoms: C_2  and  C_5
REMARK    5  A    between atoms: C_5  and  O_7
REMARK    6  A    between atoms: O_7  and  C_8
REMARK    7  A    between atoms: C_8  and  O_9
REMARK    8  A    between atoms: O_9  and  P_10
REMARK    9  A    between atoms: P_10  and  O_12
REMARK   10  A    between atoms: P_10  and  C_13
REMARK   11  A    between atoms: C_13  and  O_14
REMARK   12  A    between atoms: O_14  and  C_15
REMARK   13  A    between atoms: C_15  and  C_16
REMARK   14  A    between atoms: C_16  and  N_17
REMARK                            x       y       z     vdW  Elec       q    Type
REMARK                         _______ _______ _______ _____ _____    ______ ____
ROOT
ATOM      1  O   UNL     1       2.132   3.451  20.534  0.00  0.00    +0.000 OA
ENDROOT
BRANCH   1   2
ATOM      2  C   UNL     1       2.662   2.433  19.666  0.00  0.00    +0.000 C 
BRANCH   2   3
ATOM      3  P   UNL     1       3.306   3.214  18.141  0.00  0.00    +0.000 P 
ATOM      4  O   UNL     1       3.022   1.913  17.381  0.00  0.00    +0.000 OA
BRANCH   3   5
ATOM      5  O   UNL     1       4.840   3.143  18.729  0.00  0.00    +0.000 OA
ATOM      6  H   UNL     1       5.479   2.791  18.084  0.00  0.00    +0.000 HD
ENDBRANCH   3   5
BRANCH   3   7
ATOM      7  O   UNL     1       3.914   3.952  16.700  0.00  0.00    +0.000 OA
BRANCH   7   8
ATOM      8  C   UNL     1       5.269   3.663  16.441  0.00  0.00    +0.000 C 
BRANCH   8   9
ATOM      9  O   UNL     1       6.026   4.865  16.244  0.00  0.00    +0.000 OA
BRANCH   9  10
ATOM     10  C   UNL     1       7.124   4.978  17.036  0.00  0.00    +0.000 C 
ATOM     11  O   UNL     1       8.067   4.195  17.023  0.00  0.00    +0.000 OA
BRANCH  10  13
ATOM     12  C   UNL     1       7.789   7.369  17.421  0.00  0.00    +0.000 C 
ATOM     13  C   UNL     1       7.007   6.176  17.994  0.00  0.00    +0.000 C 
ATOM     14  C   UNL     1       7.606   5.797  19.354  0.00  0.00    +0.000 C 
ATOM     15  C   UNL     1       5.538   6.590  18.163  0.00  0.00    +0.000 C 
ENDBRANCH  10  13
ENDBRANCH   9  10
ENDBRANCH   8   9
ENDBRANCH   7   8
ENDBRANCH   3   7
ENDBRANCH   2   3
ENDBRANCH   1   2
BRANCH   1  16
ATOM     16  C   UNL     1       1.848   4.638  19.775  0.00  0.00    +0.000 C 
BRANCH  16  17
ATOM     17  C   UNL     1       2.152   5.879  20.603  0.00  0.00    +0.000 C 
BRANCH  17  18
ATOM     18  N   UNL     1       1.961   7.096  19.844  0.00  0.00    +0.000 N 
ATOM     19  C   UNL     1       2.215   7.252  18.509  0.00  0.00    +0.000 A 
ATOM     20  N   UNL     1       1.938   8.470  18.096  0.00  0.00    +0.000 NA
ATOM     21  C   UNL     1       1.501   9.133  19.228  0.00  0.00    +0.000 A 
ATOM     22  C   UNL     1       1.071  10.450  19.448  0.00  0.00    +0.000 A 
ATOM     23  N   UNL     1       1.038  11.413  18.447  0.00  0.00    +0.000 N 
ATOM     24  N   UNL     1       0.656  10.796  20.687  0.00  0.00    +0.000 NA
ATOM     25  C   UNL     1       0.703   9.862  21.664  0.00  0.00    +0.000 A 
ATOM     26  N   UNL     1       1.103   8.575  21.577  0.00  0.00    +0.000 NA
ATOM     27  C   UNL     1       1.492   8.285  20.324  0.00  0.00    +0.000 A 
ATOM     28  H   UNL     1       1.038  11.025  17.510  0.00  0.00    +0.000 HD
ATOM     29  H   UNL     1       0.395  12.166  18.654  0.00  0.00    +0.000 HD
ENDBRANCH  17  18
ENDBRANCH  16  17
ENDBRANCH   1  16
TORSDOF 11
ENDMDL
MODEL 9
REMARK VINA RESULT:      -6.4      1.874      2.491
REMARK  Name = 
REMARK  14 active torsions:
REMARK  status: ('A' for Active; 'I' for Inactive)
REMARK    1  A    between atoms: C_1  and  C_2
REMARK    2  A    between atoms: C_2  and  C_3
REMARK    3  A    between atoms: C_2  and  C_4
REMARK    4  A    between atoms: C_2  and  C_5
REMARK    5  A    between atoms: C_5  and  O_7
REMARK    6  A    between atoms: O_7  and  C_8
REMARK    7  A    between atoms: C_8  and  O_9
REMARK    8  A    between atoms: O_9  and  P_10
REMARK    9  A    between atoms: P_10  and  O_12
REMARK   10  A    between atoms: P_10  and  C_13
REMARK   11  A    between atoms: C_13  and  O_14
REMARK   12  A    between atoms: O_14  and  C_15
REMARK   13  A    between atoms: C_15  and  C_16
REMARK   14  A    between atoms: C_16  and  N_17
REMARK                            x       y       z     vdW  Elec       q    Type
REMARK                         _______ _______ _______ _____ _____    ______ ____
ROOT
ATOM      1  O   UNL     1       7.915   7.979  17.205  0.00  0.00    +0.000 OA
ENDROOT
BRANCH   1   2
ATOM      2  C   UNL     1       7.760   6.954  18.204  0.00  0.00    +0.000 C 
BRANCH   2   3
ATOM      3  P   UNL     1       6.534   5.725  17.624  0.00  0.00    +0.000 P 
ATOM      4  O   UNL     1       5.439   6.791  17.748  0.00  0.00    +0.000 OA
BRANCH   3   5
ATOM      5  O   UNL     1       6.635   4.921  19.055  0.00  0.00    +0.000 OA
ATOM      6  H   UNL     1       6.320   5.448  19.811  0.00  0.00    +0.000 HD
ENDBRANCH   3   5
BRANCH   3   7
ATOM      7  O   UNL     1       5.375   4.564  17.075  0.00  0.00    +0.000 OA
BRANCH   7   8
ATOM      8  C   UNL     1       5.013   3.617  18.054  0.00  0.00    +0.000 C 
BRANCH   8   9
ATOM      9  O   UNL     1       3.823   4.018  18.746  0.00  0.00    +0.000 OA
BRANCH   9  10
ATOM     10  C   UNL     1       3.120   2.997  19.301  0.00  0.00    +0.000 C 
ATOM     11  O   UNL     1       3.259   1.818  18.996  0.00  0.00    +0.000 OA
BRANCH  10  13
ATOM     12  C   UNL     1       2.266   5.026  20.510  0.00  0.00    +0.000 C 
ATOM     13  C   UNL     1       2.083   3.512  20.314  0.00  0.00    +0.000 C 
ATOM     14  C   UNL     1       2.297   2.809  21.660  0.00  0.00    +0.000 C 
ATOM     15  C   UNL     1       0.657   3.254  19.806  0.00  0.00    +0.000 C 
ENDBRANCH  10  13
ENDBRANCH   9  10
ENDBRANCH   8   9
ENDBRANCH   7   8
ENDBRANCH   3   7
ENDBRANCH   2   3
ENDBRANCH   1   2
BRANCH   1  16
ATOM     16  C   UNL     1       7.875   9.274  17.827  0.00  0.00    +0.000 C 
BRANCH  16  17
ATOM     17  C   UNL     1       8.985   9.397  18.862  0.00  0.00    +0.000 C 
BRANCH  17  18
ATOM     18  N   UNL     1       9.555  10.726  18.888  0.00  0.00    +0.000 N 
ATOM     19  C   UNL     1      10.166  11.354  17.837  0.00  0.00    +0.000 A 
ATOM     20  N   UNL     1      10.580  12.561  18.160  0.00  0.00    +0.000 NA
ATOM     21  C   UNL     1      10.232  12.707  19.489  0.00  0.00    +0.000 A 
ATOM     22  C   UNL     1      10.406  13.756  20.404  0.00  0.00    +0.000 A 
ATOM     23  N   UNL     1      11.056  14.941  20.083  0.00  0.00    +0.000 N 
ATOM     24  N   UNL     1       9.907  13.614  21.653  0.00  0.00    +0.000 NA
ATOM     25  C   UNL     1       9.289  12.453  21.969  0.00  0.00    +0.000 A 
ATOM     26  N   UNL     1       9.070  11.377  21.184  0.00  0.00    +0.000 NA
ATOM     27  C   UNL     1       9.575  11.579  19.955  0.00  0.00    +0.000 A 
ATOM     28  H   UNL     1      11.106  15.119  19.086  0.00  0.00    +0.000 HD
ATOM     29  H   UNL     1      10.795  15.704  20.693  0.00  0.00    +0.000 HD
ENDBRANCH  17  18
ENDBRANCH  16  17
ENDBRANCH   1  16
TORSDOF 11
ENDMDL
