MODEL 1
REMARK VINA RESULT:      -6.9      0.000      0.000
REMARK  Name = 
REMARK  8 active torsions:
REMARK  status: ('A' for Active; 'I' for Inactive)
REMARK    1  A    between atoms: C_2  and  C_3
REMARK    2  A    between atoms: C_5  and  C_6
REMARK    3  A    between atoms: C_8  and  S_9
REMARK    4  A    between atoms: S_9  and  C_10
REMARK    5  A    between atoms: C_10  and  C_11
REMARK    6  A    between atoms: N_13  and  C_14
REMARK    7  A    between atoms: C_14  and  C_15
REMARK    8  A    between atoms: C_21  and  N_22
REMARK                            x       y       z     vdW  Elec       q    Type
REMARK                         _______ _______ _______ _____ _____    ______ ____
ROOT
ATOM      1  C   UNL     1       2.564   3.919  20.487  0.00  0.00    +0.000 A 
ATOM      2  C   UNL     1       2.113   5.210  20.216  0.00  0.00    +0.000 A 
ATOM      3  C   UNL     1       2.717   5.958  19.195  0.00  0.00    +0.000 A 
ATOM      4  C   UNL     1       3.718   5.358  18.433  0.00  0.00    +0.000 A 
ATOM      5  N   UNL     1       4.159   4.101  18.703  0.00  0.00    +0.000 NA
ATOM      6  C   UNL     1       3.609   3.408  19.724  0.00  0.00    +0.000 A 
ENDROOT
BRANCH   6   7
ATOM      7  N   UNL     1       4.257   2.222  20.038  0.00  0.00    +0.000 N 
ATOM      8  H   UNL     1       3.809   1.445  19.560  0.00  0.00    +0.000 HD
ATOM      9  H   UNL     1       4.416   2.045  21.024  0.00  0.00    +0.000 HD
ENDBRANCH   6   7
BRANCH   1  11
ATOM     10  N   UNL     1       1.423   2.556  22.372  0.00  0.00    +0.000 NA
ATOM     11  C   UNL     1       1.953   3.156  21.534  0.00  0.00    +0.000 C 
ENDBRANCH   1  11
BRANCH   3  12
ATOM     12  C   UNL     1       2.305   7.326  19.028  0.00  0.00    +0.000 C 
ATOM     13  N   UNL     1       2.035   8.432  18.819  0.00  0.00    +0.000 NA
ENDBRANCH   3  12
BRANCH   4  14
ATOM     14  S   UNL     1       4.520   6.191  17.060  0.00  0.00    +0.000 S 
BRANCH  14  15
ATOM     15  C   UNL     1       6.286   5.942  17.474  0.00  0.00    +0.000 C 
BRANCH  15  16
ATOM     16  C   UNL     1       7.013   5.214  16.351  0.00  0.00    +0.000 C 
ATOM     17  O   UNL     1       7.924   4.420  16.576  0.00  0.00    +0.000 OA
ATOM     18  N   UNL     1       6.633   5.564  15.074  0.00  0.00    +0.000 N 
ATOM     19  H   UNL     1       5.875   6.223  14.944  0.00  0.00    +0.000 HD
BRANCH  18  20
ATOM     20  C   UNL     1       7.214   4.959  13.883  0.00  0.00    +0.000 C 
BRANCH  20  21
ATOM     21  C   UNL     1       6.459   3.729  13.358  0.00  0.00    +0.000 C 
ATOM     22  C   UNL     1       6.867   3.227  11.981  0.00  0.00    +0.000 C 
ATOM     23  C   UNL     1       5.605   2.553  11.503  0.00  0.00    +0.000 C 
ATOM     24  C   UNL     1       4.531   3.453  12.076  0.00  0.00    +0.000 C 
ATOM     25  O   UNL     1       5.040   3.989  13.305  0.00  0.00    +0.000 OA
ENDBRANCH  20  21
ENDBRANCH  18  20
ENDBRANCH  15  16
ENDBRANCH  14  15
ENDBRANCH   4  14
TORSDOF 8
ENDMDL
MODEL 2
REMARK VINA RESULT:      -6.6      1.469      1.469
REMARK  Name = 
REMARK  8 active torsions:
REMARK  status: ('A' for Active; 'I' for Inactive)
REMARK    1  A    between atoms: C_2  and  C_3
REMARK    2  A    between atoms: C_5  and  C_6
REMARK    3  A    between atoms: C_8  and  S_9
REMARK    4  A    between atoms: S_9  and  C_10
REMARK    5  A    between atoms: C_10  and  C_11
REMARK    6  A    between atoms: N_13  and  C_14
REMARK    7  A    between atoms: C_14  and  C_15
REMARK    8  A    between atoms: C_21  and  N_22
REMARK                            x       y       z     vdW  Elec       q    Type
REMARK                         _______ _______ _______ _____ _____    ______ ____
ROOT
ATOM      1  C   UNL     1       2.081   3.768  18.249  0.00  0.00    +0.000 A 
ATOM      2  C   UNL     1       1.760   5.119  18.374  0.00  0.00    +0.000 A 
ATOM      3  C   UNL     1       2.708   6.093  18.033  0.00  0.00    +0.000 A 
ATOM      4  C   UNL     1       3.933   5.678  17.513  0.00  0.00    +0.000 A 
ATOM      5  N   UNL     1       4.245   4.360  17.398  0.00  0.00    +0.000 NA
ATOM      6  C   UNL     1       3.346   3.427  17.782  0.00  0.00    +0.000 A 
ENDROOT
BRANCH   6   7
ATOM      7  N   UNL     1       3.831   2.128  17.807  0.00  0.00    +0.000 N 
ATOM      8  H   UNL     1       4.777   2.103  17.434  0.00  0.00    +0.000 HD
ATOM      9  H   UNL     1       3.227   1.416  17.411  0.00  0.00    +0.000 HD
ENDBRANCH   6   7
BRANCH   1  11
ATOM     10  N   UNL     1       0.316   1.972  18.858  0.00  0.00    +0.000 NA
ATOM     11  C   UNL     1       1.117   2.770  18.604  0.00  0.00    +0.000 C 
ENDBRANCH   1  11
BRANCH   3  12
ATOM     12  C   UNL     1       2.382   7.470  18.289  0.00  0.00    +0.000 C 
ATOM     13  N   UNL     1       2.038   8.547  18.537  0.00  0.00    +0.000 NA
ENDBRANCH   3  12
BRANCH   4  14
ATOM     14  S   UNL     1       5.200   6.832  16.981  0.00  0.00    +0.000 S 
BRANCH  14  15
ATOM     15  C   UNL     1       6.722   5.952  17.491  0.00  0.00    +0.000 C 
BRANCH  15  16
ATOM     16  C   UNL     1       7.301   5.146  16.336  0.00  0.00    +0.000 C 
ATOM     17  O   UNL     1       8.067   4.202  16.522  0.00  0.00    +0.000 OA
ATOM     18  N   UNL     1       6.971   5.595  15.076  0.00  0.00    +0.000 N 
ATOM     19  H   UNL     1       6.335   6.376  14.977  0.00  0.00    +0.000 HD
BRANCH  18  20
ATOM     20  C   UNL     1       7.426   4.936  13.858  0.00  0.00    +0.000 C 
BRANCH  20  21
ATOM     21  C   UNL     1       6.563   3.746  13.414  0.00  0.00    +0.000 C 
ATOM     22  C   UNL     1       6.865   3.173  12.038  0.00  0.00    +0.000 C 
ATOM     23  C   UNL     1       5.537   2.574  11.646  0.00  0.00    +0.000 C 
ATOM     24  C   UNL     1       4.558   3.565  12.238  0.00  0.00    +0.000 C 
ATOM     25  O   UNL     1       5.164   4.103  13.421  0.00  0.00    +0.000 OA
ENDBRANCH  20  21
ENDBRANCH  18  20
ENDBRANCH  15  16
ENDBRANCH  14  15
ENDBRANCH   4  14
TORSDOF 8
ENDMDL
MODEL 3
REMARK VINA RESULT:      -6.6      1.900      3.810
REMARK  Name = 
REMARK  8 active torsions:
REMARK  status: ('A' for Active; 'I' for Inactive)
REMARK    1  A    between atoms: C_2  and  C_3
REMARK    2  A    between atoms: C_5  and  C_6
REMARK    3  A    between atoms: C_8  and  S_9
REMARK    4  A    between atoms: S_9  and  C_10
REMARK    5  A    between atoms: C_10  and  C_11
REMARK    6  A    between atoms: N_13  and  C_14
REMARK    7  A    between atoms: C_14  and  C_15
REMARK    8  A    between atoms: C_21  and  N_22
REMARK                            x       y       z     vdW  Elec       q    Type
REMARK                         _______ _______ _______ _____ _____    ______ ____
ROOT
ATOM      1  C   UNL     1       1.718   7.381  20.259  0.00  0.00    +0.000 A 
ATOM      2  C   UNL     1       1.537   6.167  20.920  0.00  0.00    +0.000 A 
ATOM      3  C   UNL     1       1.850   4.967  20.266  0.00  0.00    +0.000 A 
ATOM      4  C   UNL     1       2.397   5.029  18.986  0.00  0.00    +0.000 A 
ATOM      5  N   UNL     1       2.567   6.213  18.343  0.00  0.00    +0.000 NA
ATOM      6  C   UNL     1       2.210   7.362  18.959  0.00  0.00    +0.000 A 
ENDROOT
BRANCH   6   7
ATOM      7  N   UNL     1       2.241   8.489  18.150  0.00  0.00    +0.000 N 
ATOM      8  H   UNL     1       2.750   8.288  17.293  0.00  0.00    +0.000 HD
ATOM      9  H   UNL     1       2.534   9.352  18.595  0.00  0.00    +0.000 HD
ENDBRANCH   6   7
BRANCH   1  11
ATOM     10  N   UNL     1       1.142   9.623  21.424  0.00  0.00    +0.000 NA
ATOM     11  C   UNL     1       1.392   8.609  20.922  0.00  0.00    +0.000 C 
ENDBRANCH   1  11
BRANCH   3  12
ATOM     12  C   UNL     1       1.537   3.734  20.937  0.00  0.00    +0.000 C 
ATOM     13  N   UNL     1       1.248   2.794  21.547  0.00  0.00    +0.000 NA
ENDBRANCH   3  12
BRANCH   4  14
ATOM     14  S   UNL     1       2.897   3.565  18.076  0.00  0.00    +0.000 S 
BRANCH  14  15
ATOM     15  C   UNL     1       4.563   3.261  18.774  0.00  0.00    +0.000 C 
BRANCH  15  16
ATOM     16  C   UNL     1       5.584   4.228  18.190  0.00  0.00    +0.000 C 
ATOM     17  O   UNL     1       5.899   5.267  18.768  0.00  0.00    +0.000 OA
ATOM     18  N   UNL     1       6.068   3.897  16.943  0.00  0.00    +0.000 N 
ATOM     19  H   UNL     1       5.778   3.029  16.511  0.00  0.00    +0.000 HD
BRANCH  18  20
ATOM     20  C   UNL     1       7.060   4.701  16.242  0.00  0.00    +0.000 C 
BRANCH  20  21
ATOM     21  C   UNL     1       6.721   4.999  14.774  0.00  0.00    +0.000 C 
ATOM     22  C   UNL     1       6.211   3.826  13.951  0.00  0.00    +0.000 C 
ATOM     23  C   UNL     1       6.617   4.221  12.552  0.00  0.00    +0.000 C 
ATOM     24  C   UNL     1       7.945   4.905  12.792  0.00  0.00    +0.000 C 
ATOM     25  O   UNL     1       7.876   5.524  14.084  0.00  0.00    +0.000 OA
ENDBRANCH  20  21
ENDBRANCH  18  20
ENDBRANCH  15  16
ENDBRANCH  14  15
ENDBRANCH   4  14
TORSDOF 8
ENDMDL
MODEL 4
REMARK VINA RESULT:      -6.5      4.303      6.720
REMARK  Name = 
REMARK  8 active torsions:
REMARK  status: ('A' for Active; 'I' for Inactive)
REMARK    1  A    between atoms: C_2  and  C_3
REMARK    2  A    between atoms: C_5  and  C_6
REMARK    3  A    between atoms: C_8  and  S_9
REMARK    4  A    between atoms: S_9  and  C_10
REMARK    5  A    between atoms: C_10  and  C_11
REMARK    6  A    between atoms: N_13  and  C_14
REMARK    7  A    between atoms: C_14  and  C_15
REMARK    8  A    between atoms: C_21  and  N_22
REMARK                            x       y       z     vdW  Elec       q    Type
REMARK                         _______ _______ _______ _____ _____    ______ ____
ROOT
ATOM      1  C   UNL     1       3.245   4.009  17.911  0.00  0.00    +0.000 A 
ATOM      2  C   UNL     1       3.907   3.818  16.700  0.00  0.00    +0.000 A 
ATOM      3  C   UNL     1       5.283   4.071  16.612  0.00  0.00    +0.000 A 
ATOM      4  C   UNL     1       5.966   4.449  17.767  0.00  0.00    +0.000 A 
ATOM      5  N   UNL     1       5.317   4.640  18.945  0.00  0.00    +0.000 NA
ATOM      6  C   UNL     1       3.980   4.448  19.008  0.00  0.00    +0.000 A 
ENDROOT
BRANCH   6   7
ATOM      7  N   UNL     1       3.388   4.854  20.195  0.00  0.00    +0.000 N 
ATOM      8  H   UNL     1       3.704   5.790  20.437  0.00  0.00    +0.000 HD
ATOM      9  H   UNL     1       3.443   4.202  20.969  0.00  0.00    +0.000 HD
ENDBRANCH   6   7
BRANCH   1  11
ATOM     10  N   UNL     1       0.706   3.515  18.072  0.00  0.00    +0.000 NA
ATOM     11  C   UNL     1       1.837   3.758  18.002  0.00  0.00    +0.000 C 
ENDBRANCH   1  11
BRANCH   3  12
ATOM     12  C   UNL     1       5.905   3.978  15.319  0.00  0.00    +0.000 C 
ATOM     13  N   UNL     1       6.444   3.989  14.295  0.00  0.00    +0.000 NA
ENDBRANCH   3  12
BRANCH   4  14
ATOM     14  S   UNL     1       7.737   4.738  17.794  0.00  0.00    +0.000 S 
BRANCH  14  15
ATOM     15  C   UNL     1       7.849   6.162  18.940  0.00  0.00    +0.000 C 
BRANCH  15  16
ATOM     16  C   UNL     1       7.893   7.478  18.175  0.00  0.00    +0.000 C 
ATOM     17  O   UNL     1       7.380   7.600  17.065  0.00  0.00    +0.000 OA
ATOM     18  N   UNL     1       8.610   8.489  18.776  0.00  0.00    +0.000 N 
ATOM     19  H   UNL     1       9.012   8.337  19.693  0.00  0.00    +0.000 HD
BRANCH  18  20
ATOM     20  C   UNL     1       8.745   9.817  18.191  0.00  0.00    +0.000 C 
BRANCH  20  21
ATOM     21  C   UNL     1       9.846  10.684  18.820  0.00  0.00    +0.000 C 
ATOM     22  C   UNL     1       9.396  11.680  19.878  0.00  0.00    +0.000 C 
ATOM     23  C   UNL     1      10.457  12.747  19.780  0.00  0.00    +0.000 C 
ATOM     24  C   UNL     1      10.744  12.770  18.294  0.00  0.00    +0.000 C 
ATOM     25  O   UNL     1      10.539  11.439  17.803  0.00  0.00    +0.000 OA
ENDBRANCH  20  21
ENDBRANCH  18  20
ENDBRANCH  15  16
ENDBRANCH  14  15
ENDBRANCH   4  14
TORSDOF 8
ENDMDL
MODEL 5
REMARK VINA RESULT:      -6.5      4.062      7.621
REMARK  Name = 
REMARK  8 active torsions:
REMARK  status: ('A' for Active; 'I' for Inactive)
REMARK    1  A    between atoms: C_2  and  C_3
REMARK    2  A    between atoms: C_5  and  C_6
REMARK    3  A    between atoms: C_8  and  S_9
REMARK    4  A    between atoms: S_9  and  C_10
REMARK    5  A    between atoms: C_10  and  C_11
REMARK    6  A    between atoms: N_13  and  C_14
REMARK    7  A    between atoms: C_14  and  C_15
REMARK    8  A    between atoms: C_21  and  N_22
REMARK                            x       y       z     vdW  Elec       q    Type
REMARK                         _______ _______ _______ _____ _____    ______ ____
ROOT
ATOM      1  C   UNL     1       6.074   5.898  18.042  0.00  0.00    +0.000 A 
ATOM      2  C   UNL     1       4.895   5.459  17.440  0.00  0.00    +0.000 A 
ATOM      3  C   UNL     1       4.129   4.461  18.058  0.00  0.00    +0.000 A 
ATOM      4  C   UNL     1       4.540   3.979  19.299  0.00  0.00    +0.000 A 
ATOM      5  N   UNL     1       5.692   4.404  19.880  0.00  0.00    +0.000 NA
ATOM      6  C   UNL     1       6.454   5.325  19.251  0.00  0.00    +0.000 A 
ENDROOT
BRANCH   6   7
ATOM      7  N   UNL     1       7.696   5.546  19.829  0.00  0.00    +0.000 N 
ATOM      8  H   UNL     1       8.348   4.823  19.536  0.00  0.00    +0.000 HD
ATOM      9  H   UNL     1       7.703   5.708  20.830  0.00  0.00    +0.000 HD
ENDBRANCH   6   7
BRANCH   1  11
ATOM     10  N   UNL     1       7.531   7.727  16.926  0.00  0.00    +0.000 NA
ATOM     11  C   UNL     1       6.863   6.912  17.409  0.00  0.00    +0.000 C 
ENDBRANCH   1  11
BRANCH   3  12
ATOM     12  C   UNL     1       2.986   3.953  17.347  0.00  0.00    +0.000 C 
ATOM     13  N   UNL     1       2.060   3.476  16.844  0.00  0.00    +0.000 NA
ENDBRANCH   3  12
BRANCH   4  14
ATOM     14  S   UNL     1       3.608   2.748  20.215  0.00  0.00    +0.000 S 
BRANCH  14  15
ATOM     15  C   UNL     1       2.748   3.797  21.446  0.00  0.00    +0.000 C 
BRANCH  15  16
ATOM     16  C   UNL     1       1.892   4.854  20.761  0.00  0.00    +0.000 C 
ATOM     17  O   UNL     1       0.810   4.579  20.246  0.00  0.00    +0.000 OA
ATOM     18  N   UNL     1       2.448   6.113  20.692  0.00  0.00    +0.000 N 
ATOM     19  H   UNL     1       3.342   6.287  21.134  0.00  0.00    +0.000 HD
BRANCH  18  20
ATOM     20  C   UNL     1       1.763   7.246  20.084  0.00  0.00    +0.000 C 
BRANCH  20  21
ATOM     21  C   UNL     1       1.301   8.323  21.077  0.00  0.00    +0.000 C 
ATOM     22  C   UNL     1      -0.032   8.075  21.767  0.00  0.00    +0.000 C 
ATOM     23  C   UNL     1      -0.493   9.477  22.079  0.00  0.00    +0.000 C 
ATOM     24  C   UNL     1      -0.001  10.245  20.871  0.00  0.00    +0.000 C 
ATOM     25  O   UNL     1       1.202   9.606  20.424  0.00  0.00    +0.000 OA
ENDBRANCH  20  21
ENDBRANCH  18  20
ENDBRANCH  15  16
ENDBRANCH  14  15
ENDBRANCH   4  14
TORSDOF 8
ENDMDL
MODEL 6
REMARK VINA RESULT:      -6.4      3.926      6.056
REMARK  Name = 
REMARK  8 active torsions:
REMARK  status: ('A' for Active; 'I' for Inactive)
REMARK    1  A    between atoms: C_2  and  C_3
REMARK    2  A    between atoms: C_5  and  C_6
REMARK    3  A    between atoms: C_8  and  S_9
REMARK    4  A    between atoms: S_9  and  C_10
REMARK    5  A    between atoms: C_10  and  C_11
REMARK    6  A    between atoms: N_13  and  C_14
REMARK    7  A    between atoms: C_14  and  C_15
REMARK    8  A    between atoms: C_21  and  N_22
REMARK                            x       y       z     vdW  Elec       q    Type
REMARK                         _______ _______ _______ _____ _____    ______ ____
ROOT
ATOM      1  C   UNL     1       3.191   3.446  20.372  0.00  0.00    +0.000 A 
ATOM      2  C   UNL     1       2.928   4.647  19.713  0.00  0.00    +0.000 A 
ATOM      3  C   UNL     1       3.880   5.181  18.834  0.00  0.00    +0.000 A 
ATOM      4  C   UNL     1       5.047   4.456  18.595  0.00  0.00    +0.000 A 
ATOM      5  N   UNL     1       5.303   3.289  19.243  0.00  0.00    +0.000 NA
ATOM      6  C   UNL     1       4.404   2.810  20.131  0.00  0.00    +0.000 A 
ENDROOT
BRANCH   6   7
ATOM      7  N   UNL     1       4.844   1.725  20.876  0.00  0.00    +0.000 N 
ATOM      8  H   UNL     1       4.282   0.905  20.660  0.00  0.00    +0.000 HD
ATOM      9  H   UNL     1       4.957   1.881  21.871  0.00  0.00    +0.000 HD
ENDBRANCH   6   7
BRANCH   1  11
ATOM     10  N   UNL     1       1.410   2.476  21.983  0.00  0.00    +0.000 NA
ATOM     11  C   UNL     1       2.223   2.901  21.276  0.00  0.00    +0.000 C 
ENDBRANCH   1  11
BRANCH   3  12
ATOM     12  C   UNL     1       3.622   6.478  18.269  0.00  0.00    +0.000 C 
ATOM     13  N   UNL     1       3.410   7.479  17.727  0.00  0.00    +0.000 NA
ENDBRANCH   3  12
BRANCH   4  14
ATOM     14  S   UNL     1       6.308   5.006  17.443  0.00  0.00    +0.000 S 
BRANCH  14  15
ATOM     15  C   UNL     1       7.401   5.976  18.548  0.00  0.00    +0.000 C 
BRANCH  15  16
ATOM     16  C   UNL     1       7.782   7.305  17.909  0.00  0.00    +0.000 C 
ATOM     17  O   UNL     1       7.742   7.476  16.692  0.00  0.00    +0.000 OA
ATOM     18  N   UNL     1       8.245   8.269  18.778  0.00  0.00    +0.000 N 
ATOM     19  H   UNL     1       8.257   8.079  19.772  0.00  0.00    +0.000 HD
BRANCH  18  20
ATOM     20  C   UNL     1       8.641   9.602  18.341  0.00  0.00    +0.000 C 
BRANCH  20  21
ATOM     21  C   UNL     1       9.757  10.244  19.179  0.00  0.00    +0.000 C 
ATOM     22  C   UNL     1       9.328  10.894  20.485  0.00  0.00    +0.000 C 
ATOM     23  C   UNL     1      10.397  11.938  20.686  0.00  0.00    +0.000 C 
ATOM     24  C   UNL     1      10.667  12.388  19.266  0.00  0.00    +0.000 C 
ATOM     25  O   UNL     1      10.445  11.257  18.414  0.00  0.00    +0.000 OA
ENDBRANCH  20  21
ENDBRANCH  18  20
ENDBRANCH  15  16
ENDBRANCH  14  15
ENDBRANCH   4  14
TORSDOF 8
ENDMDL
MODEL 7
REMARK VINA RESULT:      -6.4      1.043      1.326
REMARK  Name = 
REMARK  8 active torsions:
REMARK  status: ('A' for Active; 'I' for Inactive)
REMARK    1  A    between atoms: C_2  and  C_3
REMARK    2  A    between atoms: C_5  and  C_6
REMARK    3  A    between atoms: C_8  and  S_9
REMARK    4  A    between atoms: S_9  and  C_10
REMARK    5  A    between atoms: C_10  and  C_11
REMARK    6  A    between atoms: N_13  and  C_14
REMARK    7  A    between atoms: C_14  and  C_15
REMARK    8  A    between atoms: C_21  and  N_22
REMARK                            x       y       z     vdW  Elec       q    Type
REMARK                         _______ _______ _______ _____ _____    ______ ____
ROOT
ATOM      1  C   UNL     1       2.428   3.875  20.721  0.00  0.00    +0.000 A 
ATOM      2  C   UNL     1       1.943   5.175  20.591  0.00  0.00    +0.000 A 
ATOM      3  C   UNL     1       2.602   6.082  19.750  0.00  0.00    +0.000 A 
ATOM      4  C   UNL     1       3.696   5.633  19.012  0.00  0.00    +0.000 A 
ATOM      5  N   UNL     1       4.170   4.366  19.145  0.00  0.00    +0.000 NA
ATOM      6  C   UNL     1       3.562   3.515  20.001  0.00  0.00    +0.000 A 
ENDROOT
BRANCH   6   7
ATOM      7  N   UNL     1       4.234   2.319  20.208  0.00  0.00    +0.000 N 
ATOM      8  H   UNL     1       3.590   1.538  20.115  0.00  0.00    +0.000 HD
ATOM      9  H   UNL     1       4.808   2.265  21.042  0.00  0.00    +0.000 HD
ENDBRANCH   6   7
BRANCH   1  11
ATOM     10  N   UNL     1       1.257   2.188  22.302  0.00  0.00    +0.000 NA
ATOM     11  C   UNL     1       1.760   2.948  21.586  0.00  0.00    +0.000 C 
ENDBRANCH   1  11
BRANCH   3  12
ATOM     12  C   UNL     1       2.142   7.445  19.736  0.00  0.00    +0.000 C 
ATOM     13  N   UNL     1       1.862   8.568  19.746  0.00  0.00    +0.000 NA
ENDBRANCH   3  12
BRANCH   4  14
ATOM     14  S   UNL     1       4.580   6.682  17.856  0.00  0.00    +0.000 S 
BRANCH  14  15
ATOM     15  C   UNL     1       6.307   6.134  18.125  0.00  0.00    +0.000 C 
BRANCH  15  16
ATOM     16  C   UNL     1       6.706   5.068  17.114  0.00  0.00    +0.000 C 
ATOM     17  O   UNL     1       7.861   4.653  17.030  0.00  0.00    +0.000 OA
ATOM     18  N   UNL     1       5.708   4.661  16.256  0.00  0.00    +0.000 N 
ATOM     19  H   UNL     1       4.773   5.033  16.368  0.00  0.00    +0.000 HD
BRANCH  18  20
ATOM     20  C   UNL     1       5.911   3.641  15.235  0.00  0.00    +0.000 C 
BRANCH  20  21
ATOM     21  C   UNL     1       6.040   4.184  13.805  0.00  0.00    +0.000 C 
ATOM     22  C   UNL     1       6.385   3.167  12.728  0.00  0.00    +0.000 C 
ATOM     23  C   UNL     1       7.076   4.021  11.694  0.00  0.00    +0.000 C 
ATOM     24  C   UNL     1       7.827   5.012  12.557  0.00  0.00    +0.000 C 
ATOM     25  O   UNL     1       7.048   5.216  13.743  0.00  0.00    +0.000 OA
ENDBRANCH  20  21
ENDBRANCH  18  20
ENDBRANCH  15  16
ENDBRANCH  14  15
ENDBRANCH   4  14
TORSDOF 8
ENDMDL
MODEL 8
REMARK VINA RESULT:      -6.4      4.195      6.479
REMARK  Name = 
REMARK  8 active torsions:
REMARK  status: ('A' for Active; 'I' for Inactive)
REMARK    1  A    between atoms: C_2  and  C_3
REMARK    2  A    between atoms: C_5  and  C_6
REMARK    3  A    between atoms: C_8  and  S_9
REMARK    4  A    between atoms: S_9  and  C_10
REMARK    5  A    between atoms: C_10  and  C_11
REMARK    6  A    between atoms: N_13  and  C_14
REMARK    7  A    between atoms: C_14  and  C_15
REMARK    8  A    between atoms: C_21  and  N_22
REMARK                            x       y       z     vdW  Elec       q    Type
REMARK                         _______ _______ _______ _____ _____    ______ ____
ROOT
ATOM      1  C   UNL     1       3.211   3.354  18.177  0.00  0.00    +0.000 A 
ATOM      2  C   UNL     1       3.595   4.026  17.018  0.00  0.00    +0.000 A 
ATOM      3  C   UNL     1       4.912   4.488  16.886  0.00  0.00    +0.000 A 
ATOM      4  C   UNL     1       5.822   4.203  17.902  0.00  0.00    +0.000 A 
ATOM      5  N   UNL     1       5.444   3.553  19.033  0.00  0.00    +0.000 NA
ATOM      6  C   UNL     1       4.158   3.160  19.177  0.00  0.00    +0.000 A 
ENDROOT
BRANCH   6   7
ATOM      7  N   UNL     1       3.833   2.684  20.438  0.00  0.00    +0.000 N 
ATOM      8  H   UNL     1       3.914   3.431  21.123  0.00  0.00    +0.000 HD
ATOM      9  H   UNL     1       4.292   1.827  20.726  0.00  0.00    +0.000 HD
ENDBRANCH   6   7
BRANCH   1  11
ATOM     10  N   UNL     1       0.777   2.514  18.473  0.00  0.00    +0.000 NA
ATOM     11  C   UNL     1       1.863   2.887  18.318  0.00  0.00    +0.000 C 
ENDBRANCH   1  11
BRANCH   3  12
ATOM     12  C   UNL     1       5.236   5.280  15.730  0.00  0.00    +0.000 C 
ATOM     13  N   UNL     1       5.518   5.988  14.859  0.00  0.00    +0.000 NA
ENDBRANCH   3  12
BRANCH   4  14
ATOM     14  S   UNL     1       7.549   4.686  17.817  0.00  0.00    +0.000 S 
BRANCH  14  15
ATOM     15  C   UNL     1       7.550   6.192  18.859  0.00  0.00    +0.000 C 
BRANCH  15  16
ATOM     16  C   UNL     1       7.856   7.431  18.028  0.00  0.00    +0.000 C 
ATOM     17  O   UNL     1       7.704   7.448  16.808  0.00  0.00    +0.000 OA
ATOM     18  N   UNL     1       8.384   8.496  18.724  0.00  0.00    +0.000 N 
ATOM     19  H   UNL     1       8.487   8.432  19.729  0.00  0.00    +0.000 HD
BRANCH  18  20
ATOM     20  C   UNL     1       8.723   9.764  18.091  0.00  0.00    +0.000 C 
BRANCH  20  21
ATOM     21  C   UNL     1       9.110  10.884  19.068  0.00  0.00    +0.000 C 
ATOM     22  C   UNL     1       9.247  12.277  18.473  0.00  0.00    +0.000 C 
ATOM     23  C   UNL     1      10.226  12.930  19.418  0.00  0.00    +0.000 C 
ATOM     24  C   UNL     1      11.149  11.779  19.758  0.00  0.00    +0.000 C 
ATOM     25  O   UNL     1      10.364  10.580  19.716  0.00  0.00    +0.000 OA
ENDBRANCH  20  21
ENDBRANCH  18  20
ENDBRANCH  15  16
ENDBRANCH  14  15
ENDBRANCH   4  14
TORSDOF 8
ENDMDL
MODEL 9
REMARK VINA RESULT:      -6.4      2.872      5.014
REMARK  Name = 
REMARK  8 active torsions:
REMARK  status: ('A' for Active; 'I' for Inactive)
REMARK    1  A    between atoms: C_2  and  C_3
REMARK    2  A    between atoms: C_5  and  C_6
REMARK    3  A    between atoms: C_8  and  S_9
REMARK    4  A    between atoms: S_9  and  C_10
REMARK    5  A    between atoms: C_10  and  C_11
REMARK    6  A    between atoms: N_13  and  C_14
REMARK    7  A    between atoms: C_14  and  C_15
REMARK    8  A    between atoms: C_21  and  N_22
REMARK                            x       y       z     vdW  Elec       q    Type
REMARK                         _______ _______ _______ _____ _____    ______ ____
ROOT
ATOM      1  C   UNL     1       2.014   6.839  20.082  0.00  0.00    +0.000 A 
ATOM      2  C   UNL     1       1.700   5.770  20.919  0.00  0.00    +0.000 A 
ATOM      3  C   UNL     1       2.211   4.495  20.640  0.00  0.00    +0.000 A 
ATOM      4  C   UNL     1       3.078   4.347  19.560  0.00  0.00    +0.000 A 
ATOM      5  N   UNL     1       3.379   5.389  18.742  0.00  0.00    +0.000 NA
ATOM      6  C   UNL     1       2.837   6.603  18.986  0.00  0.00    +0.000 A 
ENDROOT
BRANCH   6   7
ATOM      7  N   UNL     1       3.049   7.546  17.990  0.00  0.00    +0.000 N 
ATOM      8  H   UNL     1       3.778   7.225  17.358  0.00  0.00    +0.000 HD
ATOM      9  H   UNL     1       3.182   8.502  18.298  0.00  0.00    +0.000 HD
ENDBRANCH   6   7
BRANCH   1  11
ATOM     10  N   UNL     1       1.093   9.202  20.612  0.00  0.00    +0.000 NA
ATOM     11  C   UNL     1       1.488   8.142  20.361  0.00  0.00    +0.000 C 
ENDBRANCH   1  11
BRANCH   3  12
ATOM     12  C   UNL     1       1.767   3.397  21.457  0.00  0.00    +0.000 C 
ATOM     13  N   UNL     1       1.496   2.475  22.102  0.00  0.00    +0.000 NA
ENDBRANCH   3  12
BRANCH   4  14
ATOM     14  S   UNL     1       3.845   2.778  19.143  0.00  0.00    +0.000 S 
BRANCH  14  15
ATOM     15  C   UNL     1       4.036   2.946  17.329  0.00  0.00    +0.000 C 
BRANCH  15  16
ATOM     16  C   UNL     1       5.208   3.855  16.984  0.00  0.00    +0.000 C 
ATOM     17  O   UNL     1       5.283   4.435  15.902  0.00  0.00    +0.000 OA
ATOM     18  N   UNL     1       6.206   3.920  17.931  0.00  0.00    +0.000 N 
ATOM     19  H   UNL     1       6.095   3.424  18.806  0.00  0.00    +0.000 HD
BRANCH  18  20
ATOM     20  C   UNL     1       7.393   4.751  17.771  0.00  0.00    +0.000 C 
BRANCH  20  21
ATOM     21  C   UNL     1       7.178   6.240  18.077  0.00  0.00    +0.000 C 
ATOM     22  C   UNL     1       7.307   7.194  16.900  0.00  0.00    +0.000 C 
ATOM     23  C   UNL     1       7.715   8.479  17.576  0.00  0.00    +0.000 C 
ATOM     24  C   UNL     1       8.606   7.977  18.692  0.00  0.00    +0.000 C 
ATOM     25  O   UNL     1       8.108   6.691  19.085  0.00  0.00    +0.000 OA
ENDBRANCH  20  21
ENDBRANCH  18  20
ENDBRANCH  15  16
ENDBRANCH  14  15
ENDBRANCH   4  14
TORSDOF 8
ENDMDL
