MODEL 1
REMARK VINA RESULT:      -8.9      0.000      0.000
REMARK  Name = 
REMARK  9 active torsions:
REMARK  status: ('A' for Active; 'I' for Inactive)
REMARK    1  A    between atoms: C_1  and  C_2
REMARK    2  A    between atoms: C_2  and  C_3
REMARK    3  A    between atoms: C_2  and  N_4
REMARK    4  A    between atoms: C_5  and  C_7
REMARK    5  A    between atoms: C_7  and  C_8
REMARK    6  A    between atoms: C_8  and  S_9
REMARK    7  A    between atoms: S_9  and  C_10
REMARK    8  A    between atoms: C_12  and  C_13
REMARK    9  A    between atoms: C_23  and  C_24
REMARK                            x       y       z     vdW  Elec       q    Type
REMARK                         _______ _______ _______ _____ _____    ______ ____
ROOT
ATOM      1  C   UNL     1       5.260   4.872  18.662  0.00  0.00    +0.000 A 
ATOM      2  N   UNL     1       4.518   5.950  18.956  0.00  0.00    +0.000 NA
ATOM      3  C   UNL     1       3.192   5.766  19.125  0.00  0.00    +0.000 A 
ATOM      4  C   UNL     1       2.614   4.516  18.987  0.00  0.00    +0.000 A 
ATOM      5  C   UNL     1       3.450   3.454  18.692  0.00  0.00    +0.000 A 
ATOM      6  N   UNL     1       4.785   3.626  18.534  0.00  0.00    +0.000 NA
ENDROOT
BRANCH   3   7
ATOM      7  C   UNL     1       2.392   6.974  19.431  0.00  0.00    +0.000 A 
ATOM      8  C   UNL     1       1.749   7.119  20.689  0.00  0.00    +0.000 A 
ATOM      9  C   UNL     1       1.018   8.269  21.022  0.00  0.00    +0.000 A 
ATOM     10  C   UNL     1       0.931   9.266  20.080  0.00  0.00    +0.000 A 
ATOM     11  C   UNL     1       1.529   9.144  18.852  0.00  0.00    +0.000 A 
ATOM     12  C   UNL     1       2.253   8.023  18.499  0.00  0.00    +0.000 A 
ATOM     13  O   UNL     1       1.324  10.232  18.061  0.00  0.00    +0.000 OA
ATOM     14  C   UNL     1       0.508  11.046  18.929  0.00  0.00    +0.000 C 
ATOM     15  O   UNL     1       0.274  10.448  20.222  0.00  0.00    +0.000 OA
ENDBRANCH   3   7
BRANCH   5  16
ATOM     16  C   UNL     1       2.860   2.061  18.530  0.00  0.00    +0.000 C 
ATOM     17  F   UNL     1       2.258   1.875  17.316  0.00  0.00    +0.000 F 
ATOM     18  F   UNL     1       3.791   1.072  18.627  0.00  0.00    +0.000 F 
ATOM     19  F   UNL     1       1.900   1.777  19.454  0.00  0.00    +0.000 F 
ENDBRANCH   5  16
BRANCH   1  20
ATOM     20  S   UNL     1       6.996   5.126  18.380  0.00  0.00    +0.000 S 
BRANCH  20  21
ATOM     21  C   UNL     1       6.928   5.413  16.581  0.00  0.00    +0.000 C 
BRANCH  21  22
ATOM     22  C   UNL     1       6.832   4.097  15.815  0.00  0.00    +0.000 C 
BRANCH  22  24
ATOM     23  N   UNL     1       6.195   3.340  13.595  0.00  0.00    +0.000 N 
ATOM     24  C   UNL     1       6.779   4.360  14.321  0.00  0.00    +0.000 C 
ATOM     25  O   UNL     1       7.208   5.385  13.806  0.00  0.00    +0.000 OA
ATOM     26  H   UNL     1       6.021   2.454  14.054  0.00  0.00    +0.000 HD
BRANCH  23  28
ATOM     27  C   UNL     1       6.863   2.278  11.475  0.00  0.00    +0.000 C 
ATOM     28  C   UNL     1       6.079   3.406  12.143  0.00  0.00    +0.000 C 
ATOM     29  C   UNL     1       4.614   3.364  11.721  0.00  0.00    +0.000 C 
ENDBRANCH  23  28
ENDBRANCH  22  24
ENDBRANCH  21  22
ENDBRANCH  20  21
ENDBRANCH   1  20
TORSDOF 7
ENDMDL
MODEL 2
REMARK VINA RESULT:      -8.9      0.774      1.561
REMARK  Name = 
REMARK  9 active torsions:
REMARK  status: ('A' for Active; 'I' for Inactive)
REMARK    1  A    between atoms: C_1  and  C_2
REMARK    2  A    between atoms: C_2  and  C_3
REMARK    3  A    between atoms: C_2  and  N_4
REMARK    4  A    between atoms: C_5  and  C_7
REMARK    5  A    between atoms: C_7  and  C_8
REMARK    6  A    between atoms: C_8  and  S_9
REMARK    7  A    between atoms: S_9  and  C_10
REMARK    8  A    between atoms: C_12  and  C_13
REMARK    9  A    between atoms: C_23  and  C_24
REMARK                            x       y       z     vdW  Elec       q    Type
REMARK                         _______ _______ _______ _____ _____    ______ ____
ROOT
ATOM      1  C   UNL     1       4.965   5.039  18.506  0.00  0.00    +0.000 A 
ATOM      2  N   UNL     1       4.336   6.212  18.665  0.00  0.00    +0.000 NA
ATOM      3  C   UNL     1       2.988   6.193  18.734  0.00  0.00    +0.000 A 
ATOM      4  C   UNL     1       2.279   5.009  18.629  0.00  0.00    +0.000 A 
ATOM      5  C   UNL     1       3.003   3.840  18.476  0.00  0.00    +0.000 A 
ATOM      6  N   UNL     1       4.357   3.849  18.420  0.00  0.00    +0.000 NA
ENDROOT
BRANCH   3   7
ATOM      7  C   UNL     1       2.316   7.503  18.892  0.00  0.00    +0.000 A 
ATOM      8  C   UNL     1       2.211   8.401  17.798  0.00  0.00    +0.000 A 
ATOM      9  C   UNL     1       1.547   9.632  17.907  0.00  0.00    +0.000 A 
ATOM     10  C   UNL     1       0.998   9.956  19.125  0.00  0.00    +0.000 A 
ATOM     11  C   UNL     1       1.100   9.113  20.203  0.00  0.00    +0.000 A 
ATOM     12  C   UNL     1       1.749   7.897  20.122  0.00  0.00    +0.000 A 
ATOM     13  O   UNL     1       0.499   9.614  21.316  0.00  0.00    +0.000 OA
ATOM     14  C   UNL     1       0.024  10.882  20.817  0.00  0.00    +0.000 C 
ATOM     15  O   UNL     1       0.317  11.095  19.421  0.00  0.00    +0.000 OA
ENDBRANCH   3   7
BRANCH   5  16
ATOM     16  C   UNL     1       2.266   2.515  18.356  0.00  0.00    +0.000 C 
ATOM     17  F   UNL     1       2.754   1.556  19.200  0.00  0.00    +0.000 F 
ATOM     18  F   UNL     1       0.940   2.612  18.646  0.00  0.00    +0.000 F 
ATOM     19  F   UNL     1       2.348   1.971  17.109  0.00  0.00    +0.000 F 
ENDBRANCH   5  16
BRANCH   1  20
ATOM     20  S   UNL     1       6.735   5.074  18.355  0.00  0.00    +0.000 S 
BRANCH  20  21
ATOM     21  C   UNL     1       6.838   5.357  16.557  0.00  0.00    +0.000 C 
BRANCH  21  22
ATOM     22  C   UNL     1       6.704   4.049  15.783  0.00  0.00    +0.000 C 
BRANCH  22  24
ATOM     23  N   UNL     1       6.154   3.285  13.543  0.00  0.00    +0.000 N 
ATOM     24  C   UNL     1       6.681   4.321  14.290  0.00  0.00    +0.000 C 
ATOM     25  O   UNL     1       7.084   5.365  13.793  0.00  0.00    +0.000 OA
ATOM     26  H   UNL     1       6.001   2.390  13.991  0.00  0.00    +0.000 HD
BRANCH  23  28
ATOM     27  C   UNL     1       6.897   2.248  11.435  0.00  0.00    +0.000 C 
ATOM     28  C   UNL     1       6.074   3.357  12.088  0.00  0.00    +0.000 C 
ATOM     29  C   UNL     1       4.621   3.289  11.629  0.00  0.00    +0.000 C 
ENDBRANCH  23  28
ENDBRANCH  22  24
ENDBRANCH  21  22
ENDBRANCH  20  21
ENDBRANCH   1  20
TORSDOF 7
ENDMDL
MODEL 3
REMARK VINA RESULT:      -8.6      1.066      1.621
REMARK  Name = 
REMARK  9 active torsions:
REMARK  status: ('A' for Active; 'I' for Inactive)
REMARK    1  A    between atoms: C_1  and  C_2
REMARK    2  A    between atoms: C_2  and  C_3
REMARK    3  A    between atoms: C_2  and  N_4
REMARK    4  A    between atoms: C_5  and  C_7
REMARK    5  A    between atoms: C_7  and  C_8
REMARK    6  A    between atoms: C_8  and  S_9
REMARK    7  A    between atoms: S_9  and  C_10
REMARK    8  A    between atoms: C_12  and  C_13
REMARK    9  A    between atoms: C_23  and  C_24
REMARK                            x       y       z     vdW  Elec       q    Type
REMARK                         _______ _______ _______ _____ _____    ______ ____
ROOT
ATOM      1  C   UNL     1       4.351   4.760  18.844  0.00  0.00    +0.000 A 
ATOM      2  N   UNL     1       3.870   6.011  18.896  0.00  0.00    +0.000 NA
ATOM      3  C   UNL     1       2.565   6.165  19.202  0.00  0.00    +0.000 A 
ATOM      4  C   UNL     1       1.747   5.075  19.439  0.00  0.00    +0.000 A 
ATOM      5  C   UNL     1       2.321   3.817  19.375  0.00  0.00    +0.000 A 
ATOM      6  N   UNL     1       3.634   3.653  19.083  0.00  0.00    +0.000 NA
ENDROOT
BRANCH   3   7
ATOM      7  C   UNL     1       2.056   7.555  19.236  0.00  0.00    +0.000 A 
ATOM      8  C   UNL     1       2.090   8.369  18.073  0.00  0.00    +0.000 A 
ATOM      9  C   UNL     1       1.579   9.675  18.064  0.00  0.00    +0.000 A 
ATOM     10  C   UNL     1       1.044  10.159  19.234  0.00  0.00    +0.000 A 
ATOM     11  C   UNL     1       1.013   9.400  20.376  0.00  0.00    +0.000 A 
ATOM     12  C   UNL     1       1.510   8.113  20.411  0.00  0.00    +0.000 A 
ATOM     13  O   UNL     1       0.450  10.058  21.425  0.00  0.00    +0.000 OA
ATOM     14  C   UNL     1       0.147  11.330  20.814  0.00  0.00    +0.000 C 
ATOM     15  O   UNL     1       0.500  11.393  19.417  0.00  0.00    +0.000 OA
ENDBRANCH   3   7
BRANCH   5  16
ATOM     16  C   UNL     1       1.461   2.589  19.627  0.00  0.00    +0.000 C 
ATOM     17  F   UNL     1       0.351   2.542  18.828  0.00  0.00    +0.000 F 
ATOM     18  F   UNL     1       2.119   1.419  19.399  0.00  0.00    +0.000 F 
ATOM     19  F   UNL     1       0.988   2.521  20.903  0.00  0.00    +0.000 F 
ENDBRANCH   5  16
BRANCH   1  20
ATOM     20  S   UNL     1       6.054   4.555  18.383  0.00  0.00    +0.000 S 
BRANCH  20  21
ATOM     21  C   UNL     1       5.810   4.301  16.594  0.00  0.00    +0.000 C 
BRANCH  21  22
ATOM     22  C   UNL     1       7.146   4.159  15.869  0.00  0.00    +0.000 C 
BRANCH  22  24
ATOM     23  N   UNL     1       6.291   3.474  13.700  0.00  0.00    +0.000 N 
ATOM     24  C   UNL     1       6.975   4.456  14.390  0.00  0.00    +0.000 C 
ATOM     25  O   UNL     1       7.398   5.474  13.859  0.00  0.00    +0.000 OA
ATOM     26  H   UNL     1       6.122   2.586  14.155  0.00  0.00    +0.000 HD
BRANCH  23  28
ATOM     27  C   UNL     1       6.986   2.651  11.484  0.00  0.00    +0.000 C 
ATOM     28  C   UNL     1       6.053   3.575  12.264  0.00  0.00    +0.000 C 
ATOM     29  C   UNL     1       4.595   3.265  11.941  0.00  0.00    +0.000 C 
ENDBRANCH  23  28
ENDBRANCH  22  24
ENDBRANCH  21  22
ENDBRANCH  20  21
ENDBRANCH   1  20
TORSDOF 7
ENDMDL
MODEL 4
REMARK VINA RESULT:      -8.5      1.615      2.123
REMARK  Name = 
REMARK  9 active torsions:
REMARK  status: ('A' for Active; 'I' for Inactive)
REMARK    1  A    between atoms: C_1  and  C_2
REMARK    2  A    between atoms: C_2  and  C_3
REMARK    3  A    between atoms: C_2  and  N_4
REMARK    4  A    between atoms: C_5  and  C_7
REMARK    5  A    between atoms: C_7  and  C_8
REMARK    6  A    between atoms: C_8  and  S_9
REMARK    7  A    between atoms: S_9  and  C_10
REMARK    8  A    between atoms: C_12  and  C_13
REMARK    9  A    between atoms: C_23  and  C_24
REMARK                            x       y       z     vdW  Elec       q    Type
REMARK                         _______ _______ _______ _____ _____    ______ ____
ROOT
ATOM      1  C   UNL     1       3.548   4.320  18.146  0.00  0.00    +0.000 A 
ATOM      2  N   UNL     1       3.197   5.613  18.106  0.00  0.00    +0.000 NA
ATOM      3  C   UNL     1       2.552   6.118  19.179  0.00  0.00    +0.000 A 
ATOM      4  C   UNL     1       2.251   5.329  20.275  0.00  0.00    +0.000 A 
ATOM      5  C   UNL     1       2.657   4.006  20.243  0.00  0.00    +0.000 A 
ATOM      6  N   UNL     1       3.317   3.495  19.176  0.00  0.00    +0.000 NA
ENDROOT
BRANCH   3   7
ATOM      7  C   UNL     1       2.160   7.543  19.102  0.00  0.00    +0.000 A 
ATOM      8  C   UNL     1       2.339   8.282  17.903  0.00  0.00    +0.000 A 
ATOM      9  C   UNL     1       1.941   9.622  17.788  0.00  0.00    +0.000 A 
ATOM     10  C   UNL     1       1.371  10.216  18.889  0.00  0.00    +0.000 A 
ATOM     11  C   UNL     1       1.202   9.530  20.065  0.00  0.00    +0.000 A 
ATOM     12  C   UNL     1       1.585   8.211  20.204  0.00  0.00    +0.000 A 
ATOM     13  O   UNL     1       0.627  10.291  21.035  0.00  0.00    +0.000 OA
ATOM     14  C   UNL     1       0.473  11.545  20.337  0.00  0.00    +0.000 C 
ATOM     15  O   UNL     1       0.922  11.497  18.967  0.00  0.00    +0.000 OA
ENDBRANCH   3   7
BRANCH   5  16
ATOM     16  C   UNL     1       2.347   3.100  21.425  0.00  0.00    +0.000 C 
ATOM     17  F   UNL     1       1.156   2.441  21.293  0.00  0.00    +0.000 F 
ATOM     18  F   UNL     1       3.280   2.127  21.610  0.00  0.00    +0.000 F 
ATOM     19  F   UNL     1       2.256   3.775  22.605  0.00  0.00    +0.000 F 
ENDBRANCH   5  16
BRANCH   1  20
ATOM     20  S   UNL     1       4.342   3.642  16.708  0.00  0.00    +0.000 S 
BRANCH  20  21
ATOM     21  C   UNL     1       5.575   4.960  16.448  0.00  0.00    +0.000 C 
BRANCH  21  22
ATOM     22  C   UNL     1       6.861   4.402  15.843  0.00  0.00    +0.000 C 
BRANCH  22  24
ATOM     23  N   UNL     1       6.233   3.532  13.663  0.00  0.00    +0.000 N 
ATOM     24  C   UNL     1       6.849   4.570  14.335  0.00  0.00    +0.000 C 
ATOM     25  O   UNL     1       7.334   5.538  13.765  0.00  0.00    +0.000 OA
ATOM     26  H   UNL     1       6.009   2.686  14.174  0.00  0.00    +0.000 HD
BRANCH  23  28
ATOM     27  C   UNL     1       6.987   2.373  11.624  0.00  0.00    +0.000 C 
ATOM     28  C   UNL     1       6.147   3.508  12.207  0.00  0.00    +0.000 C 
ATOM     29  C   UNL     1       4.694   3.387  11.759  0.00  0.00    +0.000 C 
ENDBRANCH  23  28
ENDBRANCH  22  24
ENDBRANCH  21  22
ENDBRANCH  20  21
ENDBRANCH   1  20
TORSDOF 7
ENDMDL
MODEL 5
REMARK VINA RESULT:      -8.4      1.452      2.124
REMARK  Name = 
REMARK  9 active torsions:
REMARK  status: ('A' for Active; 'I' for Inactive)
REMARK    1  A    between atoms: C_1  and  C_2
REMARK    2  A    between atoms: C_2  and  C_3
REMARK    3  A    between atoms: C_2  and  N_4
REMARK    4  A    between atoms: C_5  and  C_7
REMARK    5  A    between atoms: C_7  and  C_8
REMARK    6  A    between atoms: C_8  and  S_9
REMARK    7  A    between atoms: S_9  and  C_10
REMARK    8  A    between atoms: C_12  and  C_13
REMARK    9  A    between atoms: C_23  and  C_24
REMARK                            x       y       z     vdW  Elec       q    Type
REMARK                         _______ _______ _______ _____ _____    ______ ____
ROOT
ATOM      1  C   UNL     1       4.122   6.015  17.698  0.00  0.00    +0.000 A 
ATOM      2  N   UNL     1       3.392   7.028  18.187  0.00  0.00    +0.000 NA
ATOM      3  C   UNL     1       2.641   6.785  19.281  0.00  0.00    +0.000 A 
ATOM      4  C   UNL     1       2.612   5.533  19.871  0.00  0.00    +0.000 A 
ATOM      5  C   UNL     1       3.401   4.543  19.312  0.00  0.00    +0.000 A 
ATOM      6  N   UNL     1       4.169   4.782  18.221  0.00  0.00    +0.000 NA
ENDROOT
BRANCH   3   7
ATOM      7  C   UNL     1       1.832   7.915  19.790  0.00  0.00    +0.000 A 
ATOM      8  C   UNL     1       1.483   8.998  18.941  0.00  0.00    +0.000 A 
ATOM      9  C   UNL     1       0.686  10.063  19.384  0.00  0.00    +0.000 A 
ATOM     10  C   UNL     1       0.248  10.036  20.687  0.00  0.00    +0.000 A 
ATOM     11  C   UNL     1       0.584   9.009  21.532  0.00  0.00    +0.000 A 
ATOM     12  C   UNL     1       1.368   7.950  21.122  0.00  0.00    +0.000 A 
ATOM     13  O   UNL     1       0.060   9.167  22.778  0.00  0.00    +0.000 OA
ATOM     14  C   UNL     1      -0.629  10.425  22.623  0.00  0.00    +0.000 C 
ATOM     15  O   UNL     1      -0.533  10.971  21.291  0.00  0.00    +0.000 OA
ENDBRANCH   3   7
BRANCH   5  16
ATOM     16  C   UNL     1       3.401   3.151  19.925  0.00  0.00    +0.000 C 
ATOM     17  F   UNL     1       4.641   2.575  19.939  0.00  0.00    +0.000 F 
ATOM     18  F   UNL     1       2.981   3.138  21.220  0.00  0.00    +0.000 F 
ATOM     19  F   UNL     1       2.603   2.273  19.254  0.00  0.00    +0.000 F 
ENDBRANCH   5  16
BRANCH   1  20
ATOM     20  S   UNL     1       5.063   6.320  16.222  0.00  0.00    +0.000 S 
BRANCH  20  21
ATOM     21  C   UNL     1       6.633   5.561  16.753  0.00  0.00    +0.000 C 
BRANCH  21  22
ATOM     22  C   UNL     1       6.891   4.251  16.014  0.00  0.00    +0.000 C 
BRANCH  22  24
ATOM     23  N   UNL     1       6.193   3.584  13.784  0.00  0.00    +0.000 N 
ATOM     24  C   UNL     1       6.934   4.492  14.516  0.00  0.00    +0.000 C 
ATOM     25  O   UNL     1       7.560   5.410  14.003  0.00  0.00    +0.000 OA
ATOM     26  H   UNL     1       5.844   2.754  14.248  0.00  0.00    +0.000 HD
BRANCH  23  28
ATOM     27  C   UNL     1       7.140   2.680  11.697  0.00  0.00    +0.000 C 
ATOM     28  C   UNL     1       6.135   3.642  12.328  0.00  0.00    +0.000 C 
ATOM     29  C   UNL     1       4.723   3.343  11.837  0.00  0.00    +0.000 C 
ENDBRANCH  23  28
ENDBRANCH  22  24
ENDBRANCH  21  22
ENDBRANCH  20  21
ENDBRANCH   1  20
TORSDOF 7
ENDMDL
MODEL 6
REMARK VINA RESULT:      -8.4      1.363      1.718
REMARK  Name = 
REMARK  9 active torsions:
REMARK  status: ('A' for Active; 'I' for Inactive)
REMARK    1  A    between atoms: C_1  and  C_2
REMARK    2  A    between atoms: C_2  and  C_3
REMARK    3  A    between atoms: C_2  and  N_4
REMARK    4  A    between atoms: C_5  and  C_7
REMARK    5  A    between atoms: C_7  and  C_8
REMARK    6  A    between atoms: C_8  and  S_9
REMARK    7  A    between atoms: S_9  and  C_10
REMARK    8  A    between atoms: C_12  and  C_13
REMARK    9  A    between atoms: C_23  and  C_24
REMARK                            x       y       z     vdW  Elec       q    Type
REMARK                         _______ _______ _______ _____ _____    ______ ____
ROOT
ATOM      1  C   UNL     1       3.873   5.885  18.078  0.00  0.00    +0.000 A 
ATOM      2  N   UNL     1       3.205   6.971  18.491  0.00  0.00    +0.000 NA
ATOM      3  C   UNL     1       2.404   6.839  19.569  0.00  0.00    +0.000 A 
ATOM      4  C   UNL     1       2.264   5.624  20.217  0.00  0.00    +0.000 A 
ATOM      5  C   UNL     1       2.995   4.553  19.735  0.00  0.00    +0.000 A 
ATOM      6  N   UNL     1       3.813   4.680  18.662  0.00  0.00    +0.000 NA
ENDROOT
BRANCH   3   7
ATOM      7  C   UNL     1       1.665   8.049  19.994  0.00  0.00    +0.000 A 
ATOM      8  C   UNL     1       1.232   8.201  21.338  0.00  0.00    +0.000 A 
ATOM      9  C   UNL     1       0.564   9.352  21.778  0.00  0.00    +0.000 A 
ATOM     10  C   UNL     1       0.326  10.345  20.857  0.00  0.00    +0.000 A 
ATOM     11  C   UNL     1       0.720  10.217  19.550  0.00  0.00    +0.000 A 
ATOM     12  C   UNL     1       1.377   9.094  19.091  0.00  0.00    +0.000 A 
ATOM     13  O   UNL     1       0.389  11.301  18.797  0.00  0.00    +0.000 OA
ATOM     14  C   UNL     1      -0.277  12.119  19.781  0.00  0.00    +0.000 C 
ATOM     15  O   UNL     1      -0.300  11.529  21.097  0.00  0.00    +0.000 OA
ENDBRANCH   3   7
BRANCH   5  16
ATOM     16  C   UNL     1       2.872   3.197  20.415  0.00  0.00    +0.000 C 
ATOM     17  F   UNL     1       4.042   2.489  20.406  0.00  0.00    +0.000 F 
ATOM     18  F   UNL     1       2.514   3.287  21.725  0.00  0.00    +0.000 F 
ATOM     19  F   UNL     1       1.955   2.384  19.820  0.00  0.00    +0.000 F 
ENDBRANCH   5  16
BRANCH   1  20
ATOM     20  S   UNL     1       4.880   6.046  16.624  0.00  0.00    +0.000 S 
BRANCH  20  21
ATOM     21  C   UNL     1       5.417   4.309  16.486  0.00  0.00    +0.000 C 
BRANCH  21  22
ATOM     22  C   UNL     1       6.856   4.213  15.986  0.00  0.00    +0.000 C 
BRANCH  22  24
ATOM     23  N   UNL     1       6.167   3.550  13.752  0.00  0.00    +0.000 N 
ATOM     24  C   UNL     1       6.909   4.453  14.488  0.00  0.00    +0.000 C 
ATOM     25  O   UNL     1       7.545   5.367  13.978  0.00  0.00    +0.000 OA
ATOM     26  H   UNL     1       5.811   2.722  14.214  0.00  0.00    +0.000 HD
BRANCH  23  28
ATOM     27  C   UNL     1       7.117   2.635  11.671  0.00  0.00    +0.000 C 
ATOM     28  C   UNL     1       6.119   3.608  12.295  0.00  0.00    +0.000 C 
ATOM     29  C   UNL     1       4.706   3.322  11.796  0.00  0.00    +0.000 C 
ENDBRANCH  23  28
ENDBRANCH  22  24
ENDBRANCH  21  22
ENDBRANCH  20  21
ENDBRANCH   1  20
TORSDOF 7
ENDMDL
MODEL 7
REMARK VINA RESULT:      -8.4      2.677      7.550
REMARK  Name = 
REMARK  9 active torsions:
REMARK  status: ('A' for Active; 'I' for Inactive)
REMARK    1  A    between atoms: C_1  and  C_2
REMARK    2  A    between atoms: C_2  and  C_3
REMARK    3  A    between atoms: C_2  and  N_4
REMARK    4  A    between atoms: C_5  and  C_7
REMARK    5  A    between atoms: C_7  and  C_8
REMARK    6  A    between atoms: C_8  and  S_9
REMARK    7  A    between atoms: S_9  and  C_10
REMARK    8  A    between atoms: C_12  and  C_13
REMARK    9  A    between atoms: C_23  and  C_24
REMARK                            x       y       z     vdW  Elec       q    Type
REMARK                         _______ _______ _______ _____ _____    ______ ____
ROOT
ATOM      1  C   UNL     1       2.275   6.391  19.995  0.00  0.00    +0.000 A 
ATOM      2  N   UNL     1       3.214   6.398  19.038  0.00  0.00    +0.000 NA
ATOM      3  C   UNL     1       3.799   5.222  18.729  0.00  0.00    +0.000 A 
ATOM      4  C   UNL     1       3.455   4.053  19.385  0.00  0.00    +0.000 A 
ATOM      5  C   UNL     1       2.470   4.128  20.354  0.00  0.00    +0.000 A 
ATOM      6  N   UNL     1       1.867   5.302  20.660  0.00  0.00    +0.000 NA
ENDROOT
BRANCH   3   7
ATOM      7  C   UNL     1       4.844   5.260  17.682  0.00  0.00    +0.000 A 
ATOM      8  C   UNL     1       6.088   5.901  17.921  0.00  0.00    +0.000 A 
ATOM      9  C   UNL     1       7.112   5.919  16.962  0.00  0.00    +0.000 A 
ATOM     10  C   UNL     1       6.873   5.297  15.760  0.00  0.00    +0.000 A 
ATOM     11  C   UNL     1       5.674   4.685  15.497  0.00  0.00    +0.000 A 
ATOM     12  C   UNL     1       4.651   4.653  16.423  0.00  0.00    +0.000 A 
ATOM     13  O   UNL     1       5.631   4.133  14.254  0.00  0.00    +0.000 OA
ATOM     14  C   UNL     1       6.939   4.489  13.757  0.00  0.00    +0.000 C 
ATOM     15  O   UNL     1       7.741   5.208  14.717  0.00  0.00    +0.000 OA
ENDBRANCH   3   7
BRANCH   5  16
ATOM     16  C   UNL     1       2.059   2.869  21.102  0.00  0.00    +0.000 C 
ATOM     17  F   UNL     1       1.623   1.874  20.272  0.00  0.00    +0.000 F 
ATOM     18  F   UNL     1       3.076   2.319  21.822  0.00  0.00    +0.000 F 
ATOM     19  F   UNL     1       1.038   3.079  21.979  0.00  0.00    +0.000 F 
ENDBRANCH   5  16
BRANCH   1  20
ATOM     20  S   UNL     1       1.549   7.950  20.441  0.00  0.00    +0.000 S 
BRANCH  20  21
ATOM     21  C   UNL     1       1.716   8.785  18.829  0.00  0.00    +0.000 C 
BRANCH  21  22
ATOM     22  C   UNL     1       1.148  10.201  18.879  0.00  0.00    +0.000 C 
BRANCH  22  24
ATOM     23  N   UNL     1      -0.908  10.196  17.584  0.00  0.00    +0.000 N 
ATOM     24  C   UNL     1      -0.369  10.161  18.856  0.00  0.00    +0.000 C 
ATOM     25  O   UNL     1      -1.053  10.096  19.869  0.00  0.00    +0.000 OA
ATOM     26  H   UNL     1      -0.302  10.424  16.805  0.00  0.00    +0.000 HD
BRANCH  23  28
ATOM     27  C   UNL     1      -2.959  11.558  17.670  0.00  0.00    +0.000 C 
ATOM     28  C   UNL     1      -2.350  10.191  17.366  0.00  0.00    +0.000 C 
ATOM     29  C   UNL     1      -2.672   9.765  15.937  0.00  0.00    +0.000 C 
ENDBRANCH  23  28
ENDBRANCH  22  24
ENDBRANCH  21  22
ENDBRANCH  20  21
ENDBRANCH   1  20
TORSDOF 7
ENDMDL
MODEL 8
REMARK VINA RESULT:      -8.3      0.627      1.111
REMARK  Name = 
REMARK  9 active torsions:
REMARK  status: ('A' for Active; 'I' for Inactive)
REMARK    1  A    between atoms: C_1  and  C_2
REMARK    2  A    between atoms: C_2  and  C_3
REMARK    3  A    between atoms: C_2  and  N_4
REMARK    4  A    between atoms: C_5  and  C_7
REMARK    5  A    between atoms: C_7  and  C_8
REMARK    6  A    between atoms: C_8  and  S_9
REMARK    7  A    between atoms: S_9  and  C_10
REMARK    8  A    between atoms: C_12  and  C_13
REMARK    9  A    between atoms: C_23  and  C_24
REMARK                            x       y       z     vdW  Elec       q    Type
REMARK                         _______ _______ _______ _____ _____    ______ ____
ROOT
ATOM      1  C   UNL     1       5.146   4.747  18.511  0.00  0.00    +0.000 A 
ATOM      2  N   UNL     1       4.442   5.840  18.840  0.00  0.00    +0.000 NA
ATOM      3  C   UNL     1       3.123   5.685  19.078  0.00  0.00    +0.000 A 
ATOM      4  C   UNL     1       2.513   4.447  18.974  0.00  0.00    +0.000 A 
ATOM      5  C   UNL     1       3.310   3.366  18.640  0.00  0.00    +0.000 A 
ATOM      6  N   UNL     1       4.638   3.510  18.413  0.00  0.00    +0.000 NA
ENDROOT
BRANCH   3   7
ATOM      7  C   UNL     1       2.366   6.910  19.421  0.00  0.00    +0.000 A 
ATOM      8  C   UNL     1       1.701   7.026  20.670  0.00  0.00    +0.000 A 
ATOM      9  C   UNL     1       1.009   8.189  21.039  0.00  0.00    +0.000 A 
ATOM     10  C   UNL     1       0.983   9.229  20.140  0.00  0.00    +0.000 A 
ATOM     11  C   UNL     1       1.603   9.137  18.921  0.00  0.00    +0.000 A 
ATOM     12  C   UNL     1       2.290   8.003  18.533  0.00  0.00    +0.000 A 
ATOM     13  O   UNL     1       1.459  10.266  18.175  0.00  0.00    +0.000 OA
ATOM     14  C   UNL     1       0.657  11.073  19.062  0.00  0.00    +0.000 C 
ATOM     15  O   UNL     1       0.370  10.430  20.321  0.00  0.00    +0.000 OA
ENDBRANCH   3   7
BRANCH   5  16
ATOM     16  C   UNL     1       2.684   1.986  18.513  0.00  0.00    +0.000 C 
ATOM     17  F   UNL     1       1.789   1.713  19.510  0.00  0.00    +0.000 F 
ATOM     18  F   UNL     1       1.995   1.816  17.352  0.00  0.00    +0.000 F 
ATOM     19  F   UNL     1       3.600   0.978  18.568  0.00  0.00    +0.000 F 
ENDBRANCH   5  16
BRANCH   1  20
ATOM     20  S   UNL     1       6.869   4.963  18.139  0.00  0.00    +0.000 S 
BRANCH  20  21
ATOM     21  C   UNL     1       6.699   6.257  16.866  0.00  0.00    +0.000 C 
BRANCH  21  22
ATOM     22  C   UNL     1       5.763   5.811  15.746  0.00  0.00    +0.000 C 
BRANCH  22  24
ATOM     23  N   UNL     1       5.744   4.347  13.807  0.00  0.00    +0.000 N 
ATOM     24  C   UNL     1       6.541   5.068  14.674  0.00  0.00    +0.000 C 
ATOM     25  O   UNL     1       7.760   5.110  14.582  0.00  0.00    +0.000 OA
ATOM     26  H   UNL     1       4.767   4.213  14.039  0.00  0.00    +0.000 HD
BRANCH  23  28
ATOM     27  C   UNL     1       5.224   2.872  11.902  0.00  0.00    +0.000 C 
ATOM     28  C   UNL     1       6.317   3.551  12.727  0.00  0.00    +0.000 C 
ATOM     29  C   UNL     1       7.202   4.416  11.837  0.00  0.00    +0.000 C 
ENDBRANCH  23  28
ENDBRANCH  22  24
ENDBRANCH  21  22
ENDBRANCH  20  21
ENDBRANCH   1  20
TORSDOF 7
ENDMDL
MODEL 9
REMARK VINA RESULT:      -8.3      1.163      1.342
REMARK  Name = 
REMARK  9 active torsions:
REMARK  status: ('A' for Active; 'I' for Inactive)
REMARK    1  A    between atoms: C_1  and  C_2
REMARK    2  A    between atoms: C_2  and  C_3
REMARK    3  A    between atoms: C_2  and  N_4
REMARK    4  A    between atoms: C_5  and  C_7
REMARK    5  A    between atoms: C_7  and  C_8
REMARK    6  A    between atoms: C_8  and  S_9
REMARK    7  A    between atoms: S_9  and  C_10
REMARK    8  A    between atoms: C_12  and  C_13
REMARK    9  A    between atoms: C_23  and  C_24
REMARK                            x       y       z     vdW  Elec       q    Type
REMARK                         _______ _______ _______ _____ _____    ______ ____
ROOT
ATOM      1  C   UNL     1       4.133   4.939  19.238  0.00  0.00    +0.000 A 
ATOM      2  N   UNL     1       3.614   6.165  19.400  0.00  0.00    +0.000 NA
ATOM      3  C   UNL     1       2.336   6.250  19.824  0.00  0.00    +0.000 A 
ATOM      4  C   UNL     1       1.581   5.116  20.069  0.00  0.00    +0.000 A 
ATOM      5  C   UNL     1       2.192   3.889  19.888  0.00  0.00    +0.000 A 
ATOM      6  N   UNL     1       3.480   3.793  19.476  0.00  0.00    +0.000 NA
ENDROOT
BRANCH   3   7
ATOM      7  C   UNL     1       1.782   7.614  19.977  0.00  0.00    +0.000 A 
ATOM      8  C   UNL     1       1.196   8.026  21.203  0.00  0.00    +0.000 A 
ATOM      9  C   UNL     1       0.698   9.324  21.390  0.00  0.00    +0.000 A 
ATOM     10  C   UNL     1       0.785  10.201  20.335  0.00  0.00    +0.000 A 
ATOM     11  C   UNL     1       1.332   9.823  19.135  0.00  0.00    +0.000 A 
ATOM     12  C   UNL     1       1.828   8.552  18.924  0.00  0.00    +0.000 A 
ATOM     13  O   UNL     1       1.322  10.829  18.218  0.00  0.00    +0.000 OA
ATOM     14  C   UNL     1       0.685  11.878  18.976  0.00  0.00    +0.000 C 
ATOM     15  O   UNL     1       0.363  11.494  20.329  0.00  0.00    +0.000 OA
ENDBRANCH   3   7
BRANCH   5  16
ATOM     16  C   UNL     1       1.402   2.615  20.144  0.00  0.00    +0.000 C 
ATOM     17  F   UNL     1       0.191   2.601  19.508  0.00  0.00    +0.000 F 
ATOM     18  F   UNL     1       2.045   1.492  19.721  0.00  0.00    +0.000 F 
ATOM     19  F   UNL     1       1.118   2.420  21.463  0.00  0.00    +0.000 F 
ENDBRANCH   5  16
BRANCH   1  20
ATOM     20  S   UNL     1       5.796   4.828  18.624  0.00  0.00    +0.000 S 
BRANCH  20  21
ATOM     21  C   UNL     1       5.413   4.813  16.841  0.00  0.00    +0.000 C 
BRANCH  21  22
ATOM     22  C   UNL     1       6.446   4.005  16.061  0.00  0.00    +0.000 C 
BRANCH  22  24
ATOM     23  N   UNL     1       6.229   3.271  13.755  0.00  0.00    +0.000 N 
ATOM     24  C   UNL     1       6.389   4.362  14.586  0.00  0.00    +0.000 C 
ATOM     25  O   UNL     1       6.469   5.511  14.172  0.00  0.00    +0.000 OA
ATOM     26  H   UNL     1       6.343   2.342  14.142  0.00  0.00    +0.000 HD
BRANCH  23  28
ATOM     27  C   UNL     1       6.928   2.283  11.608  0.00  0.00    +0.000 C 
ATOM     28  C   UNL     1       6.177   3.417  12.304  0.00  0.00    +0.000 C 
ATOM     29  C   UNL     1       4.730   3.477  11.825  0.00  0.00    +0.000 C 
ENDBRANCH  23  28
ENDBRANCH  22  24
ENDBRANCH  21  22
ENDBRANCH  20  21
ENDBRANCH   1  20
TORSDOF 7
ENDMDL
