MODEL 1
REMARK VINA RESULT:      -6.6      0.000      0.000
REMARK  Name = 
REMARK  13 active torsions:
REMARK  status: ('A' for Active; 'I' for Inactive)
REMARK    1  A    between atoms: C_1  and  O_2
REMARK    2  A    between atoms: O_2  and  C_3
REMARK    3  A    between atoms: C_5  and  O_6
REMARK    4  A    between atoms: O_6  and  C_7
REMARK    5  A    between atoms: C_9  and  N_10
REMARK    6  A    between atoms: N_10  and  C_11
REMARK    7  A    between atoms: C_11  and  C_12
REMARK    8  A    between atoms: C_12  and  C_13
REMARK    9  A    between atoms: C_13  and  N_14
REMARK   10  A    between atoms: N_14  and  C_15
REMARK   11  A    between atoms: N_14  and  C_16
REMARK   12  A    between atoms: C_18  and  C_19
REMARK   13  A    between atoms: N_21  and  C_22
REMARK                            x       y       z     vdW  Elec       q    Type
REMARK                         _______ _______ _______ _____ _____    ______ ____
ROOT
ATOM      1  C   UNL     1       5.759   5.058  16.570  0.00  0.00    +0.000 A 
ATOM      2  C   UNL     1       5.689   4.204  17.639  0.00  0.00    +0.000 A 
ATOM      3  C   UNL     1       4.855   4.442  18.735  0.00  0.00    +0.000 A 
ATOM      4  C   UNL     1       4.030   5.639  18.797  0.00  0.00    +0.000 A 
ATOM      5  C   UNL     1       3.063   6.026  19.851  0.00  0.00    +0.000 A 
ATOM      6  C   UNL     1       2.338   7.241  19.641  0.00  0.00    +0.000 A 
ATOM      7  C   UNL     1       1.288   7.933  20.308  0.00  0.00    +0.000 A 
ATOM      8  C   UNL     1       0.387   7.576  21.462  0.00  0.00    +0.000 C 
ATOM      9  N   UNL     1       1.059   9.094  19.657  0.00  0.00    +0.000 NA
ATOM     10  N   UNL     1       1.858   9.160  18.611  0.00  0.00    +0.000 N 
ATOM     11  C   UNL     1       1.855  10.294  17.689  0.00  0.00    +0.000 C 
ATOM     12  C   UNL     1       2.608   8.046  18.571  0.00  0.00    +0.000 A 
ATOM     13  N   UNL     1       3.499   7.724  17.612  0.00  0.00    +0.000 NA
ATOM     14  C   UNL     1       4.182   6.548  17.676  0.00  0.00    +0.000 A 
ATOM     15  C   UNL     1       5.022   6.243  16.591  0.00  0.00    +0.000 A 
ENDROOT
BRANCH   1  17
ATOM     16  C   UNL     1       6.093   3.942  14.441  0.00  0.00    +0.000 C 
ATOM     17  O   UNL     1       6.527   4.652  15.532  0.00  0.00    +0.000 OA
ENDBRANCH   1  17
BRANCH   3  18
ATOM     18  O   UNL     1       4.835   3.493  19.684  0.00  0.00    +0.000 OA
ATOM     19  C   UNL     1       4.684   2.122  19.583  0.00  0.00    +0.000 C 
ENDBRANCH   3  18
BRANCH   5  20
ATOM     20  N   UNL     1       2.776   5.332  21.084  0.00  0.00    +0.000 N 
ATOM     21  H   UNL     1       3.249   5.662  21.920  0.00  0.00    +0.000 HD
BRANCH  20  22
ATOM     22  C   UNL     1       1.998   4.138  21.301  0.00  0.00    +0.000 C 
BRANCH  22  23
ATOM     23  C   UNL     1       0.889   3.937  20.283  0.00  0.00    +0.000 C 
BRANCH  23  24
ATOM     24  C   UNL     1       1.115   2.625  19.519  0.00  0.00    +0.000 C 
BRANCH  24  25
ATOM     25  N   UNL     1       1.156   2.815  18.060  0.00  0.00    +0.000 NA
ATOM     26  C   UNL     1       1.192   4.240  17.696  0.00  0.00    +0.000 C 
ATOM     27  C   UNL     1       2.353   2.136  17.539  0.00  0.00    +0.000 C 
ENDBRANCH  24  25
ENDBRANCH  23  24
ENDBRANCH  22  23
ENDBRANCH  20  22
ENDBRANCH   5  20
TORSDOF 7
ENDMDL
MODEL 2
REMARK VINA RESULT:      -6.6      2.629      5.271
REMARK  Name = 
REMARK  13 active torsions:
REMARK  status: ('A' for Active; 'I' for Inactive)
REMARK    1  A    between atoms: C_1  and  O_2
REMARK    2  A    between atoms: O_2  and  C_3
REMARK    3  A    between atoms: C_5  and  O_6
REMARK    4  A    between atoms: O_6  and  C_7
REMARK    5  A    between atoms: C_9  and  N_10
REMARK    6  A    between atoms: N_10  and  C_11
REMARK    7  A    between atoms: C_11  and  C_12
REMARK    8  A    between atoms: C_12  and  C_13
REMARK    9  A    between atoms: C_13  and  N_14
REMARK   10  A    between atoms: N_14  and  C_15
REMARK   11  A    between atoms: N_14  and  C_16
REMARK   12  A    between atoms: C_18  and  C_19
REMARK   13  A    between atoms: N_21  and  C_22
REMARK                            x       y       z     vdW  Elec       q    Type
REMARK                         _______ _______ _______ _____ _____    ______ ____
ROOT
ATOM      1  C   UNL     1       0.933  10.489  18.648  0.00  0.00    +0.000 A 
ATOM      2  C   UNL     1       0.566   9.858  19.807  0.00  0.00    +0.000 A 
ATOM      3  C   UNL     1       1.097   8.622  20.188  0.00  0.00    +0.000 A 
ATOM      4  C   UNL     1       2.061   7.933  19.341  0.00  0.00    +0.000 A 
ATOM      5  C   UNL     1       2.754   6.651  19.606  0.00  0.00    +0.000 A 
ATOM      6  C   UNL     1       3.699   6.218  18.624  0.00  0.00    +0.000 A 
ATOM      7  C   UNL     1       4.626   5.146  18.501  0.00  0.00    +0.000 A 
ATOM      8  C   UNL     1       5.108   4.083  19.455  0.00  0.00    +0.000 C 
ATOM      9  N   UNL     1       5.214   5.224  17.287  0.00  0.00    +0.000 NA
ATOM     10  N   UNL     1       4.752   6.287  16.659  0.00  0.00    +0.000 N 
ATOM     11  C   UNL     1       5.193   6.662  15.317  0.00  0.00    +0.000 C 
ATOM     12  C   UNL     1       3.868   6.908  17.457  0.00  0.00    +0.000 A 
ATOM     13  N   UNL     1       3.231   8.065  17.186  0.00  0.00    +0.000 NA
ATOM     14  C   UNL     1       2.372   8.606  18.093  0.00  0.00    +0.000 A 
ATOM     15  C   UNL     1       1.821   9.859  17.776  0.00  0.00    +0.000 A 
ENDROOT
BRANCH   1  17
ATOM     16  C   UNL     1      -0.822  12.153  18.857  0.00  0.00    +0.000 C 
ATOM     17  O   UNL     1       0.420  11.727  18.457  0.00  0.00    +0.000 OA
ENDBRANCH   1  17
BRANCH   3  18
ATOM     18  O   UNL     1       0.701   8.146  21.378  0.00  0.00    +0.000 OA
ATOM     19  C   UNL     1      -0.303   8.571  22.228  0.00  0.00    +0.000 C 
ENDBRANCH   3  18
BRANCH   5  20
ATOM     20  N   UNL     1       2.575   5.767  20.733  0.00  0.00    +0.000 N 
ATOM     21  H   UNL     1       3.292   5.785  21.452  0.00  0.00    +0.000 HD
BRANCH  20  22
ATOM     22  C   UNL     1       1.576   4.749  20.947  0.00  0.00    +0.000 C 
BRANCH  22  23
ATOM     23  C   UNL     1       2.112   3.498  21.618  0.00  0.00    +0.000 C 
BRANCH  23  24
ATOM     24  C   UNL     1       1.863   2.277  20.720  0.00  0.00    +0.000 C 
BRANCH  24  25
ATOM     25  N   UNL     1       1.921   2.604  19.287  0.00  0.00    +0.000 NA
ATOM     26  C   UNL     1       2.899   1.768  18.574  0.00  0.00    +0.000 C 
ATOM     27  C   UNL     1       0.580   2.404  18.713  0.00  0.00    +0.000 C 
ENDBRANCH  24  25
ENDBRANCH  23  24
ENDBRANCH  22  23
ENDBRANCH  20  22
ENDBRANCH   5  20
TORSDOF 7
ENDMDL
MODEL 3
REMARK VINA RESULT:      -6.6      2.513      5.071
REMARK  Name = 
REMARK  13 active torsions:
REMARK  status: ('A' for Active; 'I' for Inactive)
REMARK    1  A    between atoms: C_1  and  O_2
REMARK    2  A    between atoms: O_2  and  C_3
REMARK    3  A    between atoms: C_5  and  O_6
REMARK    4  A    between atoms: O_6  and  C_7
REMARK    5  A    between atoms: C_9  and  N_10
REMARK    6  A    between atoms: N_10  and  C_11
REMARK    7  A    between atoms: C_11  and  C_12
REMARK    8  A    between atoms: C_12  and  C_13
REMARK    9  A    between atoms: C_13  and  N_14
REMARK   10  A    between atoms: N_14  and  C_15
REMARK   11  A    between atoms: N_14  and  C_16
REMARK   12  A    between atoms: C_18  and  C_19
REMARK   13  A    between atoms: N_21  and  C_22
REMARK                            x       y       z     vdW  Elec       q    Type
REMARK                         _______ _______ _______ _____ _____    ______ ____
ROOT
ATOM      1  C   UNL     1       1.205  10.317  18.574  0.00  0.00    +0.000 A 
ATOM      2  C   UNL     1       0.791   9.785  19.767  0.00  0.00    +0.000 A 
ATOM      3  C   UNL     1       1.242   8.546  20.232  0.00  0.00    +0.000 A 
ATOM      4  C   UNL     1       2.168   7.747  19.442  0.00  0.00    +0.000 A 
ATOM      5  C   UNL     1       2.779   6.445  19.796  0.00  0.00    +0.000 A 
ATOM      6  C   UNL     1       3.704   5.893  18.855  0.00  0.00    +0.000 A 
ATOM      7  C   UNL     1       4.565   4.761  18.812  0.00  0.00    +0.000 A 
ATOM      8  C   UNL     1       4.972   3.734  19.837  0.00  0.00    +0.000 C 
ATOM      9  N   UNL     1       5.165   4.725  17.602  0.00  0.00    +0.000 NA
ATOM     10  N   UNL     1       4.775   5.771  16.903  0.00  0.00    +0.000 N 
ATOM     11  C   UNL     1       5.249   6.031  15.545  0.00  0.00    +0.000 C 
ATOM     12  C   UNL     1       3.924   6.495  17.649  0.00  0.00    +0.000 A 
ATOM     13  N   UNL     1       3.362   7.668  17.297  0.00  0.00    +0.000 NA
ATOM     14  C   UNL     1       2.530   8.318  18.157  0.00  0.00    +0.000 A 
ATOM     15  C   UNL     1       2.060   9.579  17.755  0.00  0.00    +0.000 A 
ENDROOT
BRANCH   1  17
ATOM     16  C   UNL     1       1.335  12.734  18.756  0.00  0.00    +0.000 C 
ATOM     17  O   UNL     1       0.771  11.569  18.299  0.00  0.00    +0.000 OA
ENDBRANCH   1  17
BRANCH   3  18
ATOM     18  O   UNL     1       0.808   8.172  21.445  0.00  0.00    +0.000 OA
ATOM     19  C   UNL     1       0.685   8.892  22.618  0.00  0.00    +0.000 C 
ENDBRANCH   3  18
BRANCH   5  20
ATOM     20  N   UNL     1       2.537   5.647  20.976  0.00  0.00    +0.000 N 
ATOM     21  H   UNL     1       2.881   6.013  21.859  0.00  0.00    +0.000 HD
BRANCH  20  22
ATOM     22  C   UNL     1       1.978   4.323  21.084  0.00  0.00    +0.000 C 
BRANCH  22  23
ATOM     23  C   UNL     1       0.825   4.066  20.132  0.00  0.00    +0.000 C 
BRANCH  23  24
ATOM     24  C   UNL     1       0.923   2.642  19.566  0.00  0.00    +0.000 C 
BRANCH  24  25
ATOM     25  N   UNL     1       1.173   2.622  18.115  0.00  0.00    +0.000 NA
ATOM     26  C   UNL     1       1.235   3.980  17.553  0.00  0.00    +0.000 C 
ATOM     27  C   UNL     1       2.446   1.923  17.875  0.00  0.00    +0.000 C 
ENDBRANCH  24  25
ENDBRANCH  23  24
ENDBRANCH  22  23
ENDBRANCH  20  22
ENDBRANCH   5  20
TORSDOF 7
ENDMDL
MODEL 4
REMARK VINA RESULT:      -6.4      2.854      6.729
REMARK  Name = 
REMARK  13 active torsions:
REMARK  status: ('A' for Active; 'I' for Inactive)
REMARK    1  A    between atoms: C_1  and  O_2
REMARK    2  A    between atoms: O_2  and  C_3
REMARK    3  A    between atoms: C_5  and  O_6
REMARK    4  A    between atoms: O_6  and  C_7
REMARK    5  A    between atoms: C_9  and  N_10
REMARK    6  A    between atoms: N_10  and  C_11
REMARK    7  A    between atoms: C_11  and  C_12
REMARK    8  A    between atoms: C_12  and  C_13
REMARK    9  A    between atoms: C_13  and  N_14
REMARK   10  A    between atoms: N_14  and  C_15
REMARK   11  A    between atoms: N_14  and  C_16
REMARK   12  A    between atoms: C_18  and  C_19
REMARK   13  A    between atoms: N_21  and  C_22
REMARK                            x       y       z     vdW  Elec       q    Type
REMARK                         _______ _______ _______ _____ _____    ______ ____
ROOT
ATOM      1  C   UNL     1       0.449   9.273  21.138  0.00  0.00    +0.000 A 
ATOM      2  C   UNL     1       0.993   9.795  19.995  0.00  0.00    +0.000 A 
ATOM      3  C   UNL     1       1.738   9.023  19.099  0.00  0.00    +0.000 A 
ATOM      4  C   UNL     1       1.990   7.614  19.361  0.00  0.00    +0.000 A 
ATOM      5  C   UNL     1       2.713   6.643  18.508  0.00  0.00    +0.000 A 
ATOM      6  C   UNL     1       2.774   5.294  18.980  0.00  0.00    +0.000 A 
ATOM      7  C   UNL     1       3.262   4.056  18.476  0.00  0.00    +0.000 A 
ATOM      8  C   UNL     1       3.796   3.626  17.134  0.00  0.00    +0.000 C 
ATOM      9  N   UNL     1       3.094   3.110  19.427  0.00  0.00    +0.000 NA
ATOM     10  N   UNL     1       2.502   3.657  20.469  0.00  0.00    +0.000 N 
ATOM     11  C   UNL     1       2.169   2.897  21.673  0.00  0.00    +0.000 C 
ATOM     12  C   UNL     1       2.277   4.955  20.206  0.00  0.00    +0.000 A 
ATOM     13  N   UNL     1       1.635   5.827  21.008  0.00  0.00    +0.000 NA
ATOM     14  C   UNL     1       1.450   7.116  20.614  0.00  0.00    +0.000 A 
ATOM     15  C   UNL     1       0.690   7.938  21.463  0.00  0.00    +0.000 A 
ENDROOT
BRANCH   1  17
ATOM     16  C   UNL     1      -0.643   9.973  23.190  0.00  0.00    +0.000 C 
ATOM     17  O   UNL     1      -0.336  10.108  21.859  0.00  0.00    +0.000 OA
ENDBRANCH   1  17
BRANCH   3  18
ATOM     18  O   UNL     1       2.159   9.644  17.986  0.00  0.00    +0.000 OA
ATOM     19  C   UNL     1       2.324  10.989  17.714  0.00  0.00    +0.000 C 
ENDBRANCH   3  18
BRANCH   5  20
ATOM     20  N   UNL     1       3.388   6.898  17.257  0.00  0.00    +0.000 N 
ATOM     21  H   UNL     1       2.948   6.542  16.414  0.00  0.00    +0.000 HD
BRANCH  20  22
ATOM     22  C   UNL     1       4.683   7.487  17.021  0.00  0.00    +0.000 C 
BRANCH  22  23
ATOM     23  C   UNL     1       5.774   6.471  16.736  0.00  0.00    +0.000 C 
BRANCH  23  24
ATOM     24  C   UNL     1       7.086   6.915  17.401  0.00  0.00    +0.000 C 
BRANCH  24  25
ATOM     25  N   UNL     1       7.877   5.783  17.908  0.00  0.00    +0.000 NA
ATOM     26  C   UNL     1       7.769   5.652  19.369  0.00  0.00    +0.000 C 
ATOM     27  C   UNL     1       7.395   4.553  17.258  0.00  0.00    +0.000 C 
ENDBRANCH  24  25
ENDBRANCH  23  24
ENDBRANCH  22  23
ENDBRANCH  20  22
ENDBRANCH   5  20
TORSDOF 7
ENDMDL
MODEL 5
REMARK VINA RESULT:      -5.9      7.121     10.291
REMARK  Name = 
REMARK  13 active torsions:
REMARK  status: ('A' for Active; 'I' for Inactive)
REMARK    1  A    between atoms: C_1  and  O_2
REMARK    2  A    between atoms: O_2  and  C_3
REMARK    3  A    between atoms: C_5  and  O_6
REMARK    4  A    between atoms: O_6  and  C_7
REMARK    5  A    between atoms: C_9  and  N_10
REMARK    6  A    between atoms: N_10  and  C_11
REMARK    7  A    between atoms: C_11  and  C_12
REMARK    8  A    between atoms: C_12  and  C_13
REMARK    9  A    between atoms: C_13  and  N_14
REMARK   10  A    between atoms: N_14  and  C_15
REMARK   11  A    between atoms: N_14  and  C_16
REMARK   12  A    between atoms: C_18  and  C_19
REMARK   13  A    between atoms: N_21  and  C_22
REMARK                            x       y       z     vdW  Elec       q    Type
REMARK                         _______ _______ _______ _____ _____    ______ ____
ROOT
ATOM      1  C   UNL     1      -2.842  10.257  16.013  0.00  0.00    +0.000 A 
ATOM      2  C   UNL     1      -3.941  11.032  16.278  0.00  0.00    +0.000 A 
ATOM      3  C   UNL     1      -4.105  11.710  17.489  0.00  0.00    +0.000 A 
ATOM      4  C   UNL     1      -3.109  11.600  18.545  0.00  0.00    +0.000 A 
ATOM      5  C   UNL     1      -3.099  12.278  19.862  0.00  0.00    +0.000 A 
ATOM      6  C   UNL     1      -1.966  12.033  20.700  0.00  0.00    +0.000 A 
ATOM      7  C   UNL     1      -1.500  12.517  21.955  0.00  0.00    +0.000 A 
ATOM      8  C   UNL     1      -1.954  13.628  22.866  0.00  0.00    +0.000 C 
ATOM      9  N   UNL     1      -0.369  11.851  22.277  0.00  0.00    +0.000 NA
ATOM     10  N   UNL     1      -0.073  11.019  21.300  0.00  0.00    +0.000 N 
ATOM     11  C   UNL     1       1.102  10.150  21.335  0.00  0.00    +0.000 C 
ATOM     12  C   UNL     1      -1.001  11.137  20.336  0.00  0.00    +0.000 A 
ATOM     13  N   UNL     1      -1.003  10.492  19.153  0.00  0.00    +0.000 NA
ATOM     14  C   UNL     1      -1.994  10.719  18.248  0.00  0.00    +0.000 A 
ATOM     15  C   UNL     1      -1.874  10.081  17.001  0.00  0.00    +0.000 A 
ENDROOT
BRANCH   1  17
ATOM     16  C   UNL     1      -3.667   9.951  13.750  0.00  0.00    +0.000 C 
ATOM     17  O   UNL     1      -2.763   9.744  14.762  0.00  0.00    +0.000 OA
ENDBRANCH   1  17
BRANCH   3  18
ATOM     18  O   UNL     1      -5.196  12.484  17.593  0.00  0.00    +0.000 OA
ATOM     19  C   UNL     1      -6.538  12.156  17.575  0.00  0.00    +0.000 C 
ENDBRANCH   3  18
BRANCH   5  20
ATOM     20  N   UNL     1      -4.110  13.146  20.416  0.00  0.00    +0.000 N 
ATOM     21  H   UNL     1      -3.922  14.144  20.398  0.00  0.00    +0.000 HD
BRANCH  20  22
ATOM     22  C   UNL     1      -5.322  12.805  21.119  0.00  0.00    +0.000 C 
BRANCH  22  23
ATOM     23  C   UNL     1      -5.649  13.744  22.266  0.00  0.00    +0.000 C 
BRANCH  23  24
ATOM     24  C   UNL     1      -5.758  12.948  23.575  0.00  0.00    +0.000 C 
BRANCH  24  25
ATOM     25  N   UNL     1      -7.125  12.931  24.118  0.00  0.00    +0.000 NA
ATOM     26  C   UNL     1      -7.764  14.254  24.031  0.00  0.00    +0.000 C 
ATOM     27  C   UNL     1      -7.912  11.945  23.360  0.00  0.00    +0.000 C 
ENDBRANCH  24  25
ENDBRANCH  23  24
ENDBRANCH  22  23
ENDBRANCH  20  22
ENDBRANCH   5  20
TORSDOF 7
ENDMDL
MODEL 6
REMARK VINA RESULT:      -5.9      6.503      9.478
REMARK  Name = 
REMARK  13 active torsions:
REMARK  status: ('A' for Active; 'I' for Inactive)
REMARK    1  A    between atoms: C_1  and  O_2
REMARK    2  A    between atoms: O_2  and  C_3
REMARK    3  A    between atoms: C_5  and  O_6
REMARK    4  A    between atoms: O_6  and  C_7
REMARK    5  A    between atoms: C_9  and  N_10
REMARK    6  A    between atoms: N_10  and  C_11
REMARK    7  A    between atoms: C_11  and  C_12
REMARK    8  A    between atoms: C_12  and  C_13
REMARK    9  A    between atoms: C_13  and  N_14
REMARK   10  A    between atoms: N_14  and  C_15
REMARK   11  A    between atoms: N_14  and  C_16
REMARK   12  A    between atoms: C_18  and  C_19
REMARK   13  A    between atoms: N_21  and  C_22
REMARK                            x       y       z     vdW  Elec       q    Type
REMARK                         _______ _______ _______ _____ _____    ______ ____
ROOT
ATOM      1  C   UNL     1      -2.661  11.293  16.921  0.00  0.00    +0.000 A 
ATOM      2  C   UNL     1      -1.508  11.682  17.551  0.00  0.00    +0.000 A 
ATOM      3  C   UNL     1      -1.494  12.149  18.868  0.00  0.00    +0.000 A 
ATOM      4  C   UNL     1      -2.729  12.264  19.630  0.00  0.00    +0.000 A 
ATOM      5  C   UNL     1      -2.894  12.692  21.039  0.00  0.00    +0.000 A 
ATOM      6  C   UNL     1      -4.224  12.667  21.565  0.00  0.00    +0.000 A 
ATOM      7  C   UNL     1      -4.824  12.895  22.835  0.00  0.00    +0.000 A 
ATOM      8  C   UNL     1      -4.265  13.117  24.217  0.00  0.00    +0.000 C 
ATOM      9  N   UNL     1      -6.164  12.784  22.701  0.00  0.00    +0.000 NA
ATOM     10  N   UNL     1      -6.441  12.464  21.453  0.00  0.00    +0.000 N 
ATOM     11  C   UNL     1      -7.809  12.263  20.977  0.00  0.00    +0.000 C 
ATOM     12  C   UNL     1      -5.291  12.361  20.768  0.00  0.00    +0.000 A 
ATOM     13  N   UNL     1      -5.165  11.991  19.478  0.00  0.00    +0.000 NA
ATOM     14  C   UNL     1      -3.934  11.902  18.905  0.00  0.00    +0.000 A 
ATOM     15  C   UNL     1      -3.880  11.419  17.587  0.00  0.00    +0.000 A 
ENDROOT
BRANCH   1  17
ATOM     16  C   UNL     1      -3.533  10.439  14.823  0.00  0.00    +0.000 C 
ATOM     17  O   UNL     1      -2.514  10.764  15.684  0.00  0.00    +0.000 OA
ENDBRANCH   1  17
BRANCH   3  18
ATOM     18  O   UNL     1      -0.289  12.436  19.384  0.00  0.00    +0.000 OA
ATOM     19  C   UNL     1       0.543  13.520  19.178  0.00  0.00    +0.000 C 
ENDBRANCH   3  18
BRANCH   5  20
ATOM     20  N   UNL     1      -1.871  13.155  21.947  0.00  0.00    +0.000 N 
ATOM     21  H   UNL     1      -1.674  14.152  21.950  0.00  0.00    +0.000 HD
BRANCH  20  22
ATOM     22  C   UNL     1      -0.978  12.392  22.783  0.00  0.00    +0.000 C 
BRANCH  22  23
ATOM     23  C   UNL     1      -1.506  11.016  23.145  0.00  0.00    +0.000 C 
BRANCH  23  24
ATOM     24  C   UNL     1      -0.342  10.017  23.229  0.00  0.00    +0.000 C 
BRANCH  24  25
ATOM     25  N   UNL     1       0.407   9.909  21.967  0.00  0.00    +0.000 NA
ATOM     26  C   UNL     1       1.620   9.091  22.120  0.00  0.00    +0.000 C 
ATOM     27  C   UNL     1      -0.478   9.308  20.955  0.00  0.00    +0.000 C 
ENDBRANCH  24  25
ENDBRANCH  23  24
ENDBRANCH  22  23
ENDBRANCH  20  22
ENDBRANCH   5  20
TORSDOF 7
ENDMDL
MODEL 7
REMARK VINA RESULT:      -5.7      2.745      6.632
REMARK  Name = 
REMARK  13 active torsions:
REMARK  status: ('A' for Active; 'I' for Inactive)
REMARK    1  A    between atoms: C_1  and  O_2
REMARK    2  A    between atoms: O_2  and  C_3
REMARK    3  A    between atoms: C_5  and  O_6
REMARK    4  A    between atoms: O_6  and  C_7
REMARK    5  A    between atoms: C_9  and  N_10
REMARK    6  A    between atoms: N_10  and  C_11
REMARK    7  A    between atoms: C_11  and  C_12
REMARK    8  A    between atoms: C_12  and  C_13
REMARK    9  A    between atoms: C_13  and  N_14
REMARK   10  A    between atoms: N_14  and  C_15
REMARK   11  A    between atoms: N_14  and  C_16
REMARK   12  A    between atoms: C_18  and  C_19
REMARK   13  A    between atoms: N_21  and  C_22
REMARK                            x       y       z     vdW  Elec       q    Type
REMARK                         _______ _______ _______ _____ _____    ______ ____
ROOT
ATOM      1  C   UNL     1       0.603   9.151  21.161  0.00  0.00    +0.000 A 
ATOM      2  C   UNL     1       1.173   9.642  20.016  0.00  0.00    +0.000 A 
ATOM      3  C   UNL     1       1.887   8.834  19.127  0.00  0.00    +0.000 A 
ATOM      4  C   UNL     1       2.077   7.416  19.398  0.00  0.00    +0.000 A 
ATOM      5  C   UNL     1       2.760   6.410  18.553  0.00  0.00    +0.000 A 
ATOM      6  C   UNL     1       2.762   5.063  19.033  0.00  0.00    +0.000 A 
ATOM      7  C   UNL     1       3.197   3.802  18.538  0.00  0.00    +0.000 A 
ATOM      8  C   UNL     1       3.716   3.341  17.200  0.00  0.00    +0.000 C 
ATOM      9  N   UNL     1       2.986   2.870  19.493  0.00  0.00    +0.000 NA
ATOM     10  N   UNL     1       2.414   3.447  20.530  0.00  0.00    +0.000 N 
ATOM     11  C   UNL     1       2.046   2.710  21.737  0.00  0.00    +0.000 C 
ATOM     12  C   UNL     1       2.246   4.752  20.260  0.00  0.00    +0.000 A 
ATOM     13  N   UNL     1       1.640   5.656  21.055  0.00  0.00    +0.000 NA
ATOM     14  C   UNL     1       1.513   6.950  20.652  0.00  0.00    +0.000 A 
ATOM     15  C   UNL     1       0.786   7.808  21.495  0.00  0.00    +0.000 A 
ENDROOT
BRANCH   1  17
ATOM     16  C   UNL     1      -0.644   9.810  23.136  0.00  0.00    +0.000 C 
ATOM     17  O   UNL     1      -0.147  10.023  21.875  0.00  0.00    +0.000 OA
ENDBRANCH   1  17
BRANCH   3  18
ATOM     18  O   UNL     1       2.338   9.430  18.013  0.00  0.00    +0.000 OA
ATOM     19  C   UNL     1       2.389  10.766  17.664  0.00  0.00    +0.000 C 
ENDBRANCH   3  18
BRANCH   5  20
ATOM     20  N   UNL     1       3.449   6.628  17.303  0.00  0.00    +0.000 N 
ATOM     21  H   UNL     1       2.974   6.333  16.455  0.00  0.00    +0.000 HD
BRANCH  20  22
ATOM     22  C   UNL     1       4.792   7.100  17.070  0.00  0.00    +0.000 C 
BRANCH  22  23
ATOM     23  C   UNL     1       5.750   6.016  16.612  0.00  0.00    +0.000 C 
BRANCH  23  24
ATOM     24  C   UNL     1       5.484   5.674  15.139  0.00  0.00    +0.000 C 
BRANCH  24  25
ATOM     25  N   UNL     1       6.326   4.569  14.650  0.00  0.00    +0.000 NA
ATOM     26  C   UNL     1       5.625   3.750  13.650  0.00  0.00    +0.000 C 
ATOM     27  C   UNL     1       7.545   5.144  14.060  0.00  0.00    +0.000 C 
ENDBRANCH  24  25
ENDBRANCH  23  24
ENDBRANCH  22  23
ENDBRANCH  20  22
ENDBRANCH   5  20
TORSDOF 7
ENDMDL
MODEL 8
REMARK VINA RESULT:      -5.7      1.944      4.952
REMARK  Name = 
REMARK  13 active torsions:
REMARK  status: ('A' for Active; 'I' for Inactive)
REMARK    1  A    between atoms: C_1  and  O_2
REMARK    2  A    between atoms: O_2  and  C_3
REMARK    3  A    between atoms: C_5  and  O_6
REMARK    4  A    between atoms: O_6  and  C_7
REMARK    5  A    between atoms: C_9  and  N_10
REMARK    6  A    between atoms: N_10  and  C_11
REMARK    7  A    between atoms: C_11  and  C_12
REMARK    8  A    between atoms: C_12  and  C_13
REMARK    9  A    between atoms: C_13  and  N_14
REMARK   10  A    between atoms: N_14  and  C_15
REMARK   11  A    between atoms: N_14  and  C_16
REMARK   12  A    between atoms: C_18  and  C_19
REMARK   13  A    between atoms: N_21  and  C_22
REMARK                            x       y       z     vdW  Elec       q    Type
REMARK                         _______ _______ _______ _____ _____    ______ ____
ROOT
ATOM      1  C   UNL     1       5.818   4.094  14.917  0.00  0.00    +0.000 A 
ATOM      2  C   UNL     1       6.081   5.407  15.212  0.00  0.00    +0.000 A 
ATOM      3  C   UNL     1       5.395   6.102  16.211  0.00  0.00    +0.000 A 
ATOM      4  C   UNL     1       4.339   5.456  16.977  0.00  0.00    +0.000 A 
ATOM      5  C   UNL     1       3.545   6.023  18.092  0.00  0.00    +0.000 A 
ATOM      6  C   UNL     1       2.595   5.151  18.711  0.00  0.00    +0.000 A 
ATOM      7  C   UNL     1       1.715   5.225  19.827  0.00  0.00    +0.000 A 
ATOM      8  C   UNL     1       1.531   6.234  20.931  0.00  0.00    +0.000 C 
ATOM      9  N   UNL     1       0.999   4.081  19.885  0.00  0.00    +0.000 NA
ATOM     10  N   UNL     1       1.394   3.283  18.914  0.00  0.00    +0.000 N 
ATOM     11  C   UNL     1       0.819   1.956  18.703  0.00  0.00    +0.000 C 
ATOM     12  C   UNL     1       2.369   3.895  18.222  0.00  0.00    +0.000 A 
ATOM     13  N   UNL     1       3.064   3.368  17.194  0.00  0.00    +0.000 NA
ATOM     14  C   UNL     1       4.048   4.088  16.589  0.00  0.00    +0.000 A 
ATOM     15  C   UNL     1       4.789   3.435  15.590  0.00  0.00    +0.000 A 
ENDROOT
BRANCH   1  17
ATOM     16  C   UNL     1       6.406   3.469  12.646  0.00  0.00    +0.000 C 
ATOM     17  O   UNL     1       6.629   3.516  14.000  0.00  0.00    +0.000 OA
ENDBRANCH   1  17
BRANCH   3  18
ATOM     18  O   UNL     1       5.795   7.362  16.440  0.00  0.00    +0.000 OA
ATOM     19  C   UNL     1       6.841   7.850  17.201  0.00  0.00    +0.000 C 
ENDBRANCH   3  18
BRANCH   5  20
ATOM     20  N   UNL     1       3.598   7.365  18.621  0.00  0.00    +0.000 N 
ATOM     21  H   UNL     1       3.987   7.479  19.552  0.00  0.00    +0.000 HD
BRANCH  20  22
ATOM     22  C   UNL     1       3.060   8.585  18.073  0.00  0.00    +0.000 C 
BRANCH  22  23
ATOM     23  C   UNL     1       1.543   8.622  18.034  0.00  0.00    +0.000 C 
BRANCH  23  24
ATOM     24  C   UNL     1       1.016   9.542  19.144  0.00  0.00    +0.000 C 
BRANCH  24  25
ATOM     25  N   UNL     1       0.407  10.775  18.621  0.00  0.00    +0.000 NA
ATOM     26  C   UNL     1      -1.020  10.870  18.967  0.00  0.00    +0.000 C 
ATOM     27  C   UNL     1       1.135  11.925  19.181  0.00  0.00    +0.000 C 
ENDBRANCH  24  25
ENDBRANCH  23  24
ENDBRANCH  22  23
ENDBRANCH  20  22
ENDBRANCH   5  20
TORSDOF 7
ENDMDL
MODEL 9
REMARK VINA RESULT:      -5.7      1.140      1.385
REMARK  Name = 
REMARK  13 active torsions:
REMARK  status: ('A' for Active; 'I' for Inactive)
REMARK    1  A    between atoms: C_1  and  O_2
REMARK    2  A    between atoms: O_2  and  C_3
REMARK    3  A    between atoms: C_5  and  O_6
REMARK    4  A    between atoms: O_6  and  C_7
REMARK    5  A    between atoms: C_9  and  N_10
REMARK    6  A    between atoms: N_10  and  C_11
REMARK    7  A    between atoms: C_11  and  C_12
REMARK    8  A    between atoms: C_12  and  C_13
REMARK    9  A    between atoms: C_13  and  N_14
REMARK   10  A    between atoms: N_14  and  C_15
REMARK   11  A    between atoms: N_14  and  C_16
REMARK   12  A    between atoms: C_18  and  C_19
REMARK   13  A    between atoms: N_21  and  C_22
REMARK                            x       y       z     vdW  Elec       q    Type
REMARK                         _______ _______ _______ _____ _____    ______ ____
ROOT
ATOM      1  C   UNL     1       5.099   6.204  16.048  0.00  0.00    +0.000 A 
ATOM      2  C   UNL     1       5.071   5.216  16.997  0.00  0.00    +0.000 A 
ATOM      3  C   UNL     1       4.309   5.319  18.163  0.00  0.00    +0.000 A 
ATOM      4  C   UNL     1       3.517   6.511  18.433  0.00  0.00    +0.000 A 
ATOM      5  C   UNL     1       2.623   6.770  19.585  0.00  0.00    +0.000 A 
ATOM      6  C   UNL     1       1.916   8.014  19.582  0.00  0.00    +0.000 A 
ATOM      7  C   UNL     1       0.924   8.627  20.397  0.00  0.00    +0.000 A 
ATOM      8  C   UNL     1       0.083   8.135  21.547  0.00  0.00    +0.000 C 
ATOM      9  N   UNL     1       0.685   9.869  19.920  0.00  0.00    +0.000 NA
ATOM     10  N   UNL     1       1.423  10.060  18.845  0.00  0.00    +0.000 N 
ATOM     11  C   UNL     1       1.394  11.306  18.082  0.00  0.00    +0.000 C 
ATOM     12  C   UNL     1       2.143   8.950  18.613  0.00  0.00    +0.000 A 
ATOM     13  N   UNL     1       2.968   8.744  17.568  0.00  0.00    +0.000 NA
ATOM     14  C   UNL     1       3.626   7.559  17.434  0.00  0.00    +0.000 A 
ATOM     15  C   UNL     1       4.393   7.387  16.270  0.00  0.00    +0.000 A 
ENDROOT
BRANCH   1  17
ATOM     16  C   UNL     1       6.383   4.725  14.614  0.00  0.00    +0.000 C 
ATOM     17  O   UNL     1       5.796   5.927  14.921  0.00  0.00    +0.000 OA
ENDBRANCH   1  17
BRANCH   3  18
ATOM     18  O   UNL     1       4.321   4.253  18.978  0.00  0.00    +0.000 OA
ATOM     19  C   UNL     1       5.373   3.610  19.603  0.00  0.00    +0.000 C 
ENDBRANCH   3  18
BRANCH   5  20
ATOM     20  N   UNL     1       2.392   5.923  20.732  0.00  0.00    +0.000 N 
ATOM     21  H   UNL     1       3.002   6.054  21.533  0.00  0.00    +0.000 HD
BRANCH  20  22
ATOM     22  C   UNL     1       1.488   4.810  20.877  0.00  0.00    +0.000 C 
BRANCH  22  23
ATOM     23  C   UNL     1       2.116   3.594  21.534  0.00  0.00    +0.000 C 
BRANCH  23  24
ATOM     24  C   UNL     1       1.714   2.323  20.771  0.00  0.00    +0.000 C 
BRANCH  24  25
ATOM     25  N   UNL     1       1.815   2.480  19.311  0.00  0.00    +0.000 NA
ATOM     26  C   UNL     1       2.740   1.500  18.720  0.00  0.00    +0.000 C 
ATOM     27  C   UNL     1       0.472   2.313  18.733  0.00  0.00    +0.000 C 
ENDBRANCH  24  25
ENDBRANCH  23  24
ENDBRANCH  22  23
ENDBRANCH  20  22
ENDBRANCH   5  20
TORSDOF 7
ENDMDL
