MODEL 1
REMARK VINA RESULT:      -8.6      0.000      0.000
REMARK  Name = 
REMARK  6 active torsions:
REMARK  status: ('A' for Active; 'I' for Inactive)
REMARK    1  A    between atoms: C_1  and  O_2
REMARK    2  A    between atoms: O_2  and  C_3
REMARK    3  A    between atoms: C_5  and  C_6
REMARK    4  A    between atoms: C_14  and  C_15
REMARK    5  A    between atoms: N_17  and  C_18
REMARK    6  A    between atoms: N_24  and  C_25
REMARK                            x       y       z     vdW  Elec       q    Type
REMARK                         _______ _______ _______ _____ _____    ______ ____
ROOT
ATOM      1  C   UNL     1       1.276   8.365  20.530  0.00  0.00    +0.000 C 
ATOM      2  O   UNL     1       1.444   7.386  21.246  0.00  0.00    +0.000 OA
ATOM      3  N   UNL     1       1.861   8.524  19.289  0.00  0.00    +0.000 N 
ATOM      4  H   UNL     1       1.739   9.424  18.832  0.00  0.00    +0.000 HD
ENDROOT
BRANCH   3   5
ATOM      5  C   UNL     1       2.428   7.480  18.508  0.00  0.00    +0.000 A 
ATOM      6  C   UNL     1       3.475   7.709  17.603  0.00  0.00    +0.000 A 
ATOM      7  C   UNL     1       4.305   6.666  17.202  0.00  0.00    +0.000 A 
ATOM      8  C   UNL     1       4.052   5.388  17.679  0.00  0.00    +0.000 A 
ATOM      9  C   UNL     1       2.812   5.094  18.261  0.00  0.00    +0.000 A 
ATOM     10  C   UNL     1       2.041   6.156  18.753  0.00  0.00    +0.000 A 
ATOM     11  N   UNL     1       2.492   3.743  18.574  0.00  0.00    +0.000 N 
ATOM     12  C   UNL     1       2.455   2.862  17.383  0.00  0.00    +0.000 C 
ATOM     13  C   UNL     1       3.498   3.335  19.563  0.00  0.00    +0.000 C 
ATOM     14  C   UNL     1       4.944   3.482  19.045  0.00  0.00    +0.000 C 
ATOM     15  C   UNL     1       5.129   4.348  17.776  0.00  0.00    +0.000 C 
ENDBRANCH   3   5
BRANCH   1  21
ATOM     16  C   UNL     1      -0.199  10.490  20.361  0.00  0.00    +0.000 A 
ATOM     17  C   UNL     1      -0.985  11.430  21.059  0.00  0.00    +0.000 A 
ATOM     18  C   UNL     1      -1.208  11.380  22.454  0.00  0.00    +0.000 A 
ATOM     19  C   UNL     1      -0.654  10.294  23.136  0.00  0.00    +0.000 A 
ATOM     20  C   UNL     1       0.129   9.348  22.466  0.00  0.00    +0.000 A 
ATOM     21  C   UNL     1       0.399   9.445  21.088  0.00  0.00    +0.000 A 
BRANCH  18  22
ATOM     22  C   UNL     1      -1.970  12.440  23.149  0.00  0.00    +0.000 A 
ATOM     23  C   UNL     1      -3.301  12.256  23.570  0.00  0.00    +0.000 A 
ATOM     24  C   UNL     1      -4.001  13.270  24.234  0.00  0.00    +0.000 A 
ATOM     25  C   UNL     1      -3.392  14.496  24.483  0.00  0.00    +0.000 A 
ATOM     26  C   UNL     1      -2.078  14.705  24.083  0.00  0.00    +0.000 A 
ATOM     27  C   UNL     1      -1.373  13.685  23.437  0.00  0.00    +0.000 A 
ENDBRANCH  18  22
BRANCH  16  29
ATOM     28  C   UNL     1      -1.126  10.338  18.175  0.00  0.00    +0.000 C 
ATOM     29  O   UNL     1       0.017  10.560  19.010  0.00  0.00    +0.000 OA
ENDBRANCH  16  29
ENDBRANCH   1  21
TORSDOF 4
ENDMDL
MODEL 2
REMARK VINA RESULT:      -8.3      2.342      9.880
REMARK  Name = 
REMARK  6 active torsions:
REMARK  status: ('A' for Active; 'I' for Inactive)
REMARK    1  A    between atoms: C_1  and  O_2
REMARK    2  A    between atoms: O_2  and  C_3
REMARK    3  A    between atoms: C_5  and  C_6
REMARK    4  A    between atoms: C_14  and  C_15
REMARK    5  A    between atoms: N_17  and  C_18
REMARK    6  A    between atoms: N_24  and  C_25
REMARK                            x       y       z     vdW  Elec       q    Type
REMARK                         _______ _______ _______ _____ _____    ______ ____
ROOT
ATOM      1  C   UNL     1       0.255  11.118  20.106  0.00  0.00    +0.000 C 
ATOM      2  O   UNL     1       0.708  12.188  19.719  0.00  0.00    +0.000 OA
ATOM      3  N   UNL     1      -0.825  10.998  20.956  0.00  0.00    +0.000 N 
ATOM      4  H   UNL     1      -1.045  10.066  21.297  0.00  0.00    +0.000 HD
ENDROOT
BRANCH   3   5
ATOM      5  C   UNL     1      -1.781  12.018  21.221  0.00  0.00    +0.000 A 
ATOM      6  C   UNL     1      -2.649  12.503  20.231  0.00  0.00    +0.000 A 
ATOM      7  C   UNL     1      -3.839  13.133  20.582  0.00  0.00    +0.000 A 
ATOM      8  C   UNL     1      -4.132  13.312  21.926  0.00  0.00    +0.000 A 
ATOM      9  C   UNL     1      -3.118  13.179  22.883  0.00  0.00    +0.000 A 
ATOM     10  C   UNL     1      -1.973  12.448  22.540  0.00  0.00    +0.000 A 
ATOM     11  N   UNL     1      -3.381  13.547  24.232  0.00  0.00    +0.000 N 
ATOM     12  C   UNL     1      -3.724  14.980  24.389  0.00  0.00    +0.000 C 
ATOM     13  C   UNL     1      -4.456  12.645  24.668  0.00  0.00    +0.000 C 
ATOM     14  C   UNL     1      -5.718  12.744  23.785  0.00  0.00    +0.000 C 
ATOM     15  C   UNL     1      -5.542  13.452  22.421  0.00  0.00    +0.000 C 
ENDBRANCH   3   5
BRANCH   1  21
ATOM     16  C   UNL     1       1.195   8.715  20.364  0.00  0.00    +0.000 A 
ATOM     17  C   UNL     1       1.903   7.662  19.750  0.00  0.00    +0.000 A 
ATOM     18  C   UNL     1       2.401   7.720  18.429  0.00  0.00    +0.000 A 
ATOM     19  C   UNL     1       2.105   8.874  17.700  0.00  0.00    +0.000 A 
ATOM     20  C   UNL     1       1.403   9.933  18.286  0.00  0.00    +0.000 A 
ATOM     21  C   UNL     1       0.970   9.891  19.625  0.00  0.00    +0.000 A 
BRANCH  18  22
ATOM     22  C   UNL     1       3.211   6.619  17.863  0.00  0.00    +0.000 A 
ATOM     23  C   UNL     1       2.818   5.271  17.958  0.00  0.00    +0.000 A 
ATOM     24  C   UNL     1       3.597   4.245  17.409  0.00  0.00    +0.000 A 
ATOM     25  C   UNL     1       4.793   4.542  16.762  0.00  0.00    +0.000 A 
ATOM     26  C   UNL     1       5.203   5.865  16.648  0.00  0.00    +0.000 A 
ATOM     27  C   UNL     1       4.416   6.889  17.180  0.00  0.00    +0.000 A 
ENDBRANCH  18  22
BRANCH  16  29
ATOM     28  C   UNL     1       1.619   9.120  22.669  0.00  0.00    +0.000 C 
ATOM     29  O   UNL     1       0.730   8.647  21.651  0.00  0.00    +0.000 OA
ENDBRANCH  16  29
ENDBRANCH   1  21
TORSDOF 4
ENDMDL
MODEL 3
REMARK VINA RESULT:      -8.3      2.389      9.762
REMARK  Name = 
REMARK  6 active torsions:
REMARK  status: ('A' for Active; 'I' for Inactive)
REMARK    1  A    between atoms: C_1  and  O_2
REMARK    2  A    between atoms: O_2  and  C_3
REMARK    3  A    between atoms: C_5  and  C_6
REMARK    4  A    between atoms: C_14  and  C_15
REMARK    5  A    between atoms: N_17  and  C_18
REMARK    6  A    between atoms: N_24  and  C_25
REMARK                            x       y       z     vdW  Elec       q    Type
REMARK                         _______ _______ _______ _____ _____    ______ ____
ROOT
ATOM      1  C   UNL     1       0.426  10.672  20.871  0.00  0.00    +0.000 C 
ATOM      2  O   UNL     1       1.172  11.421  21.489  0.00  0.00    +0.000 OA
ATOM      3  N   UNL     1      -0.951  10.769  20.886  0.00  0.00    +0.000 N 
ATOM      4  H   UNL     1      -1.472  10.027  20.425  0.00  0.00    +0.000 HD
ENDROOT
BRANCH   3   5
ATOM      5  C   UNL     1      -1.691  11.913  21.293  0.00  0.00    +0.000 A 
ATOM      6  C   UNL     1      -2.311  12.769  20.371  0.00  0.00    +0.000 A 
ATOM      7  C   UNL     1      -3.372  13.580  20.761  0.00  0.00    +0.000 A 
ATOM      8  C   UNL     1      -3.777  13.561  22.088  0.00  0.00    +0.000 A 
ATOM      9  C   UNL     1      -2.936  13.013  23.065  0.00  0.00    +0.000 A 
ATOM     10  C   UNL     1      -1.941  12.114  22.657  0.00  0.00    +0.000 A 
ATOM     11  N   UNL     1      -3.272  13.166  24.440  0.00  0.00    +0.000 N 
ATOM     12  C   UNL     1      -3.317  14.582  24.875  0.00  0.00    +0.000 C 
ATOM     13  C   UNL     1      -4.559  12.475  24.594  0.00  0.00    +0.000 C 
ATOM     14  C   UNL     1      -5.657  13.033  23.664  0.00  0.00    +0.000 C 
ATOM     15  C   UNL     1      -5.173  13.929  22.499  0.00  0.00    +0.000 C 
ENDBRANCH   3   5
BRANCH   1  21
ATOM     16  C   UNL     1       1.503   9.648  18.746  0.00  0.00    +0.000 A 
ATOM     17  C   UNL     1       2.101   8.510  18.168  0.00  0.00    +0.000 A 
ATOM     18  C   UNL     1       2.313   7.299  18.865  0.00  0.00    +0.000 A 
ATOM     19  C   UNL     1       1.953   7.283  20.214  0.00  0.00    +0.000 A 
ATOM     20  C   UNL     1       1.358   8.400  20.811  0.00  0.00    +0.000 A 
ATOM     21  C   UNL     1       1.091   9.579  20.090  0.00  0.00    +0.000 A 
BRANCH  18  22
ATOM     22  C   UNL     1       2.867   6.108  18.185  0.00  0.00    +0.000 A 
ATOM     23  C   UNL     1       4.156   6.097  17.618  0.00  0.00    +0.000 A 
ATOM     24  C   UNL     1       4.663   4.956  16.986  0.00  0.00    +0.000 A 
ATOM     25  C   UNL     1       3.892   3.801  16.896  0.00  0.00    +0.000 A 
ATOM     26  C   UNL     1       2.618   3.781  17.452  0.00  0.00    +0.000 A 
ATOM     27  C   UNL     1       2.119   4.915  18.098  0.00  0.00    +0.000 A 
ENDBRANCH  18  22
BRANCH  16  29
ATOM     28  C   UNL     1       2.391  11.731  18.017  0.00  0.00    +0.000 C 
ATOM     29  O   UNL     1       1.294  10.811  18.052  0.00  0.00    +0.000 OA
ENDBRANCH  16  29
ENDBRANCH   1  21
TORSDOF 4
ENDMDL
MODEL 4
REMARK VINA RESULT:      -8.1      2.797      4.279
REMARK  Name = 
REMARK  6 active torsions:
REMARK  status: ('A' for Active; 'I' for Inactive)
REMARK    1  A    between atoms: C_1  and  O_2
REMARK    2  A    between atoms: O_2  and  C_3
REMARK    3  A    between atoms: C_5  and  C_6
REMARK    4  A    between atoms: C_14  and  C_15
REMARK    5  A    between atoms: N_17  and  C_18
REMARK    6  A    between atoms: N_24  and  C_25
REMARK                            x       y       z     vdW  Elec       q    Type
REMARK                         _______ _______ _______ _____ _____    ______ ____
ROOT
ATOM      1  C   UNL     1       1.081   9.725  18.263  0.00  0.00    +0.000 C 
ATOM      2  O   UNL     1       2.032  10.496  18.219  0.00  0.00    +0.000 OA
ATOM      3  N   UNL     1       1.199   8.351  18.210  0.00  0.00    +0.000 N 
ATOM      4  H   UNL     1       0.337   7.815  18.144  0.00  0.00    +0.000 HD
ENDROOT
BRANCH   3   5
ATOM      5  C   UNL     1       2.392   7.617  18.457  0.00  0.00    +0.000 A 
ATOM      6  C   UNL     1       2.499   6.699  19.512  0.00  0.00    +0.000 A 
ATOM      7  C   UNL     1       3.455   5.687  19.475  0.00  0.00    +0.000 A 
ATOM      8  C   UNL     1       4.327   5.629  18.398  0.00  0.00    +0.000 A 
ATOM      9  C   UNL     1       4.470   6.740  17.557  0.00  0.00    +0.000 A 
ATOM     10  C   UNL     1       3.443   7.692  17.534  0.00  0.00    +0.000 A 
ATOM     11  N   UNL     1       5.499   6.740  16.573  0.00  0.00    +0.000 N 
ATOM     12  C   UNL     1       6.860   6.653  17.153  0.00  0.00    +0.000 C 
ATOM     13  C   UNL     1       5.176   5.613  15.687  0.00  0.00    +0.000 C 
ATOM     14  C   UNL     1       5.092   4.266  16.435  0.00  0.00    +0.000 C 
ATOM     15  C   UNL     1       4.985   4.347  17.977  0.00  0.00    +0.000 C 
ENDBRANCH   3   5
BRANCH   1  21
ATOM     16  C   UNL     1      -0.669  11.362  19.253  0.00  0.00    +0.000 A 
ATOM     17  C   UNL     1      -1.998  11.830  19.199  0.00  0.00    +0.000 A 
ATOM     18  C   UNL     1      -2.960  11.346  18.284  0.00  0.00    +0.000 A 
ATOM     19  C   UNL     1      -2.521  10.397  17.359  0.00  0.00    +0.000 A 
ATOM     20  C   UNL     1      -1.207   9.917  17.391  0.00  0.00    +0.000 A 
ATOM     21  C   UNL     1      -0.275  10.358  18.350  0.00  0.00    +0.000 A 
BRANCH  18  22
ATOM     22  C   UNL     1      -4.364  11.810  18.328  0.00  0.00    +0.000 A 
ATOM     23  C   UNL     1      -5.168  11.884  17.174  0.00  0.00    +0.000 A 
ATOM     24  C   UNL     1      -6.496  12.319  17.239  0.00  0.00    +0.000 A 
ATOM     25  C   UNL     1      -7.051  12.701  18.457  0.00  0.00    +0.000 A 
ATOM     26  C   UNL     1      -6.283  12.633  19.613  0.00  0.00    +0.000 A 
ATOM     27  C   UNL     1      -4.962  12.182  19.550  0.00  0.00    +0.000 A 
ENDBRANCH  18  22
BRANCH  16  29
ATOM     28  C   UNL     1      -0.226  12.033  21.491  0.00  0.00    +0.000 C 
ATOM     29  O   UNL     1       0.248  11.833  20.155  0.00  0.00    +0.000 OA
ENDBRANCH  16  29
ENDBRANCH   1  21
TORSDOF 4
ENDMDL
MODEL 5
REMARK VINA RESULT:      -8.1      2.159      9.690
REMARK  Name = 
REMARK  6 active torsions:
REMARK  status: ('A' for Active; 'I' for Inactive)
REMARK    1  A    between atoms: C_1  and  O_2
REMARK    2  A    between atoms: O_2  and  C_3
REMARK    3  A    between atoms: C_5  and  C_6
REMARK    4  A    between atoms: C_14  and  C_15
REMARK    5  A    between atoms: N_17  and  C_18
REMARK    6  A    between atoms: N_24  and  C_25
REMARK                            x       y       z     vdW  Elec       q    Type
REMARK                         _______ _______ _______ _____ _____    ______ ____
ROOT
ATOM      1  C   UNL     1       0.345  10.872  19.934  0.00  0.00    +0.000 C 
ATOM      2  O   UNL     1      -0.502  11.301  19.160  0.00  0.00    +0.000 OA
ATOM      3  N   UNL     1       0.669  11.472  21.134  0.00  0.00    +0.000 N 
ATOM      4  H   UNL     1       1.462  11.091  21.643  0.00  0.00    +0.000 HD
ENDROOT
BRANCH   3   5
ATOM      5  C   UNL     1      -0.134  12.425  21.820  0.00  0.00    +0.000 A 
ATOM      6  C   UNL     1       0.163  13.796  21.811  0.00  0.00    +0.000 A 
ATOM      7  C   UNL     1      -0.829  14.736  22.075  0.00  0.00    +0.000 A 
ATOM      8  C   UNL     1      -2.106  14.293  22.389  0.00  0.00    +0.000 A 
ATOM      9  C   UNL     1      -2.307  12.958  22.766  0.00  0.00    +0.000 A 
ATOM     10  C   UNL     1      -1.342  12.011  22.395  0.00  0.00    +0.000 A 
ATOM     11  N   UNL     1      -3.578  12.560  23.266  0.00  0.00    +0.000 N 
ATOM     12  C   UNL     1      -3.959  13.261  24.515  0.00  0.00    +0.000 C 
ATOM     13  C   UNL     1      -4.514  12.802  22.159  0.00  0.00    +0.000 C 
ATOM     14  C   UNL     1      -4.513  14.270  21.684  0.00  0.00    +0.000 C 
ATOM     15  C   UNL     1      -3.322  15.139  22.152  0.00  0.00    +0.000 C 
ENDBRANCH   3   5
BRANCH   1  21
ATOM     16  C   UNL     1       1.372   8.520  20.296  0.00  0.00    +0.000 A 
ATOM     17  C   UNL     1       2.079   7.447  19.714  0.00  0.00    +0.000 A 
ATOM     18  C   UNL     1       2.502   7.429  18.365  0.00  0.00    +0.000 A 
ATOM     19  C   UNL     1       2.130   8.523  17.580  0.00  0.00    +0.000 A 
ATOM     20  C   UNL     1       1.428   9.599  18.134  0.00  0.00    +0.000 A 
ATOM     21  C   UNL     1       1.070   9.636  19.495  0.00  0.00    +0.000 A 
BRANCH  18  22
ATOM     22  C   UNL     1       3.315   6.316  17.829  0.00  0.00    +0.000 A 
ATOM     23  C   UNL     1       2.924   4.970  17.959  0.00  0.00    +0.000 A 
ATOM     24  C   UNL     1       3.705   3.932  17.436  0.00  0.00    +0.000 A 
ATOM     25  C   UNL     1       4.900   4.214  16.781  0.00  0.00    +0.000 A 
ATOM     26  C   UNL     1       5.308   5.535  16.633  0.00  0.00    +0.000 A 
ATOM     27  C   UNL     1       4.518   6.571  17.139  0.00  0.00    +0.000 A 
ENDBRANCH  18  22
BRANCH  16  29
ATOM     28  C   UNL     1      -0.398   8.231  21.858  0.00  0.00    +0.000 C 
ATOM     29  O   UNL     1       0.981   8.526  21.609  0.00  0.00    +0.000 OA
ENDBRANCH  16  29
ENDBRANCH   1  21
TORSDOF 4
ENDMDL
MODEL 6
REMARK VINA RESULT:      -8.0      1.277      2.271
REMARK  Name = 
REMARK  6 active torsions:
REMARK  status: ('A' for Active; 'I' for Inactive)
REMARK    1  A    between atoms: C_1  and  O_2
REMARK    2  A    between atoms: O_2  and  C_3
REMARK    3  A    between atoms: C_5  and  C_6
REMARK    4  A    between atoms: C_14  and  C_15
REMARK    5  A    between atoms: N_17  and  C_18
REMARK    6  A    between atoms: N_24  and  C_25
REMARK                            x       y       z     vdW  Elec       q    Type
REMARK                         _______ _______ _______ _____ _____    ______ ____
ROOT
ATOM      1  C   UNL     1       1.188   8.298  20.248  0.00  0.00    +0.000 C 
ATOM      2  O   UNL     1       1.847   8.627  19.270  0.00  0.00    +0.000 OA
ATOM      3  N   UNL     1       1.149   7.016  20.758  0.00  0.00    +0.000 N 
ATOM      4  H   UNL     1       0.483   6.835  21.505  0.00  0.00    +0.000 HD
ENDROOT
BRANCH   3   5
ATOM      5  C   UNL     1       2.099   5.994  20.485  0.00  0.00    +0.000 A 
ATOM      6  C   UNL     1       1.882   4.656  20.849  0.00  0.00    +0.000 A 
ATOM      7  C   UNL     1       2.561   3.628  20.202  0.00  0.00    +0.000 A 
ATOM      8  C   UNL     1       3.487   3.950  19.221  0.00  0.00    +0.000 A 
ATOM      9  C   UNL     1       3.974   5.260  19.126  0.00  0.00    +0.000 A 
ATOM     10  C   UNL     1       3.217   6.293  19.696  0.00  0.00    +0.000 A 
ATOM     11  N   UNL     1       5.057   5.539  18.246  0.00  0.00    +0.000 N 
ATOM     12  C   UNL     1       6.296   4.807  18.597  0.00  0.00    +0.000 C 
ATOM     13  C   UNL     1       4.551   5.208  16.906  0.00  0.00    +0.000 C 
ATOM     14  C   UNL     1       4.072   3.746  16.790  0.00  0.00    +0.000 C 
ATOM     15  C   UNL     1       3.847   2.993  18.122  0.00  0.00    +0.000 C 
ENDBRANCH   3   5
BRANCH   1  21
ATOM     16  C   UNL     1      -0.262  10.448  20.209  0.00  0.00    +0.000 A 
ATOM     17  C   UNL     1      -0.988  11.385  20.971  0.00  0.00    +0.000 A 
ATOM     18  C   UNL     1      -1.124  11.313  22.376  0.00  0.00    +0.000 A 
ATOM     19  C   UNL     1      -0.546  10.207  23.003  0.00  0.00    +0.000 A 
ATOM     20  C   UNL     1       0.178   9.262  22.269  0.00  0.00    +0.000 A 
ATOM     21  C   UNL     1       0.364   9.380  20.879  0.00  0.00    +0.000 A 
BRANCH  18  22
ATOM     22  C   UNL     1      -1.825  12.371  23.136  0.00  0.00    +0.000 A 
ATOM     23  C   UNL     1      -1.231  13.618  23.411  0.00  0.00    +0.000 A 
ATOM     24  C   UNL     1      -1.915  14.608  24.126  0.00  0.00    +0.000 A 
ATOM     25  C   UNL     1      -3.205  14.373  24.591  0.00  0.00    +0.000 A 
ATOM     26  C   UNL     1      -3.819  13.153  24.330  0.00  0.00    +0.000 A 
ATOM     27  C   UNL     1      -3.142  12.172  23.601  0.00  0.00    +0.000 A 
ENDBRANCH  18  22
BRANCH  16  29
ATOM     28  C   UNL     1      -1.320  10.324  18.082  0.00  0.00    +0.000 C 
ATOM     29  O   UNL     1      -0.129  10.540  18.848  0.00  0.00    +0.000 OA
ENDBRANCH  16  29
ENDBRANCH   1  21
TORSDOF 4
ENDMDL
MODEL 7
REMARK VINA RESULT:      -8.0      2.421      9.894
REMARK  Name = 
REMARK  6 active torsions:
REMARK  status: ('A' for Active; 'I' for Inactive)
REMARK    1  A    between atoms: C_1  and  O_2
REMARK    2  A    between atoms: O_2  and  C_3
REMARK    3  A    between atoms: C_5  and  C_6
REMARK    4  A    between atoms: C_14  and  C_15
REMARK    5  A    between atoms: N_17  and  C_18
REMARK    6  A    between atoms: N_24  and  C_25
REMARK                            x       y       z     vdW  Elec       q    Type
REMARK                         _______ _______ _______ _____ _____    ______ ____
ROOT
ATOM      1  C   UNL     1      -0.476  10.651  22.018  0.00  0.00    +0.000 C 
ATOM      2  O   UNL     1      -0.198  10.559  23.208  0.00  0.00    +0.000 OA
ATOM      3  N   UNL     1      -1.495  11.438  21.522  0.00  0.00    +0.000 N 
ATOM      4  H   UNL     1      -1.705  11.352  20.531  0.00  0.00    +0.000 HD
ENDROOT
BRANCH   3   5
ATOM      5  C   UNL     1      -2.124  12.506  22.220  0.00  0.00    +0.000 A 
ATOM      6  C   UNL     1      -3.182  12.292  23.115  0.00  0.00    +0.000 A 
ATOM      7  C   UNL     1      -3.474  13.229  24.102  0.00  0.00    +0.000 A 
ATOM      8  C   UNL     1      -2.728  14.397  24.158  0.00  0.00    +0.000 A 
ATOM      9  C   UNL     1      -1.947  14.778  23.060  0.00  0.00    +0.000 A 
ATOM     10  C   UNL     1      -1.577  13.793  22.134  0.00  0.00    +0.000 A 
ATOM     11  N   UNL     1      -1.337  16.064  23.051  0.00  0.00    +0.000 N 
ATOM     12  C   UNL     1      -2.318  17.174  23.092  0.00  0.00    +0.000 C 
ATOM     13  C   UNL     1      -0.424  16.058  24.202  0.00  0.00    +0.000 C 
ATOM     14  C   UNL     1      -1.141  15.767  25.537  0.00  0.00    +0.000 C 
ATOM     15  C   UNL     1      -2.568  15.178  25.430  0.00  0.00    +0.000 C 
ENDBRANCH   3   5
BRANCH   1  21
ATOM     16  C   UNL     1       0.693  10.142  19.761  0.00  0.00    +0.000 A 
ATOM     17  C   UNL     1       1.466   9.222  19.023  0.00  0.00    +0.000 A 
ATOM     18  C   UNL     1       1.917   7.987  19.540  0.00  0.00    +0.000 A 
ATOM     19  C   UNL     1       1.613   7.722  20.877  0.00  0.00    +0.000 A 
ATOM     20  C   UNL     1       0.848   8.618  21.631  0.00  0.00    +0.000 A 
ATOM     21  C   UNL     1       0.348   9.815  21.085  0.00  0.00    +0.000 A 
BRANCH  18  22
ATOM     22  C   UNL     1       2.653   7.022  18.695  0.00  0.00    +0.000 A 
ATOM     23  C   UNL     1       3.643   7.426  17.779  0.00  0.00    +0.000 A 
ATOM     24  C   UNL     1       4.332   6.495  16.994  0.00  0.00    +0.000 A 
ATOM     25  C   UNL     1       4.042   5.138  17.097  0.00  0.00    +0.000 A 
ATOM     26  C   UNL     1       3.074   4.709  17.997  0.00  0.00    +0.000 A 
ATOM     27  C   UNL     1       2.399   5.638  18.793  0.00  0.00    +0.000 A 
ENDBRANCH  18  22
BRANCH  16  29
ATOM     28  C   UNL     1       1.267  12.274  18.878  0.00  0.00    +0.000 C 
ATOM     29  O   UNL     1       0.253  11.330  19.239  0.00  0.00    +0.000 OA
ENDBRANCH  16  29
ENDBRANCH   1  21
TORSDOF 4
ENDMDL
MODEL 8
REMARK VINA RESULT:      -7.9      2.380      9.847
REMARK  Name = 
REMARK  6 active torsions:
REMARK  status: ('A' for Active; 'I' for Inactive)
REMARK    1  A    between atoms: C_1  and  O_2
REMARK    2  A    between atoms: O_2  and  C_3
REMARK    3  A    between atoms: C_5  and  C_6
REMARK    4  A    between atoms: C_14  and  C_15
REMARK    5  A    between atoms: N_17  and  C_18
REMARK    6  A    between atoms: N_24  and  C_25
REMARK                            x       y       z     vdW  Elec       q    Type
REMARK                         _______ _______ _______ _____ _____    ______ ____
ROOT
ATOM      1  C   UNL     1      -0.488  10.674  22.080  0.00  0.00    +0.000 C 
ATOM      2  O   UNL     1      -0.182  10.601  23.264  0.00  0.00    +0.000 OA
ATOM      3  N   UNL     1      -1.526  11.446  21.596  0.00  0.00    +0.000 N 
ATOM      4  H   UNL     1      -1.758  11.345  20.612  0.00  0.00    +0.000 HD
ENDROOT
BRANCH   3   5
ATOM      5  C   UNL     1      -2.149  12.517  22.295  0.00  0.00    +0.000 A 
ATOM      6  C   UNL     1      -3.228  12.311  23.168  0.00  0.00    +0.000 A 
ATOM      7  C   UNL     1      -3.522  13.242  24.160  0.00  0.00    +0.000 A 
ATOM      8  C   UNL     1      -2.758  14.396  24.243  0.00  0.00    +0.000 A 
ATOM      9  C   UNL     1      -1.949  14.776  23.164  0.00  0.00    +0.000 A 
ATOM     10  C   UNL     1      -1.579  13.794  22.234  0.00  0.00    +0.000 A 
ATOM     11  N   UNL     1      -1.318  16.051  23.181  0.00  0.00    +0.000 N 
ATOM     12  C   UNL     1      -2.280  17.178  23.217  0.00  0.00    +0.000 C 
ATOM     13  C   UNL     1      -0.426  16.017  24.349  0.00  0.00    +0.000 C 
ATOM     14  C   UNL     1      -1.174  15.723  25.666  0.00  0.00    +0.000 C 
ATOM     15  C   UNL     1      -2.608  15.160  25.527  0.00  0.00    +0.000 C 
ENDBRANCH   3   5
BRANCH   1  21
ATOM     16  C   UNL     1       0.574  10.112  19.783  0.00  0.00    +0.000 A 
ATOM     17  C   UNL     1       1.350   9.196  19.043  0.00  0.00    +0.000 A 
ATOM     18  C   UNL     1       1.892   8.011  19.589  0.00  0.00    +0.000 A 
ATOM     19  C   UNL     1       1.679   7.797  20.953  0.00  0.00    +0.000 A 
ATOM     20  C   UNL     1       0.913   8.691  21.709  0.00  0.00    +0.000 A 
ATOM     21  C   UNL     1       0.322   9.835  21.139  0.00  0.00    +0.000 A 
BRANCH  18  22
ATOM     22  C   UNL     1       2.626   7.042  18.747  0.00  0.00    +0.000 A 
ATOM     23  C   UNL     1       2.387   5.656  18.813  0.00  0.00    +0.000 A 
ATOM     24  C   UNL     1       3.088   4.757  18.001  0.00  0.00    +0.000 A 
ATOM     25  C   UNL     1       4.052   5.220  17.111  0.00  0.00    +0.000 A 
ATOM     26  C   UNL     1       4.306   6.583  17.020  0.00  0.00    +0.000 A 
ATOM     27  C   UNL     1       3.593   7.481  17.819  0.00  0.00    +0.000 A 
ENDBRANCH  18  22
BRANCH  16  29
ATOM     28  C   UNL     1      -0.973  11.061  18.246  0.00  0.00    +0.000 C 
ATOM     29  O   UNL     1       0.046  11.251  19.234  0.00  0.00    +0.000 OA
ENDBRANCH  16  29
ENDBRANCH   1  21
TORSDOF 4
ENDMDL
MODEL 9
REMARK VINA RESULT:      -7.9      3.242      9.694
REMARK  Name = 
REMARK  6 active torsions:
REMARK  status: ('A' for Active; 'I' for Inactive)
REMARK    1  A    between atoms: C_1  and  O_2
REMARK    2  A    between atoms: O_2  and  C_3
REMARK    3  A    between atoms: C_5  and  C_6
REMARK    4  A    between atoms: C_14  and  C_15
REMARK    5  A    between atoms: N_17  and  C_18
REMARK    6  A    between atoms: N_24  and  C_25
REMARK                            x       y       z     vdW  Elec       q    Type
REMARK                         _______ _______ _______ _____ _____    ______ ____
ROOT
ATOM      1  C   UNL     1      -0.264  10.506  18.818  0.00  0.00    +0.000 C 
ATOM      2  O   UNL     1       0.164  11.653  18.832  0.00  0.00    +0.000 OA
ATOM      3  N   UNL     1      -1.605  10.181  18.819  0.00  0.00    +0.000 N 
ATOM      4  H   UNL     1      -1.843   9.197  18.917  0.00  0.00    +0.000 HD
ENDROOT
BRANCH   3   5
ATOM      5  C   UNL     1      -2.666  11.065  18.480  0.00  0.00    +0.000 A 
ATOM      6  C   UNL     1      -3.168  11.163  17.173  0.00  0.00    +0.000 A 
ATOM      7  C   UNL     1      -4.449  11.656  16.943  0.00  0.00    +0.000 A 
ATOM      8  C   UNL     1      -5.205  12.088  18.023  0.00  0.00    +0.000 A 
ATOM      9  C   UNL     1      -4.582  12.344  19.251  0.00  0.00    +0.000 A 
ATOM     10  C   UNL     1      -3.338  11.749  19.501  0.00  0.00    +0.000 A 
ATOM     11  N   UNL     1      -5.326  12.964  20.294  0.00  0.00    +0.000 N 
ATOM     12  C   UNL     1      -5.808  14.320  19.940  0.00  0.00    +0.000 C 
ATOM     13  C   UNL     1      -6.415  12.025  20.593  0.00  0.00    +0.000 C 
ATOM     14  C   UNL     1      -7.293  11.712  19.363  0.00  0.00    +0.000 C 
ATOM     15  C   UNL     1      -6.705  12.108  17.987  0.00  0.00    +0.000 C 
ENDBRANCH   3   5
BRANCH   1  21
ATOM     16  C   UNL     1       1.079   8.578  19.914  0.00  0.00    +0.000 A 
ATOM     17  C   UNL     1       2.098   7.617  19.748  0.00  0.00    +0.000 A 
ATOM     18  C   UNL     1       2.827   7.450  18.549  0.00  0.00    +0.000 A 
ATOM     19  C   UNL     1       2.453   8.257  17.472  0.00  0.00    +0.000 A 
ATOM     20  C   UNL     1       1.445   9.217  17.611  0.00  0.00    +0.000 A 
ATOM     21  C   UNL     1       0.770   9.420  18.830  0.00  0.00    +0.000 A 
BRANCH  18  22
ATOM     22  C   UNL     1       3.944   6.485  18.456  0.00  0.00    +0.000 A 
ATOM     23  C   UNL     1       4.924   6.563  17.448  0.00  0.00    +0.000 A 
ATOM     24  C   UNL     1       5.977   5.643  17.383  0.00  0.00    +0.000 A 
ATOM     25  C   UNL     1       6.071   4.617  18.319  0.00  0.00    +0.000 A 
ATOM     26  C   UNL     1       5.122   4.519  19.330  0.00  0.00    +0.000 A 
ATOM     27  C   UNL     1       4.081   5.449  19.404  0.00  0.00    +0.000 A 
ENDBRANCH  18  22
BRANCH  16  29
ATOM     28  C   UNL     1       1.123   9.301  22.179  0.00  0.00    +0.000 C 
ATOM     29  O   UNL     1       0.390   8.734  21.087  0.00  0.00    +0.000 OA
ENDBRANCH  16  29
ENDBRANCH   1  21
TORSDOF 4
ENDMDL
