MODEL 1
REMARK VINA RESULT:      -8.9      0.000      0.000
REMARK  Name = 
REMARK  5 active torsions:
REMARK  status: ('A' for Active; 'I' for Inactive)
REMARK    1  A    between atoms: C_6  and  C_7
REMARK    2  A    between atoms: C_6  and  C_25
REMARK    3  A    between atoms: C_7  and  N_8
REMARK    4  A    between atoms: C_9  and  C_11
REMARK    5  A    between atoms: N_14  and  C_15
REMARK                            x       y       z     vdW  Elec       q    Type
REMARK                         _______ _______ _______ _____ _____    ______ ____
ROOT
ATOM      1  N   UNL     1       3.885   6.272  17.533  0.00  0.00    +0.000 N 
ATOM      2  C   UNL     1       3.204   6.440  18.719  0.00  0.00    +0.000 C 
ATOM      3  O   UNL     1       3.260   5.639  19.648  0.00  0.00    +0.000 OA
ATOM      4  H   UNL     1       3.782   7.009  16.838  0.00  0.00    +0.000 HD
ENDROOT
BRANCH   2   5
ATOM      5  C   UNL     1       2.425   7.671  18.786  0.00  0.00    +0.000 A 
ATOM      6  C   UNL     1       2.173   8.583  17.747  0.00  0.00    +0.000 A 
ATOM      7  N   UNL     1       1.375   9.564  18.172  0.00  0.00    +0.000 NA
ATOM      8  N   UNL     1       1.180   9.230  19.472  0.00  0.00    +0.000 N 
ATOM      9  N   UNL     1       1.804   8.100  19.904  0.00  0.00    +0.000 NA
BRANCH   8  10
ATOM     10  C   UNL     1       0.353  10.001  20.327  0.00  0.00    +0.000 A 
ATOM     11  C   UNL     1       0.207   9.643  21.677  0.00  0.00    +0.000 A 
ATOM     12  C   UNL     1      -0.599  10.418  22.507  0.00  0.00    +0.000 A 
ATOM     13  F   UNL     1      -0.717  10.084  23.800  0.00  0.00    +0.000 F 
ATOM     14  C   UNL     1      -1.270  11.529  22.012  0.00  0.00    +0.000 A 
ATOM     15  F   UNL     1      -2.050  12.262  22.820  0.00  0.00    +0.000 F 
ATOM     16  C   UNL     1      -1.130  11.875  20.676  0.00  0.00    +0.000 A 
ATOM     17  F   UNL     1      -1.778  12.940  20.184  0.00  0.00    +0.000 F 
ATOM     18  C   UNL     1      -0.316  11.127  19.826  0.00  0.00    +0.000 A 
ENDBRANCH   8  10
ENDBRANCH   2   5
BRANCH   1  19
ATOM     19  C   UNL     1       4.736   5.123  17.276  0.00  0.00    +0.000 C 
BRANCH  19  25
ATOM     20  O   UNL     1       7.696   8.610  17.265  0.00  0.00    +0.000 OA
ATOM     21  C   UNL     1       7.330   7.453  17.343  0.00  0.00    +0.000 C 
ATOM     22  N   UNL     1       7.764   6.538  18.239  0.00  0.00    +0.000 N 
ATOM     23  C   UNL     1       7.123   5.351  18.072  0.00  0.00    +0.000 C 
ATOM     24  O   UNL     1       7.293   4.355  18.763  0.00  0.00    +0.000 OA
ATOM     25  C   UNL     1       6.183   5.465  16.869  0.00  0.00    +0.000 C 
ATOM     26  N   UNL     1       6.396   6.857  16.531  0.00  0.00    +0.000 N 
ATOM     27  H   UNL     1       8.442   6.735  18.956  0.00  0.00    +0.000 HD
ATOM     28  H   UNL     1       5.895   7.382  15.822  0.00  0.00    +0.000 HD
BRANCH  25  29
ATOM     29  C   UNL     1       6.647   4.592  15.700  0.00  0.00    +0.000 C 
ATOM     30  C   UNL     1       5.595   3.811  14.864  0.00  0.00    +0.000 C 
ATOM     31  C   UNL     1       6.495   4.031  13.632  0.00  0.00    +0.000 C 
ATOM     32  C   UNL     1       7.093   5.250  14.357  0.00  0.00    +0.000 C 
ENDBRANCH  25  29
ENDBRANCH  19  25
ENDBRANCH   1  19
TORSDOF 5
ENDMDL
MODEL 2
REMARK VINA RESULT:      -8.9      0.136      1.537
REMARK  Name = 
REMARK  5 active torsions:
REMARK  status: ('A' for Active; 'I' for Inactive)
REMARK    1  A    between atoms: C_6  and  C_7
REMARK    2  A    between atoms: C_6  and  C_25
REMARK    3  A    between atoms: C_7  and  N_8
REMARK    4  A    between atoms: C_9  and  C_11
REMARK    5  A    between atoms: N_14  and  C_15
REMARK                            x       y       z     vdW  Elec       q    Type
REMARK                         _______ _______ _______ _____ _____    ______ ____
ROOT
ATOM      1  N   UNL     1       3.953   6.287  17.530  0.00  0.00    +0.000 N 
ATOM      2  C   UNL     1       3.149   6.360  18.647  0.00  0.00    +0.000 C 
ATOM      3  O   UNL     1       3.078   5.466  19.487  0.00  0.00    +0.000 OA
ATOM      4  H   UNL     1       3.949   7.093  16.911  0.00  0.00    +0.000 HD
ENDROOT
BRANCH   2   5
ATOM      5  C   UNL     1       2.403   7.608  18.759  0.00  0.00    +0.000 A 
ATOM      6  C   UNL     1       2.153   8.550  17.749  0.00  0.00    +0.000 A 
ATOM      7  N   UNL     1       1.388   9.540  18.213  0.00  0.00    +0.000 NA
ATOM      8  N   UNL     1       1.211   9.179  19.508  0.00  0.00    +0.000 N 
ATOM      9  N   UNL     1       1.815   8.024  19.900  0.00  0.00    +0.000 NA
BRANCH   8  10
ATOM     10  C   UNL     1       0.421   9.949  20.399  0.00  0.00    +0.000 A 
ATOM     11  C   UNL     1      -0.229  11.107  19.945  0.00  0.00    +0.000 A 
ATOM     12  C   UNL     1      -1.013  11.845  20.829  0.00  0.00    +0.000 A 
ATOM     13  F   UNL     1      -1.647  12.938  20.383  0.00  0.00    +0.000 F 
ATOM     14  C   UNL     1      -1.144  11.456  22.156  0.00  0.00    +0.000 A 
ATOM     15  F   UNL     1      -1.894  12.179  23.000  0.00  0.00    +0.000 F 
ATOM     16  C   UNL     1      -0.494  10.315  22.604  0.00  0.00    +0.000 A 
ATOM     17  F   UNL     1      -0.607   9.934  23.884  0.00  0.00    +0.000 F 
ATOM     18  C   UNL     1       0.282   9.549  21.737  0.00  0.00    +0.000 A 
ENDBRANCH   8  10
ENDBRANCH   2   5
BRANCH   1  19
ATOM     19  C   UNL     1       4.794   5.136  17.246  0.00  0.00    +0.000 C 
BRANCH  19  25
ATOM     20  O   UNL     1       7.768   8.612  17.261  0.00  0.00    +0.000 OA
ATOM     21  C   UNL     1       7.397   7.456  17.330  0.00  0.00    +0.000 C 
ATOM     22  N   UNL     1       7.829   6.531  18.218  0.00  0.00    +0.000 N 
ATOM     23  C   UNL     1       7.182   5.349  18.042  0.00  0.00    +0.000 C 
ATOM     24  O   UNL     1       7.349   4.346  18.724  0.00  0.00    +0.000 OA
ATOM     25  C   UNL     1       6.242   5.477  16.841  0.00  0.00    +0.000 C 
ATOM     26  N   UNL     1       6.460   6.870  16.514  0.00  0.00    +0.000 N 
ATOM     27  H   UNL     1       8.508   6.720  18.936  0.00  0.00    +0.000 HD
ATOM     28  H   UNL     1       5.960   7.403  15.810  0.00  0.00    +0.000 HD
BRANCH  25  29
ATOM     29  C   UNL     1       6.702   4.611  15.665  0.00  0.00    +0.000 C 
ATOM     30  C   UNL     1       5.642   3.888  14.787  0.00  0.00    +0.000 C 
ATOM     31  C   UNL     1       6.579   4.099  13.582  0.00  0.00    +0.000 C 
ATOM     32  C   UNL     1       7.204   5.280  14.346  0.00  0.00    +0.000 C 
ENDBRANCH  25  29
ENDBRANCH  19  25
ENDBRANCH   1  19
TORSDOF 5
ENDMDL
MODEL 3
REMARK VINA RESULT:      -8.8      2.273      3.536
REMARK  Name = 
REMARK  5 active torsions:
REMARK  status: ('A' for Active; 'I' for Inactive)
REMARK    1  A    between atoms: C_6  and  C_7
REMARK    2  A    between atoms: C_6  and  C_25
REMARK    3  A    between atoms: C_7  and  N_8
REMARK    4  A    between atoms: C_9  and  C_11
REMARK    5  A    between atoms: N_14  and  C_15
REMARK                            x       y       z     vdW  Elec       q    Type
REMARK                         _______ _______ _______ _____ _____    ______ ____
ROOT
ATOM      1  N   UNL     1       2.380   5.946  18.082  0.00  0.00    +0.000 N 
ATOM      2  C   UNL     1       3.024   7.155  17.924  0.00  0.00    +0.000 C 
ATOM      3  O   UNL     1       4.145   7.263  17.436  0.00  0.00    +0.000 OA
ATOM      4  H   UNL     1       1.444   5.975  18.480  0.00  0.00    +0.000 HD
ENDROOT
BRANCH   2   5
ATOM      5  C   UNL     1       2.243   8.304  18.368  0.00  0.00    +0.000 A 
ATOM      6  C   UNL     1       1.905   9.448  17.627  0.00  0.00    +0.000 A 
ATOM      7  N   UNL     1       1.134  10.261  18.351  0.00  0.00    +0.000 NA
ATOM      8  N   UNL     1       1.042   9.594  19.528  0.00  0.00    +0.000 N 
ATOM      9  N   UNL     1       1.707   8.408  19.601  0.00  0.00    +0.000 NA
BRANCH   8  10
ATOM     10  C   UNL     1       0.278  10.091  20.614  0.00  0.00    +0.000 A 
ATOM     11  C   UNL     1       0.397   9.508  21.885  0.00  0.00    +0.000 A 
ATOM     12  C   UNL     1      -0.351  10.017  22.944  0.00  0.00    +0.000 A 
ATOM     13  F   UNL     1      -0.217   9.469  24.160  0.00  0.00    +0.000 F 
ATOM     14  C   UNL     1      -1.223  11.081  22.753  0.00  0.00    +0.000 A 
ATOM     15  F   UNL     1      -1.944  11.556  23.778  0.00  0.00    +0.000 F 
ATOM     16  C   UNL     1      -1.343  11.650  21.492  0.00  0.00    +0.000 A 
ATOM     17  F   UNL     1      -2.186  12.673  21.293  0.00  0.00    +0.000 F 
ATOM     18  C   UNL     1      -0.594  11.172  20.419  0.00  0.00    +0.000 A 
ENDBRANCH   8  10
ENDBRANCH   2   5
BRANCH   1  19
ATOM     19  C   UNL     1       2.978   4.684  17.681  0.00  0.00    +0.000 C 
BRANCH  19  25
ATOM     20  O   UNL     1       2.215   3.353  21.991  0.00  0.00    +0.000 OA
ATOM     21  C   UNL     1       2.639   3.275  20.853  0.00  0.00    +0.000 C 
ATOM     22  N   UNL     1       2.606   2.177  20.064  0.00  0.00    +0.000 N 
ATOM     23  C   UNL     1       3.131   2.443  18.839  0.00  0.00    +0.000 C 
ATOM     24  O   UNL     1       3.200   1.645  17.913  0.00  0.00    +0.000 OA
ATOM     25  C   UNL     1       3.638   3.888  18.824  0.00  0.00    +0.000 C 
ATOM     26  N   UNL     1       3.230   4.297  20.152  0.00  0.00    +0.000 N 
ATOM     27  H   UNL     1       2.206   1.298  20.345  0.00  0.00    +0.000 HD
ATOM     28  H   UNL     1       3.304   5.233  20.536  0.00  0.00    +0.000 HD
BRANCH  25  29
ATOM     29  C   UNL     1       5.165   3.953  18.730  0.00  0.00    +0.000 C 
ATOM     30  C   UNL     1       5.834   4.262  17.361  0.00  0.00    +0.000 C 
ATOM     31  C   UNL     1       6.942   5.004  18.135  0.00  0.00    +0.000 C 
ATOM     32  C   UNL     1       5.934   5.193  19.283  0.00  0.00    +0.000 C 
ENDBRANCH  25  29
ENDBRANCH  19  25
ENDBRANCH   1  19
TORSDOF 5
ENDMDL
MODEL 4
REMARK VINA RESULT:      -8.8      2.283      3.850
REMARK  Name = 
REMARK  5 active torsions:
REMARK  status: ('A' for Active; 'I' for Inactive)
REMARK    1  A    between atoms: C_6  and  C_7
REMARK    2  A    between atoms: C_6  and  C_25
REMARK    3  A    between atoms: C_7  and  N_8
REMARK    4  A    between atoms: C_9  and  C_11
REMARK    5  A    between atoms: N_14  and  C_15
REMARK                            x       y       z     vdW  Elec       q    Type
REMARK                         _______ _______ _______ _____ _____    ______ ____
ROOT
ATOM      1  N   UNL     1       2.367   5.952  18.103  0.00  0.00    +0.000 N 
ATOM      2  C   UNL     1       3.007   7.160  17.925  0.00  0.00    +0.000 C 
ATOM      3  O   UNL     1       4.120   7.265  17.418  0.00  0.00    +0.000 OA
ATOM      4  H   UNL     1       1.438   5.984  18.516  0.00  0.00    +0.000 HD
ENDROOT
BRANCH   2   5
ATOM      5  C   UNL     1       2.232   8.312  18.372  0.00  0.00    +0.000 A 
ATOM      6  C   UNL     1       1.898   9.458  17.633  0.00  0.00    +0.000 A 
ATOM      7  N   UNL     1       1.133  10.274  18.360  0.00  0.00    +0.000 NA
ATOM      8  N   UNL     1       1.040   9.606  19.536  0.00  0.00    +0.000 N 
ATOM      9  N   UNL     1       1.699   8.417  19.607  0.00  0.00    +0.000 NA
BRANCH   8  10
ATOM     10  C   UNL     1       0.280  10.105  20.624  0.00  0.00    +0.000 A 
ATOM     11  C   UNL     1      -0.594  11.187  20.436  0.00  0.00    +0.000 A 
ATOM     12  C   UNL     1      -1.344  11.657  21.512  0.00  0.00    +0.000 A 
ATOM     13  F   UNL     1      -2.192  12.676  21.320  0.00  0.00    +0.000 F 
ATOM     14  C   UNL     1      -1.223  11.079  22.769  0.00  0.00    +0.000 A 
ATOM     15  F   UNL     1      -1.943  11.545  23.799  0.00  0.00    +0.000 F 
ATOM     16  C   UNL     1      -0.352  10.014  22.953  0.00  0.00    +0.000 A 
ATOM     17  F   UNL     1      -0.221   9.452  24.162  0.00  0.00    +0.000 F 
ATOM     18  C   UNL     1       0.397   9.513  21.890  0.00  0.00    +0.000 A 
ENDBRANCH   8  10
ENDBRANCH   2   5
BRANCH   1  19
ATOM     19  C   UNL     1       2.960   4.687  17.704  0.00  0.00    +0.000 C 
BRANCH  19  25
ATOM     20  O   UNL     1       2.216   3.368  22.021  0.00  0.00    +0.000 OA
ATOM     21  C   UNL     1       2.635   3.287  20.881  0.00  0.00    +0.000 C 
ATOM     22  N   UNL     1       2.598   2.187  20.095  0.00  0.00    +0.000 N 
ATOM     23  C   UNL     1       3.117   2.449  18.867  0.00  0.00    +0.000 C 
ATOM     24  O   UNL     1       3.181   1.649  17.943  0.00  0.00    +0.000 OA
ATOM     25  C   UNL     1       3.625   3.894  18.846  0.00  0.00    +0.000 C 
ATOM     26  N   UNL     1       3.223   4.307  20.174  0.00  0.00    +0.000 N 
ATOM     27  H   UNL     1       2.198   1.308  20.380  0.00  0.00    +0.000 HD
ATOM     28  H   UNL     1       3.300   5.244  20.556  0.00  0.00    +0.000 HD
BRANCH  25  29
ATOM     29  C   UNL     1       5.151   3.957  18.744  0.00  0.00    +0.000 C 
ATOM     30  C   UNL     1       5.814   4.261  17.371  0.00  0.00    +0.000 C 
ATOM     31  C   UNL     1       6.926   5.005  18.137  0.00  0.00    +0.000 C 
ATOM     32  C   UNL     1       5.924   5.200  19.289  0.00  0.00    +0.000 C 
ENDBRANCH  25  29
ENDBRANCH  19  25
ENDBRANCH   1  19
TORSDOF 5
ENDMDL
MODEL 5
REMARK VINA RESULT:      -8.7      1.662      2.656
REMARK  Name = 
REMARK  5 active torsions:
REMARK  status: ('A' for Active; 'I' for Inactive)
REMARK    1  A    between atoms: C_6  and  C_7
REMARK    2  A    between atoms: C_6  and  C_25
REMARK    3  A    between atoms: C_7  and  N_8
REMARK    4  A    between atoms: C_9  and  C_11
REMARK    5  A    between atoms: N_14  and  C_15
REMARK                            x       y       z     vdW  Elec       q    Type
REMARK                         _______ _______ _______ _____ _____    ______ ____
ROOT
ATOM      1  N   UNL     1       4.373   4.607  17.497  0.00  0.00    +0.000 N 
ATOM      2  C   UNL     1       4.330   4.412  18.861  0.00  0.00    +0.000 C 
ATOM      3  O   UNL     1       5.111   3.681  19.463  0.00  0.00    +0.000 OA
ATOM      4  H   UNL     1       3.689   5.250  17.105  0.00  0.00    +0.000 HD
ENDROOT
BRANCH   2   5
ATOM      5  C   UNL     1       3.283   5.172  19.535  0.00  0.00    +0.000 A 
ATOM      6  C   UNL     1       2.358   4.703  20.481  0.00  0.00    +0.000 A 
ATOM      7  N   UNL     1       1.589   5.703  20.916  0.00  0.00    +0.000 NA
ATOM      8  N   UNL     1       2.057   6.755  20.200  0.00  0.00    +0.000 N 
ATOM      9  N   UNL     1       3.075   6.490  19.335  0.00  0.00    +0.000 NA
BRANCH   8  10
ATOM     10  C   UNL     1       1.534   8.063  20.360  0.00  0.00    +0.000 A 
ATOM     11  C   UNL     1       1.458   8.932  19.260  0.00  0.00    +0.000 A 
ATOM     12  C   UNL     1       0.929  10.209  19.432  0.00  0.00    +0.000 A 
ATOM     13  F   UNL     1       0.839  11.026  18.373  0.00  0.00    +0.000 F 
ATOM     14  C   UNL     1       0.491  10.636  20.679  0.00  0.00    +0.000 A 
ATOM     15  F   UNL     1      -0.008  11.870  20.833  0.00  0.00    +0.000 F 
ATOM     16  C   UNL     1       0.575   9.777  21.766  0.00  0.00    +0.000 A 
ATOM     17  F   UNL     1       0.163  10.180  22.976  0.00  0.00    +0.000 F 
ATOM     18  C   UNL     1       1.084   8.488  21.619  0.00  0.00    +0.000 A 
ENDBRANCH   8  10
ENDBRANCH   2   5
BRANCH   1  19
ATOM     19  C   UNL     1       5.356   3.959  16.646  0.00  0.00    +0.000 C 
BRANCH  19  25
ATOM     20  O   UNL     1       6.899   8.245  17.069  0.00  0.00    +0.000 OA
ATOM     21  C   UNL     1       6.969   7.036  16.951  0.00  0.00    +0.000 C 
ATOM     22  N   UNL     1       7.817   6.218  17.616  0.00  0.00    +0.000 N 
ATOM     23  C   UNL     1       7.607   4.920  17.276  0.00  0.00    +0.000 C 
ATOM     24  O   UNL     1       8.207   3.962  17.746  0.00  0.00    +0.000 OA
ATOM     25  C   UNL     1       6.521   4.863  16.197  0.00  0.00    +0.000 C 
ATOM     26  N   UNL     1       6.191   6.270  16.118  0.00  0.00    +0.000 N 
ATOM     27  H   UNL     1       8.481   6.539  18.300  0.00  0.00    +0.000 HD
ATOM     28  H   UNL     1       5.442   6.677  15.566  0.00  0.00    +0.000 HD
BRANCH  25  29
ATOM     29  C   UNL     1       7.084   4.407  14.849  0.00  0.00    +0.000 C 
ATOM     30  C   UNL     1       6.116   3.865  13.760  0.00  0.00    +0.000 C 
ATOM     31  C   UNL     1       7.048   4.489  12.702  0.00  0.00    +0.000 C 
ATOM     32  C   UNL     1       7.539   5.460  13.790  0.00  0.00    +0.000 C 
ENDBRANCH  25  29
ENDBRANCH  19  25
ENDBRANCH   1  19
TORSDOF 5
ENDMDL
MODEL 6
REMARK VINA RESULT:      -8.7      1.650      2.264
REMARK  Name = 
REMARK  5 active torsions:
REMARK  status: ('A' for Active; 'I' for Inactive)
REMARK    1  A    between atoms: C_6  and  C_7
REMARK    2  A    between atoms: C_6  and  C_25
REMARK    3  A    between atoms: C_7  and  N_8
REMARK    4  A    between atoms: C_9  and  C_11
REMARK    5  A    between atoms: N_14  and  C_15
REMARK                            x       y       z     vdW  Elec       q    Type
REMARK                         _______ _______ _______ _____ _____    ______ ____
ROOT
ATOM      1  N   UNL     1       4.331   4.624  17.546  0.00  0.00    +0.000 N 
ATOM      2  C   UNL     1       4.263   4.390  18.903  0.00  0.00    +0.000 C 
ATOM      3  O   UNL     1       5.007   3.610  19.491  0.00  0.00    +0.000 OA
ATOM      4  H   UNL     1       3.678   5.305  17.167  0.00  0.00    +0.000 HD
ENDROOT
BRANCH   2   5
ATOM      5  C   UNL     1       3.240   5.171  19.588  0.00  0.00    +0.000 A 
ATOM      6  C   UNL     1       2.356   4.735  20.588  0.00  0.00    +0.000 A 
ATOM      7  N   UNL     1       1.599   5.747  21.014  0.00  0.00    +0.000 NA
ATOM      8  N   UNL     1       2.033   6.774  20.241  0.00  0.00    +0.000 N 
ATOM      9  N   UNL     1       3.017   6.480  19.348  0.00  0.00    +0.000 NA
BRANCH   8  10
ATOM     10  C   UNL     1       1.509   8.084  20.372  0.00  0.00    +0.000 A 
ATOM     11  C   UNL     1       1.010   8.524  21.608  0.00  0.00    +0.000 A 
ATOM     12  C   UNL     1       0.511   9.819  21.723  0.00  0.00    +0.000 A 
ATOM     13  F   UNL     1       0.055  10.240  22.912  0.00  0.00    +0.000 F 
ATOM     14  C   UNL     1       0.488  10.673  20.628  0.00  0.00    +0.000 A 
ATOM     15  F   UNL     1      -0.003  11.914  20.749  0.00  0.00    +0.000 F 
ATOM     16  C   UNL     1       0.975  10.232  19.405  0.00  0.00    +0.000 A 
ATOM     17  F   UNL     1       0.952  11.043  18.339  0.00  0.00    +0.000 F 
ATOM     18  C   UNL     1       1.496   8.947  19.266  0.00  0.00    +0.000 A 
ENDBRANCH   8  10
ENDBRANCH   2   5
BRANCH   1  19
ATOM     19  C   UNL     1       5.297   3.962  16.686  0.00  0.00    +0.000 C 
BRANCH  19  25
ATOM     20  O   UNL     1       6.898   8.229  17.088  0.00  0.00    +0.000 OA
ATOM     21  C   UNL     1       6.952   7.019  16.979  0.00  0.00    +0.000 C 
ATOM     22  N   UNL     1       7.787   6.193  17.650  0.00  0.00    +0.000 N 
ATOM     23  C   UNL     1       7.559   4.895  17.317  0.00  0.00    +0.000 C 
ATOM     24  O   UNL     1       8.145   3.932  17.794  0.00  0.00    +0.000 OA
ATOM     25  C   UNL     1       6.476   4.847  16.235  0.00  0.00    +0.000 C 
ATOM     26  N   UNL     1       6.165   6.259  16.147  0.00  0.00    +0.000 N 
ATOM     27  H   UNL     1       8.453   6.508  18.335  0.00  0.00    +0.000 HD
ATOM     28  H   UNL     1       5.424   6.673  15.591  0.00  0.00    +0.000 HD
BRANCH  25  29
ATOM     29  C   UNL     1       7.037   4.375  14.891  0.00  0.00    +0.000 C 
ATOM     30  C   UNL     1       6.064   3.842  13.802  0.00  0.00    +0.000 C 
ATOM     31  C   UNL     1       7.007   4.447  12.744  0.00  0.00    +0.000 C 
ATOM     32  C   UNL     1       7.510   5.417  13.829  0.00  0.00    +0.000 C 
ENDBRANCH  25  29
ENDBRANCH  19  25
ENDBRANCH   1  19
TORSDOF 5
ENDMDL
MODEL 7
REMARK VINA RESULT:      -8.7      1.603      2.781
REMARK  Name = 
REMARK  5 active torsions:
REMARK  status: ('A' for Active; 'I' for Inactive)
REMARK    1  A    between atoms: C_6  and  C_7
REMARK    2  A    between atoms: C_6  and  C_25
REMARK    3  A    between atoms: C_7  and  N_8
REMARK    4  A    between atoms: C_9  and  C_11
REMARK    5  A    between atoms: N_14  and  C_15
REMARK                            x       y       z     vdW  Elec       q    Type
REMARK                         _______ _______ _______ _____ _____    ______ ____
ROOT
ATOM      1  N   UNL     1       4.261   6.178  18.232  0.00  0.00    +0.000 N 
ATOM      2  C   UNL     1       2.886   6.192  18.134  0.00  0.00    +0.000 C 
ATOM      3  O   UNL     1       2.226   5.220  17.778  0.00  0.00    +0.000 OA
ATOM      4  H   UNL     1       4.704   7.035  18.556  0.00  0.00    +0.000 HD
ENDROOT
BRANCH   2   5
ATOM      5  C   UNL     1       2.278   7.462  18.513  0.00  0.00    +0.000 A 
ATOM      6  C   UNL     1       2.146   8.618  17.727  0.00  0.00    +0.000 A 
ATOM      7  N   UNL     1       1.486   9.564  18.397  0.00  0.00    +0.000 NA
ATOM      8  N   UNL     1       1.253   8.961  19.588  0.00  0.00    +0.000 N 
ATOM      9  N   UNL     1       1.723   7.690  19.722  0.00  0.00    +0.000 NA
BRANCH   8  10
ATOM     10  C   UNL     1       0.538   9.606  20.629  0.00  0.00    +0.000 A 
ATOM     11  C   UNL     1       0.632   9.134  21.947  0.00  0.00    +0.000 A 
ATOM     12  C   UNL     1      -0.066   9.788  22.960  0.00  0.00    +0.000 A 
ATOM     13  F   UNL     1       0.045   9.345  24.220  0.00  0.00    +0.000 F 
ATOM     14  C   UNL     1      -0.863  10.890  22.677  0.00  0.00    +0.000 A 
ATOM     15  F   UNL     1      -1.537  11.505  23.659  0.00  0.00    +0.000 F 
ATOM     16  C   UNL     1      -0.960  11.349  21.371  0.00  0.00    +0.000 A 
ATOM     17  F   UNL     1      -1.732  12.406  21.085  0.00  0.00    +0.000 F 
ATOM     18  C   UNL     1      -0.259  10.724  20.341  0.00  0.00    +0.000 A 
ENDBRANCH   8  10
ENDBRANCH   2   5
BRANCH   1  19
ATOM     19  C   UNL     1       5.055   5.002  17.921  0.00  0.00    +0.000 C 
BRANCH  19  25
ATOM     20  O   UNL     1       6.362   3.210  13.920  0.00  0.00    +0.000 OA
ATOM     21  C   UNL     1       6.160   4.082  14.743  0.00  0.00    +0.000 C 
ATOM     22  N   UNL     1       5.619   5.298  14.501  0.00  0.00    +0.000 N 
ATOM     23  C   UNL     1       5.500   6.015  15.649  0.00  0.00    +0.000 C 
ATOM     24  O   UNL     1       5.015   7.136  15.733  0.00  0.00    +0.000 OA
ATOM     25  C   UNL     1       6.096   5.201  16.801  0.00  0.00    +0.000 C 
ATOM     26  N   UNL     1       6.442   3.992  16.084  0.00  0.00    +0.000 N 
ATOM     27  H   UNL     1       5.311   5.602  13.592  0.00  0.00    +0.000 HD
ATOM     28  H   UNL     1       6.802   3.137  16.496  0.00  0.00    +0.000 HD
BRANCH  25  29
ATOM     29  C   UNL     1       7.375   5.841  17.347  0.00  0.00    +0.000 C 
ATOM     30  C   UNL     1       7.469   7.389  17.456  0.00  0.00    +0.000 C 
ATOM     31  C   UNL     1       8.333   7.191  18.717  0.00  0.00    +0.000 C 
ATOM     32  C   UNL     1       7.680   5.806  18.877  0.00  0.00    +0.000 C 
ENDBRANCH  25  29
ENDBRANCH  19  25
ENDBRANCH   1  19
TORSDOF 5
ENDMDL
MODEL 8
REMARK VINA RESULT:      -8.6      1.616      3.073
REMARK  Name = 
REMARK  5 active torsions:
REMARK  status: ('A' for Active; 'I' for Inactive)
REMARK    1  A    between atoms: C_6  and  C_7
REMARK    2  A    between atoms: C_6  and  C_25
REMARK    3  A    between atoms: C_7  and  N_8
REMARK    4  A    between atoms: C_9  and  C_11
REMARK    5  A    between atoms: N_14  and  C_15
REMARK                            x       y       z     vdW  Elec       q    Type
REMARK                         _______ _______ _______ _____ _____    ______ ____
ROOT
ATOM      1  N   UNL     1       3.576   5.797  17.684  0.00  0.00    +0.000 N 
ATOM      2  C   UNL     1       2.999   6.102  18.898  0.00  0.00    +0.000 C 
ATOM      3  O   UNL     1       3.028   5.348  19.867  0.00  0.00    +0.000 OA
ATOM      4  H   UNL     1       3.508   6.504  16.955  0.00  0.00    +0.000 HD
ENDROOT
BRANCH   2   5
ATOM      5  C   UNL     1       2.367   7.416  18.940  0.00  0.00    +0.000 A 
ATOM      6  C   UNL     1       2.117   8.281  17.863  0.00  0.00    +0.000 A 
ATOM      7  N   UNL     1       1.473   9.372  18.282  0.00  0.00    +0.000 NA
ATOM      8  N   UNL     1       1.369   9.148  19.615  0.00  0.00    +0.000 N 
ATOM      9  N   UNL     1       1.906   7.984  20.074  0.00  0.00    +0.000 NA
BRANCH   8  10
ATOM     10  C   UNL     1       0.715  10.062  20.480  0.00  0.00    +0.000 A 
ATOM     11  C   UNL     1       0.727  11.435  20.193  0.00  0.00    +0.000 A 
ATOM     12  C   UNL     1       0.069  12.319  21.046  0.00  0.00    +0.000 A 
ATOM     13  F   UNL     1       0.066  13.627  20.755  0.00  0.00    +0.000 F 
ATOM     14  C   UNL     1      -0.583  11.857  22.183  0.00  0.00    +0.000 A 
ATOM     15  F   UNL     1      -1.205  12.718  23.000  0.00  0.00    +0.000 F 
ATOM     16  C   UNL     1      -0.586  10.499  22.467  0.00  0.00    +0.000 A 
ATOM     17  F   UNL     1      -1.205  10.042  23.564  0.00  0.00    +0.000 F 
ATOM     18  C   UNL     1       0.050   9.591  21.622  0.00  0.00    +0.000 A 
ENDBRANCH   8  10
ENDBRANCH   2   5
BRANCH   1  19
ATOM     19  C   UNL     1       4.274   4.547  17.442  0.00  0.00    +0.000 C 
BRANCH  19  25
ATOM     20  O   UNL     1       6.381   3.393  13.549  0.00  0.00    +0.000 OA
ATOM     21  C   UNL     1       6.111   4.082  14.514  0.00  0.00    +0.000 C 
ATOM     22  N   UNL     1       5.931   5.423  14.512  0.00  0.00    +0.000 N 
ATOM     23  C   UNL     1       5.605   5.872  15.752  0.00  0.00    +0.000 C 
ATOM     24  O   UNL     1       5.354   7.036  16.037  0.00  0.00    +0.000 OA
ATOM     25  C   UNL     1       5.632   4.691  16.726  0.00  0.00    +0.000 C 
ATOM     26  N   UNL     1       5.934   3.623  15.797  0.00  0.00    +0.000 N 
ATOM     27  H   UNL     1       5.992   5.994  13.686  0.00  0.00    +0.000 HD
ATOM     28  H   UNL     1       5.966   2.632  16.016  0.00  0.00    +0.000 HD
BRANCH  25  29
ATOM     29  C   UNL     1       6.776   4.812  17.735  0.00  0.00    +0.000 C 
ATOM     30  C   UNL     1       7.574   6.143  17.830  0.00  0.00    +0.000 C 
ATOM     31  C   UNL     1       7.725   5.878  19.341  0.00  0.00    +0.000 C 
ATOM     32  C   UNL     1       6.468   4.995  19.255  0.00  0.00    +0.000 C 
ENDBRANCH  25  29
ENDBRANCH  19  25
ENDBRANCH   1  19
TORSDOF 5
ENDMDL
MODEL 9
REMARK VINA RESULT:      -8.5      5.213      8.157
REMARK  Name = 
REMARK  5 active torsions:
REMARK  status: ('A' for Active; 'I' for Inactive)
REMARK    1  A    between atoms: C_6  and  C_7
REMARK    2  A    between atoms: C_6  and  C_25
REMARK    3  A    between atoms: C_7  and  N_8
REMARK    4  A    between atoms: C_9  and  C_11
REMARK    5  A    between atoms: N_14  and  C_15
REMARK                            x       y       z     vdW  Elec       q    Type
REMARK                         _______ _______ _______ _____ _____    ______ ____
ROOT
ATOM      1  N   UNL     1       5.901   5.746  18.961  0.00  0.00    +0.000 N 
ATOM      2  C   UNL     1       7.257   5.814  18.726  0.00  0.00    +0.000 C 
ATOM      3  O   UNL     1       8.005   4.843  18.808  0.00  0.00    +0.000 OA
ATOM      4  H   UNL     1       5.373   6.609  18.845  0.00  0.00    +0.000 HD
ENDROOT
BRANCH   2   5
ATOM      5  C   UNL     1       7.727   7.141  18.347  0.00  0.00    +0.000 A 
ATOM      6  C   UNL     1       7.418   7.858  17.180  0.00  0.00    +0.000 A 
ATOM      7  N   UNL     1       7.992   9.062  17.207  0.00  0.00    +0.000 NA
ATOM      8  N   UNL     1       8.657   9.035  18.388  0.00  0.00    +0.000 N 
ATOM      9  N   UNL     1       8.545   7.889  19.116  0.00  0.00    +0.000 NA
BRANCH   8  10
ATOM     10  C   UNL     1       9.407  10.144  18.852  0.00  0.00    +0.000 A 
ATOM     11  C   UNL     1      10.262  10.833  17.977  0.00  0.00    +0.000 A 
ATOM     12  C   UNL     1      10.982  11.930  18.446  0.00  0.00    +0.000 A 
ATOM     13  F   UNL     1      11.780  12.596  17.600  0.00  0.00    +0.000 F 
ATOM     14  C   UNL     1      10.876  12.338  19.769  0.00  0.00    +0.000 A 
ATOM     15  F   UNL     1      11.581  13.389  20.210  0.00  0.00    +0.000 F 
ATOM     16  C   UNL     1      10.036  11.649  20.633  0.00  0.00    +0.000 A 
ATOM     17  F   UNL     1       9.930  12.029  21.914  0.00  0.00    +0.000 F 
ATOM     18  C   UNL     1       9.290  10.560  20.187  0.00  0.00    +0.000 A 
ENDBRANCH   8  10
ENDBRANCH   2   5
BRANCH   1  19
ATOM     19  C   UNL     1       5.232   4.510  19.329  0.00  0.00    +0.000 C 
BRANCH  19  25
ATOM     20  O   UNL     1       1.901   7.636  19.590  0.00  0.00    +0.000 OA
ATOM     21  C   UNL     1       2.422   6.577  19.296  0.00  0.00    +0.000 C 
ATOM     22  N   UNL     1       2.293   5.925  18.118  0.00  0.00    +0.000 N 
ATOM     23  C   UNL     1       3.037   4.788  18.107  0.00  0.00    +0.000 C 
ATOM     24  O   UNL     1       3.136   4.019  17.160  0.00  0.00    +0.000 OA
ATOM     25  C   UNL     1       3.701   4.622  19.477  0.00  0.00    +0.000 C 
ATOM     26  N   UNL     1       3.249   5.842  20.111  0.00  0.00    +0.000 N 
ATOM     27  H   UNL     1       1.749   6.270  17.345  0.00  0.00    +0.000 HD
ATOM     28  H   UNL     1       3.529   6.178  21.026  0.00  0.00    +0.000 HD
BRANCH  25  29
ATOM     29  C   UNL     1       3.133   3.423  20.241  0.00  0.00    +0.000 C 
ATOM     30  C   UNL     1       2.465   3.647  21.627  0.00  0.00    +0.000 C 
ATOM     31  C   UNL     1       1.500   2.495  21.283  0.00  0.00    +0.000 C 
ATOM     32  C   UNL     1       1.784   2.775  19.797  0.00  0.00    +0.000 C 
ENDBRANCH  25  29
ENDBRANCH  19  25
ENDBRANCH   1  19
TORSDOF 5
ENDMDL
