MODEL 1
REMARK VINA RESULT:      -7.4      0.000      0.000
REMARK  Name = 
REMARK  8 active torsions:
REMARK  status: ('A' for Active; 'I' for Inactive)
REMARK    1  A    between atoms: C_1  and  C_2
REMARK    2  A    between atoms: C_2  and  C_3
REMARK    3  A    between atoms: C_3  and  C_4
REMARK    4  A    between atoms: N_6  and  C_7
REMARK    5  A    between atoms: N_13  and  C_14
REMARK    6  A    between atoms: C_14  and  C_15
REMARK    7  A    between atoms: C_19  and  C_20
REMARK    8  A    between atoms: C_21  and  C_22
REMARK                            x       y       z     vdW  Elec       q    Type
REMARK                         _______ _______ _______ _____ _____    ______ ____
ROOT
ATOM      1  C   UNL     1      -2.339  10.787  18.267  0.00  0.00    +0.000 A 
ATOM      2  N   UNL     1      -2.858  11.893  18.808  0.00  0.00    +0.000 NA
ATOM      3  N   UNL     1      -1.778  12.566  19.268  0.00  0.00    +0.000 N 
ATOM      4  C   UNL     1      -2.031  13.809  19.955  0.00  0.00    +0.000 C 
ATOM      5  C   UNL     1      -0.576  11.944  19.015  0.00  0.00    +0.000 A 
ATOM      6  C   UNL     1       0.778  12.213  19.266  0.00  0.00    +0.000 A 
ATOM      7  N   UNL     1       1.219  13.374  19.882  0.00  0.00    +0.000 N 
ATOM      8  C   UNL     1       2.441  13.302  20.707  0.00  0.00    +0.000 C 
ATOM      9  C   UNL     1       3.608  14.170  20.177  0.00  0.00    +0.000 C 
ATOM     10  N   UNL     1       3.239  15.542  19.746  0.00  0.00    +0.000 NA
ATOM     11  C   UNL     1       2.203  15.380  18.708  0.00  0.00    +0.000 C 
ATOM     12  C   UNL     1       0.944  14.639  19.181  0.00  0.00    +0.000 C 
ATOM     13  N   UNL     1       1.659  11.236  18.902  0.00  0.00    +0.000 NA
ATOM     14  C   UNL     1       1.210  10.117  18.297  0.00  0.00    +0.000 A 
ATOM     15  N   UNL     1      -0.058   9.823  18.004  0.00  0.00    +0.000 NA
ATOM     16  C   UNL     1      -0.936  10.762  18.387  0.00  0.00    +0.000 A 
ENDROOT
BRANCH  10  17
ATOM     17  C   UNL     1       2.805  16.356  20.896  0.00  0.00    +0.000 C 
ATOM     18  C   UNL     1       2.496  17.812  20.555  0.00  0.00    +0.000 C 
ENDBRANCH  10  17
BRANCH  14  19
ATOM     19  C   UNL     1       2.150   9.071  17.875  0.00  0.00    +0.000 C 
ATOM     20  C   UNL     1       2.202   7.790  18.274  0.00  0.00    +0.000 C 
BRANCH  20  21
ATOM     21  C   UNL     1       3.226   6.844  17.787  0.00  0.00    +0.000 A 
ATOM     22  C   UNL     1       3.007   5.469  17.939  0.00  0.00    +0.000 A 
ATOM     23  C   UNL     1       3.954   4.540  17.491  0.00  0.00    +0.000 A 
ATOM     24  C   UNL     1       5.127   4.973  16.875  0.00  0.00    +0.000 A 
ATOM     25  C   UNL     1       5.350   6.335  16.700  0.00  0.00    +0.000 A 
ATOM     26  C   UNL     1       4.404   7.263  17.146  0.00  0.00    +0.000 A 
ENDBRANCH  20  21
ENDBRANCH  14  19
BRANCH   1  27
ATOM     27  C   UNL     1      -3.218   9.762  17.639  0.00  0.00    +0.000 C 
BRANCH  27  29
ATOM     28  C   UNL     1      -3.329  10.864  15.378  0.00  0.00    +0.000 C 
ATOM     29  C   UNL     1      -2.939   9.611  16.144  0.00  0.00    +0.000 C 
ENDBRANCH  27  29
ENDBRANCH   1  27
TORSDOF 5
ENDMDL
MODEL 2
REMARK VINA RESULT:      -7.1      0.540      1.121
REMARK  Name = 
REMARK  8 active torsions:
REMARK  status: ('A' for Active; 'I' for Inactive)
REMARK    1  A    between atoms: C_1  and  C_2
REMARK    2  A    between atoms: C_2  and  C_3
REMARK    3  A    between atoms: C_3  and  C_4
REMARK    4  A    between atoms: N_6  and  C_7
REMARK    5  A    between atoms: N_13  and  C_14
REMARK    6  A    between atoms: C_14  and  C_15
REMARK    7  A    between atoms: C_19  and  C_20
REMARK    8  A    between atoms: C_21  and  C_22
REMARK                            x       y       z     vdW  Elec       q    Type
REMARK                         _______ _______ _______ _____ _____    ______ ____
ROOT
ATOM      1  C   UNL     1      -2.656  11.163  18.369  0.00  0.00    +0.000 A 
ATOM      2  N   UNL     1      -3.091  12.284  18.951  0.00  0.00    +0.000 NA
ATOM      3  N   UNL     1      -1.963  12.862  19.426  0.00  0.00    +0.000 N 
ATOM      4  C   UNL     1      -2.123  14.095  20.156  0.00  0.00    +0.000 C 
ATOM      5  C   UNL     1      -0.810  12.164  19.142  0.00  0.00    +0.000 A 
ATOM      6  C   UNL     1       0.560  12.326  19.391  0.00  0.00    +0.000 A 
ATOM      7  N   UNL     1       1.087  13.431  20.043  0.00  0.00    +0.000 N 
ATOM      8  C   UNL     1       2.305  13.243  20.856  0.00  0.00    +0.000 C 
ATOM      9  C   UNL     1       3.529  14.043  20.346  0.00  0.00    +0.000 C 
ATOM     10  N   UNL     1       3.257  15.453  19.965  0.00  0.00    +0.000 NA
ATOM     11  C   UNL     1       2.207  15.401  18.931  0.00  0.00    +0.000 C 
ATOM     12  C   UNL     1       0.900  14.736  19.388  0.00  0.00    +0.000 C 
ATOM     13  N   UNL     1       1.368  11.302  18.988  0.00  0.00    +0.000 NA
ATOM     14  C   UNL     1       0.836  10.239  18.348  0.00  0.00    +0.000 A 
ATOM     15  N   UNL     1      -0.451  10.048  18.055  0.00  0.00    +0.000 NA
ATOM     16  C   UNL     1      -1.257  11.033  18.477  0.00  0.00    +0.000 A 
ENDROOT
BRANCH  10  17
ATOM     17  C   UNL     1       2.889  16.255  21.146  0.00  0.00    +0.000 C 
ATOM     18  C   UNL     1       4.009  16.415  22.171  0.00  0.00    +0.000 C 
ENDBRANCH  10  17
BRANCH  14  19
ATOM     19  C   UNL     1       1.696   9.144  17.883  0.00  0.00    +0.000 C 
ATOM     20  C   UNL     1       2.066   8.039  18.548  0.00  0.00    +0.000 C 
BRANCH  20  21
ATOM     21  C   UNL     1       2.966   7.022  17.967  0.00  0.00    +0.000 A 
ATOM     22  C   UNL     1       4.148   7.439  17.342  0.00  0.00    +0.000 A 
ATOM     23  C   UNL     1       5.027   6.507  16.779  0.00  0.00    +0.000 A 
ATOM     24  C   UNL     1       4.741   5.143  16.843  0.00  0.00    +0.000 A 
ATOM     25  C   UNL     1       3.581   4.712  17.477  0.00  0.00    +0.000 A 
ATOM     26  C   UNL     1       2.703   5.643  18.040  0.00  0.00    +0.000 A 
ENDBRANCH  20  21
ENDBRANCH  14  19
BRANCH   1  27
ATOM     27  C   UNL     1      -3.610  10.226  17.713  0.00  0.00    +0.000 C 
BRANCH  27  29
ATOM     28  C   UNL     1      -2.955  10.412  15.290  0.00  0.00    +0.000 C 
ATOM     29  C   UNL     1      -4.025  10.714  16.325  0.00  0.00    +0.000 C 
ENDBRANCH  27  29
ENDBRANCH   1  27
TORSDOF 5
ENDMDL
MODEL 3
REMARK VINA RESULT:      -6.7      6.680     10.144
REMARK  Name = 
REMARK  8 active torsions:
REMARK  status: ('A' for Active; 'I' for Inactive)
REMARK    1  A    between atoms: C_1  and  C_2
REMARK    2  A    between atoms: C_2  and  C_3
REMARK    3  A    between atoms: C_3  and  C_4
REMARK    4  A    between atoms: N_6  and  C_7
REMARK    5  A    between atoms: N_13  and  C_14
REMARK    6  A    between atoms: C_14  and  C_15
REMARK    7  A    between atoms: C_19  and  C_20
REMARK    8  A    between atoms: C_21  and  C_22
REMARK                            x       y       z     vdW  Elec       q    Type
REMARK                         _______ _______ _______ _____ _____    ______ ____
ROOT
ATOM      1  C   UNL     1       7.194   4.994  14.457  0.00  0.00    +0.000 A 
ATOM      2  N   UNL     1       6.347   3.988  14.225  0.00  0.00    +0.000 NA
ATOM      3  N   UNL     1       5.602   3.924  15.353  0.00  0.00    +0.000 N 
ATOM      4  C   UNL     1       4.606   2.882  15.415  0.00  0.00    +0.000 C 
ATOM      5  C   UNL     1       5.921   4.877  16.293  0.00  0.00    +0.000 A 
ATOM      6  C   UNL     1       5.468   5.231  17.573  0.00  0.00    +0.000 A 
ATOM      7  N   UNL     1       4.407   4.598  18.203  0.00  0.00    +0.000 N 
ATOM      8  C   UNL     1       4.429   4.505  19.676  0.00  0.00    +0.000 C 
ATOM      9  C   UNL     1       3.266   5.256  20.369  0.00  0.00    +0.000 C 
ATOM     10  N   UNL     1       1.925   5.058  19.762  0.00  0.00    +0.000 NA
ATOM     11  C   UNL     1       2.047   5.482  18.355  0.00  0.00    +0.000 C 
ATOM     12  C   UNL     1       3.093   4.700  17.546  0.00  0.00    +0.000 C 
ATOM     13  N   UNL     1       6.162   6.224  18.200  0.00  0.00    +0.000 NA
ATOM     14  C   UNL     1       7.187   6.832  17.567  0.00  0.00    +0.000 A 
ATOM     15  N   UNL     1       7.639   6.561  16.341  0.00  0.00    +0.000 NA
ATOM     16  C   UNL     1       6.985   5.563  15.729  0.00  0.00    +0.000 A 
ENDROOT
BRANCH  10  17
ATOM     17  C   UNL     1       1.475   3.664  19.925  0.00  0.00    +0.000 C 
ATOM     18  C   UNL     1       1.438   3.181  21.373  0.00  0.00    +0.000 C 
ENDBRANCH  10  17
BRANCH  14  19
ATOM     19  C   UNL     1       7.924   7.921  18.218  0.00  0.00    +0.000 C 
ATOM     20  C   UNL     1       8.224   9.133  17.725  0.00  0.00    +0.000 C 
BRANCH  20  21
ATOM     21  C   UNL     1       9.003  10.133  18.484  0.00  0.00    +0.000 A 
ATOM     22  C   UNL     1       9.697  11.127  17.783  0.00  0.00    +0.000 A 
ATOM     23  C   UNL     1      10.447  12.092  18.465  0.00  0.00    +0.000 A 
ATOM     24  C   UNL     1      10.505  12.082  19.858  0.00  0.00    +0.000 A 
ATOM     25  C   UNL     1       9.805  11.112  20.569  0.00  0.00    +0.000 A 
ATOM     26  C   UNL     1       9.055  10.149  19.888  0.00  0.00    +0.000 A 
ENDBRANCH  20  21
ENDBRANCH  14  19
BRANCH   1  27
ATOM     27  C   UNL     1       8.203   5.391  13.436  0.00  0.00    +0.000 C 
BRANCH  27  29
ATOM     28  C   UNL     1       7.285   4.025  11.531  0.00  0.00    +0.000 C 
ATOM     29  C   UNL     1       7.607   5.424  12.029  0.00  0.00    +0.000 C 
ENDBRANCH  27  29
ENDBRANCH   1  27
TORSDOF 5
ENDMDL
MODEL 4
REMARK VINA RESULT:      -6.4      2.877      3.885
REMARK  Name = 
REMARK  8 active torsions:
REMARK  status: ('A' for Active; 'I' for Inactive)
REMARK    1  A    between atoms: C_1  and  C_2
REMARK    2  A    between atoms: C_2  and  C_3
REMARK    3  A    between atoms: C_3  and  C_4
REMARK    4  A    between atoms: N_6  and  C_7
REMARK    5  A    between atoms: N_13  and  C_14
REMARK    6  A    between atoms: C_14  and  C_15
REMARK    7  A    between atoms: C_19  and  C_20
REMARK    8  A    between atoms: C_21  and  C_22
REMARK                            x       y       z     vdW  Elec       q    Type
REMARK                         _______ _______ _______ _____ _____    ______ ____
ROOT
ATOM      1  C   UNL     1      -1.572  12.678  22.849  0.00  0.00    +0.000 A 
ATOM      2  N   UNL     1      -1.475  13.977  23.145  0.00  0.00    +0.000 NA
ATOM      3  N   UNL     1      -0.391  14.389  22.446  0.00  0.00    +0.000 N 
ATOM      4  C   UNL     1      -0.005  15.770  22.600  0.00  0.00    +0.000 C 
ATOM      5  C   UNL     1       0.196  13.403  21.685  0.00  0.00    +0.000 A 
ATOM      6  C   UNL     1       1.291  13.311  20.813  0.00  0.00    +0.000 A 
ATOM      7  N   UNL     1       2.083  14.398  20.475  0.00  0.00    +0.000 N 
ATOM      8  C   UNL     1       3.509  14.153  20.179  0.00  0.00    +0.000 C 
ATOM      9  C   UNL     1       3.916  14.505  18.727  0.00  0.00    +0.000 C 
ATOM     10  N   UNL     1       3.396  15.797  18.211  0.00  0.00    +0.000 NA
ATOM     11  C   UNL     1       1.927  15.722  18.332  0.00  0.00    +0.000 C 
ATOM     12  C   UNL     1       1.420  15.503  19.765  0.00  0.00    +0.000 C 
ATOM     13  N   UNL     1       1.572  12.065  20.333  0.00  0.00    +0.000 NA
ATOM     14  C   UNL     1       0.784  11.022  20.669  0.00  0.00    +0.000 A 
ATOM     15  N   UNL     1      -0.287  11.056  21.464  0.00  0.00    +0.000 NA
ATOM     16  C   UNL     1      -0.551  12.270  21.968  0.00  0.00    +0.000 A 
ENDROOT
BRANCH  10  17
ATOM     17  C   UNL     1       3.994  16.932  18.937  0.00  0.00    +0.000 C 
ATOM     18  C   UNL     1       5.518  16.893  19.016  0.00  0.00    +0.000 C 
ENDBRANCH  10  17
BRANCH  14  19
ATOM     19  C   UNL     1       1.057   9.682  20.137  0.00  0.00    +0.000 C 
ATOM     20  C   UNL     1       1.461   8.589  20.804  0.00  0.00    +0.000 C 
BRANCH  20  21
ATOM     21  C   UNL     1       1.729   7.300  20.136  0.00  0.00    +0.000 A 
ATOM     22  C   UNL     1       1.462   6.110  20.824  0.00  0.00    +0.000 A 
ATOM     23  C   UNL     1       1.703   4.867  20.226  0.00  0.00    +0.000 A 
ATOM     24  C   UNL     1       2.204   4.798  18.927  0.00  0.00    +0.000 A 
ATOM     25  C   UNL     1       2.456   5.972  18.223  0.00  0.00    +0.000 A 
ATOM     26  C   UNL     1       2.215   7.212  18.820  0.00  0.00    +0.000 A 
ENDBRANCH  20  21
ENDBRANCH  14  19
BRANCH   1  27
ATOM     27  C   UNL     1      -2.659  11.844  23.433  0.00  0.00    +0.000 C 
BRANCH  27  29
ATOM     28  C   UNL     1      -4.600  12.366  24.949  0.00  0.00    +0.000 C 
ATOM     29  C   UNL     1      -3.957  12.635  23.600  0.00  0.00    +0.000 C 
ENDBRANCH  27  29
ENDBRANCH   1  27
TORSDOF 5
ENDMDL
MODEL 5
REMARK VINA RESULT:      -6.4      2.507      3.093
REMARK  Name = 
REMARK  8 active torsions:
REMARK  status: ('A' for Active; 'I' for Inactive)
REMARK    1  A    between atoms: C_1  and  C_2
REMARK    2  A    between atoms: C_2  and  C_3
REMARK    3  A    between atoms: C_3  and  C_4
REMARK    4  A    between atoms: N_6  and  C_7
REMARK    5  A    between atoms: N_13  and  C_14
REMARK    6  A    between atoms: C_14  and  C_15
REMARK    7  A    between atoms: C_19  and  C_20
REMARK    8  A    between atoms: C_21  and  C_22
REMARK                            x       y       z     vdW  Elec       q    Type
REMARK                         _______ _______ _______ _____ _____    ______ ____
ROOT
ATOM      1  C   UNL     1      -2.759  10.501  16.331  0.00  0.00    +0.000 A 
ATOM      2  N   UNL     1      -3.791  11.277  16.675  0.00  0.00    +0.000 NA
ATOM      3  N   UNL     1      -3.488  11.682  17.930  0.00  0.00    +0.000 N 
ATOM      4  C   UNL     1      -4.458  12.518  18.595  0.00  0.00    +0.000 C 
ATOM      5  C   UNL     1      -2.279  11.217  18.396  0.00  0.00    +0.000 A 
ATOM      6  C   UNL     1      -1.530  11.342  19.576  0.00  0.00    +0.000 A 
ATOM      7  N   UNL     1      -1.929  12.127  20.647  0.00  0.00    +0.000 N 
ATOM      8  C   UNL     1      -1.538  11.702  22.005  0.00  0.00    +0.000 C 
ATOM      9  C   UNL     1      -0.608  12.703  22.733  0.00  0.00    +0.000 C 
ATOM     10  N   UNL     1      -0.999  14.132  22.627  0.00  0.00    +0.000 NA
ATOM     11  C   UNL     1      -1.055  14.434  21.184  0.00  0.00    +0.000 C 
ATOM     12  C   UNL     1      -2.052  13.573  20.395  0.00  0.00    +0.000 C 
ATOM     13  N   UNL     1      -0.383  10.605  19.638  0.00  0.00    +0.000 NA
ATOM     14  C   UNL     1      -0.010   9.852  18.582  0.00  0.00    +0.000 A 
ATOM     15  N   UNL     1      -0.662   9.721  17.426  0.00  0.00    +0.000 NA
ATOM     16  C   UNL     1      -1.809  10.416  17.368  0.00  0.00    +0.000 A 
ENDROOT
BRANCH  10  17
ATOM     17  C   UNL     1      -2.267  14.383  23.336  0.00  0.00    +0.000 C 
ATOM     18  C   UNL     1      -2.096  14.882  24.769  0.00  0.00    +0.000 C 
ENDBRANCH  10  17
BRANCH  14  19
ATOM     19  C   UNL     1       1.236   9.077  18.625  0.00  0.00    +0.000 C 
ATOM     20  C   UNL     1       1.572   8.004  17.891  0.00  0.00    +0.000 C 
BRANCH  20  21
ATOM     21  C   UNL     1       2.858   7.295  18.057  0.00  0.00    +0.000 A 
ATOM     22  C   UNL     1       2.996   6.374  19.102  0.00  0.00    +0.000 A 
ATOM     23  C   UNL     1       4.198   5.683  19.293  0.00  0.00    +0.000 A 
ATOM     24  C   UNL     1       5.276   5.896  18.434  0.00  0.00    +0.000 A 
ATOM     25  C   UNL     1       5.147   6.794  17.379  0.00  0.00    +0.000 A 
ATOM     26  C   UNL     1       3.946   7.484  17.188  0.00  0.00    +0.000 A 
ENDBRANCH  20  21
ENDBRANCH  14  19
BRANCH   1  27
ATOM     27  C   UNL     1      -2.711   9.847  14.994  0.00  0.00    +0.000 C 
BRANCH  27  29
ATOM     28  C   UNL     1      -3.792   9.767  12.722  0.00  0.00    +0.000 C 
ATOM     29  C   UNL     1      -3.988  10.095  14.192  0.00  0.00    +0.000 C 
ENDBRANCH  27  29
ENDBRANCH   1  27
TORSDOF 5
ENDMDL
MODEL 6
REMARK VINA RESULT:      -6.3      1.447      1.815
REMARK  Name = 
REMARK  8 active torsions:
REMARK  status: ('A' for Active; 'I' for Inactive)
REMARK    1  A    between atoms: C_1  and  C_2
REMARK    2  A    between atoms: C_2  and  C_3
REMARK    3  A    between atoms: C_3  and  C_4
REMARK    4  A    between atoms: N_6  and  C_7
REMARK    5  A    between atoms: N_13  and  C_14
REMARK    6  A    between atoms: C_14  and  C_15
REMARK    7  A    between atoms: C_19  and  C_20
REMARK    8  A    between atoms: C_21  and  C_22
REMARK                            x       y       z     vdW  Elec       q    Type
REMARK                         _______ _______ _______ _____ _____    ______ ____
ROOT
ATOM      1  C   UNL     1      -1.735  12.461  19.231  0.00  0.00    +0.000 A 
ATOM      2  N   UNL     1      -1.916  13.718  19.646  0.00  0.00    +0.000 NA
ATOM      3  N   UNL     1      -0.663  14.228  19.688  0.00  0.00    +0.000 N 
ATOM      4  C   UNL     1      -0.532  15.589  20.150  0.00  0.00    +0.000 C 
ATOM      5  C   UNL     1       0.317  13.350  19.285  0.00  0.00    +0.000 A 
ATOM      6  C   UNL     1       1.712  13.382  19.146  0.00  0.00    +0.000 A 
ATOM      7  N   UNL     1       2.473  14.515  19.391  0.00  0.00    +0.000 N 
ATOM      8  C   UNL     1       3.848  14.334  19.897  0.00  0.00    +0.000 C 
ATOM      9  C   UNL     1       4.944  14.861  18.938  0.00  0.00    +0.000 C 
ATOM     10  N   UNL     1       4.681  16.195  18.340  0.00  0.00    +0.000 NA
ATOM     11  C   UNL     1       3.391  16.080  17.635  0.00  0.00    +0.000 C 
ATOM     12  C   UNL     1       2.211  15.684  18.535  0.00  0.00    +0.000 C 
ATOM     13  N   UNL     1       2.306  12.207  18.787  0.00  0.00    +0.000 NA
ATOM     14  C   UNL     1       1.547  11.117  18.545  0.00  0.00    +0.000 A 
ATOM     15  N   UNL     1       0.218  11.037  18.630  0.00  0.00    +0.000 NA
ATOM     16  C   UNL     1      -0.372  12.179  19.015  0.00  0.00    +0.000 A 
ENDROOT
BRANCH  10  17
ATOM     17  C   UNL     1       4.703  17.248  19.372  0.00  0.00    +0.000 C 
ATOM     18  C   UNL     1       6.086  17.526  19.956  0.00  0.00    +0.000 C 
ENDBRANCH  10  17
BRANCH  14  19
ATOM     19  C   UNL     1       2.169   9.854  18.131  0.00  0.00    +0.000 C 
ATOM     20  C   UNL     1       1.923   8.617  18.590  0.00  0.00    +0.000 C 
BRANCH  20  21
ATOM     21  C   UNL     1       2.648   7.426  18.102  0.00  0.00    +0.000 A 
ATOM     22  C   UNL     1       2.087   6.159  18.304  0.00  0.00    +0.000 A 
ATOM     23  C   UNL     1       2.742   5.006  17.856  0.00  0.00    +0.000 A 
ATOM     24  C   UNL     1       3.964   5.105  17.192  0.00  0.00    +0.000 A 
ATOM     25  C   UNL     1       4.525   6.358  16.966  0.00  0.00    +0.000 A 
ATOM     26  C   UNL     1       3.870   7.510  17.412  0.00  0.00    +0.000 A 
ENDBRANCH  20  21
ENDBRANCH  14  19
BRANCH   1  27
ATOM     27  C   UNL     1      -2.895  11.544  19.053  0.00  0.00    +0.000 C 
BRANCH  27  29
ATOM     28  C   UNL     1      -3.204   9.742  17.322  0.00  0.00    +0.000 C 
ATOM     29  C   UNL     1      -3.158  11.239  17.578  0.00  0.00    +0.000 C 
ENDBRANCH  27  29
ENDBRANCH   1  27
TORSDOF 5
ENDMDL
MODEL 7
REMARK VINA RESULT:      -6.2      2.984      4.074
REMARK  Name = 
REMARK  8 active torsions:
REMARK  status: ('A' for Active; 'I' for Inactive)
REMARK    1  A    between atoms: C_1  and  C_2
REMARK    2  A    between atoms: C_2  and  C_3
REMARK    3  A    between atoms: C_3  and  C_4
REMARK    4  A    between atoms: N_6  and  C_7
REMARK    5  A    between atoms: N_13  and  C_14
REMARK    6  A    between atoms: C_14  and  C_15
REMARK    7  A    between atoms: C_19  and  C_20
REMARK    8  A    between atoms: C_21  and  C_22
REMARK                            x       y       z     vdW  Elec       q    Type
REMARK                         _______ _______ _______ _____ _____    ______ ____
ROOT
ATOM      1  C   UNL     1      -1.988  12.906  23.010  0.00  0.00    +0.000 A 
ATOM      2  N   UNL     1      -1.968  14.234  23.144  0.00  0.00    +0.000 NA
ATOM      3  N   UNL     1      -0.820  14.605  22.530  0.00  0.00    +0.000 N 
ATOM      4  C   UNL     1      -0.499  16.011  22.548  0.00  0.00    +0.000 C 
ATOM      5  C   UNL     1      -0.114  13.560  21.978  0.00  0.00    +0.000 A 
ATOM      6  C   UNL     1       1.082  13.410  21.260  0.00  0.00    +0.000 A 
ATOM      7  N   UNL     1       1.876  14.481  20.880  0.00  0.00    +0.000 N 
ATOM      8  C   UNL     1       3.333  14.268  20.787  0.00  0.00    +0.000 C 
ATOM      9  C   UNL     1       3.905  14.453  19.360  0.00  0.00    +0.000 C 
ATOM     10  N   UNL     1       3.412  15.645  18.624  0.00  0.00    +0.000 NA
ATOM     11  C   UNL     1       1.943  15.519  18.579  0.00  0.00    +0.000 C 
ATOM     12  C   UNL     1       1.271  15.458  19.958  0.00  0.00    +0.000 C 
ATOM     13  N   UNL     1       1.457  12.128  20.982  0.00  0.00    +0.000 NA
ATOM     14  C   UNL     1       0.666  11.100  21.355  0.00  0.00    +0.000 A 
ATOM     15  N   UNL     1      -0.494  11.183  22.008  0.00  0.00    +0.000 NA
ATOM     16  C   UNL     1      -0.856  12.438  22.316  0.00  0.00    +0.000 A 
ENDROOT
BRANCH  10  17
ATOM     17  C   UNL     1       3.882  16.888  19.261  0.00  0.00    +0.000 C 
ATOM     18  C   UNL     1       5.398  17.066  19.248  0.00  0.00    +0.000 C 
ENDBRANCH  10  17
BRANCH  14  19
ATOM     19  C   UNL     1       1.044   9.718  21.038  0.00  0.00    +0.000 C 
ATOM     20  C   UNL     1       1.438   9.214  19.857  0.00  0.00    +0.000 C 
BRANCH  20  21
ATOM     21  C   UNL     1       1.763   7.786  19.668  0.00  0.00    +0.000 A 
ATOM     22  C   UNL     1       2.328   7.373  18.455  0.00  0.00    +0.000 A 
ATOM     23  C   UNL     1       2.650   6.029  18.236  0.00  0.00    +0.000 A 
ATOM     24  C   UNL     1       2.421   5.080  19.232  0.00  0.00    +0.000 A 
ATOM     25  C   UNL     1       1.878   5.478  20.450  0.00  0.00    +0.000 A 
ATOM     26  C   UNL     1       1.557   6.821  20.668  0.00  0.00    +0.000 A 
ENDBRANCH  20  21
ENDBRANCH  14  19
BRANCH   1  27
ATOM     27  C   UNL     1      -3.113  12.102  23.565  0.00  0.00    +0.000 C 
BRANCH  27  29
ATOM     28  C   UNL     1      -5.376  12.327  24.645  0.00  0.00    +0.000 C 
ATOM     29  C   UNL     1      -3.984  12.923  24.516  0.00  0.00    +0.000 C 
ENDBRANCH  27  29
ENDBRANCH   1  27
TORSDOF 5
ENDMDL
MODEL 8
REMARK VINA RESULT:      -6.1      4.565      6.570
REMARK  Name = 
REMARK  8 active torsions:
REMARK  status: ('A' for Active; 'I' for Inactive)
REMARK    1  A    between atoms: C_1  and  C_2
REMARK    2  A    between atoms: C_2  and  C_3
REMARK    3  A    between atoms: C_3  and  C_4
REMARK    4  A    between atoms: N_6  and  C_7
REMARK    5  A    between atoms: N_13  and  C_14
REMARK    6  A    between atoms: C_14  and  C_15
REMARK    7  A    between atoms: C_19  and  C_20
REMARK    8  A    between atoms: C_21  and  C_22
REMARK                            x       y       z     vdW  Elec       q    Type
REMARK                         _______ _______ _______ _____ _____    ______ ____
ROOT
ATOM      1  C   UNL     1      -3.296  11.137  16.868  0.00  0.00    +0.000 A 
ATOM      2  N   UNL     1      -4.574  10.866  17.144  0.00  0.00    +0.000 NA
ATOM      3  N   UNL     1      -4.742  11.341  18.400  0.00  0.00    +0.000 N 
ATOM      4  C   UNL     1      -6.041  11.150  18.998  0.00  0.00    +0.000 C 
ATOM      5  C   UNL     1      -3.621  11.938  18.931  0.00  0.00    +0.000 A 
ATOM      6  C   UNL     1      -3.282  12.565  20.139  0.00  0.00    +0.000 A 
ATOM      7  N   UNL     1      -4.188  12.766  21.169  0.00  0.00    +0.000 N 
ATOM      8  C   UNL     1      -3.677  12.759  22.555  0.00  0.00    +0.000 C 
ATOM      9  C   UNL     1      -3.856  14.107  23.295  0.00  0.00    +0.000 C 
ATOM     10  N   UNL     1      -5.184  14.754  23.134  0.00  0.00    +0.000 NA
ATOM     11  C   UNL     1      -5.377  14.933  21.683  0.00  0.00    +0.000 C 
ATOM     12  C   UNL     1      -5.344  13.628  20.874  0.00  0.00    +0.000 C 
ATOM     13  N   UNL     1      -1.977  12.943  20.272  0.00  0.00    +0.000 NA
ATOM     14  C   UNL     1      -1.113  12.745  19.254  0.00  0.00    +0.000 A 
ATOM     15  N   UNL     1      -1.386  12.186  18.074  0.00  0.00    +0.000 NA
ATOM     16  C   UNL     1      -2.659  11.781  17.946  0.00  0.00    +0.000 A 
ENDROOT
BRANCH  10  17
ATOM     17  C   UNL     1      -6.240  13.954  23.780  0.00  0.00    +0.000 C 
ATOM     18  C   UNL     1      -7.610  14.628  23.806  0.00  0.00    +0.000 C 
ENDBRANCH  10  17
BRANCH  14  19
ATOM     19  C   UNL     1       0.286  13.172  19.372  0.00  0.00    +0.000 C 
ATOM     20  C   UNL     1       0.884  14.227  18.796  0.00  0.00    +0.000 C 
BRANCH  20  21
ATOM     21  C   UNL     1       2.319  14.528  18.978  0.00  0.00    +0.000 A 
ATOM     22  C   UNL     1       2.864  14.481  20.267  0.00  0.00    +0.000 A 
ATOM     23  C   UNL     1       4.219  14.760  20.482  0.00  0.00    +0.000 A 
ATOM     24  C   UNL     1       5.050  15.080  19.408  0.00  0.00    +0.000 A 
ATOM     25  C   UNL     1       4.527  15.111  18.119  0.00  0.00    +0.000 A 
ATOM     26  C   UNL     1       3.174  14.831  17.905  0.00  0.00    +0.000 A 
ENDBRANCH  20  21
ENDBRANCH  14  19
BRANCH   1  27
ATOM     27  C   UNL     1      -2.706  10.764  15.552  0.00  0.00    +0.000 C 
BRANCH  27  29
ATOM     28  C   UNL     1      -3.493   9.949  13.303  0.00  0.00    +0.000 C 
ATOM     29  C   UNL     1      -3.573   9.748  14.807  0.00  0.00    +0.000 C 
ENDBRANCH  27  29
ENDBRANCH   1  27
TORSDOF 5
ENDMDL
MODEL 9
REMARK VINA RESULT:      -6.1      3.796      8.907
REMARK  Name = 
REMARK  8 active torsions:
REMARK  status: ('A' for Active; 'I' for Inactive)
REMARK    1  A    between atoms: C_1  and  C_2
REMARK    2  A    between atoms: C_2  and  C_3
REMARK    3  A    between atoms: C_3  and  C_4
REMARK    4  A    between atoms: N_6  and  C_7
REMARK    5  A    between atoms: N_13  and  C_14
REMARK    6  A    between atoms: C_14  and  C_15
REMARK    7  A    between atoms: C_19  and  C_20
REMARK    8  A    between atoms: C_21  and  C_22
REMARK                            x       y       z     vdW  Elec       q    Type
REMARK                         _______ _______ _______ _____ _____    ______ ____
ROOT
ATOM      1  C   UNL     1      -5.941  11.739  19.073  0.00  0.00    +0.000 A 
ATOM      2  N   UNL     1      -5.601  10.843  18.142  0.00  0.00    +0.000 NA
ATOM      3  N   UNL     1      -4.251  10.918  18.098  0.00  0.00    +0.000 N 
ATOM      4  C   UNL     1      -3.584  10.077  17.134  0.00  0.00    +0.000 C 
ATOM      5  C   UNL     1      -3.707  11.812  18.993  0.00  0.00    +0.000 A 
ATOM      6  C   UNL     1      -2.418  12.245  19.338  0.00  0.00    +0.000 A 
ATOM      7  N   UNL     1      -1.266  11.724  18.768  0.00  0.00    +0.000 N 
ATOM      8  C   UNL     1      -0.097  12.615  18.625  0.00  0.00    +0.000 C 
ATOM      9  C   UNL     1       1.139  12.163  19.439  0.00  0.00    +0.000 C 
ATOM     10  N   UNL     1       1.460  10.714  19.364  0.00  0.00    +0.000 NA
ATOM     11  C   UNL     1       0.251  10.005  19.824  0.00  0.00    +0.000 C 
ATOM     12  C   UNL     1      -1.007  10.292  18.992  0.00  0.00    +0.000 C 
ATOM     13  N   UNL     1      -2.350  13.254  20.254  0.00  0.00    +0.000 NA
ATOM     14  C   UNL     1      -3.483  13.742  20.802  0.00  0.00    +0.000 A 
ATOM     15  N   UNL     1      -4.730  13.348  20.538  0.00  0.00    +0.000 NA
ATOM     16  C   UNL     1      -4.809  12.379  19.613  0.00  0.00    +0.000 A 
ENDROOT
BRANCH  10  17
ATOM     17  C   UNL     1       1.887  10.340  18.004  0.00  0.00    +0.000 C 
ATOM     18  C   UNL     1       2.206   8.857  17.832  0.00  0.00    +0.000 C 
ENDBRANCH  10  17
BRANCH  14  19
ATOM     19  C   UNL     1      -3.423  14.808  21.809  0.00  0.00    +0.000 C 
ATOM     20  C   UNL     1      -4.224  14.994  22.870  0.00  0.00    +0.000 C 
BRANCH  20  21
ATOM     21  C   UNL     1      -4.070  16.135  23.795  0.00  0.00    +0.000 A 
ATOM     22  C   UNL     1      -2.803  16.708  23.961  0.00  0.00    +0.000 A 
ATOM     23  C   UNL     1      -2.614  17.790  24.829  0.00  0.00    +0.000 A 
ATOM     24  C   UNL     1      -3.693  18.319  25.537  0.00  0.00    +0.000 A 
ATOM     25  C   UNL     1      -4.961  17.773  25.368  0.00  0.00    +0.000 A 
ATOM     26  C   UNL     1      -5.150  16.694  24.500  0.00  0.00    +0.000 A 
ENDBRANCH  20  21
ENDBRANCH  14  19
BRANCH   1  27
ATOM     27  C   UNL     1      -7.371  11.966  19.425  0.00  0.00    +0.000 C 
BRANCH  27  29
ATOM     28  C   UNL     1      -7.820  11.921  21.901  0.00  0.00    +0.000 C 
ATOM     29  C   UNL     1      -7.806  11.112  20.616  0.00  0.00    +0.000 C 
ENDBRANCH  27  29
ENDBRANCH   1  27
TORSDOF 5
ENDMDL
