MODEL 1
REMARK VINA RESULT:      -7.7      0.000      0.000
REMARK  Name = 
REMARK  6 active torsions:
REMARK  status: ('A' for Active; 'I' for Inactive)
REMARK    1  A    between atoms: C_1  and  O_2
REMARK    2  A    between atoms: O_2  and  C_3
REMARK    3  A    between atoms: C_6  and  C_7
REMARK    4  A    between atoms: C_7  and  C_9
REMARK    5  A    between atoms: C_9  and  N_10
REMARK    6  A    between atoms: C_22  and  N_23
REMARK                            x       y       z     vdW  Elec       q    Type
REMARK                         _______ _______ _______ _____ _____    ______ ____
ROOT
ATOM      1  C   UNL     1       1.501   8.260  20.373  0.00  0.00    +0.000 C 
ATOM      2  O   UNL     1       1.516   7.617  21.422  0.00  0.00    +0.000 OA
ENDROOT
BRANCH   1   6
ATOM      3  C   UNL     1      -1.177  11.812  20.332  0.00  0.00    +0.000 A 
ATOM      4  C   UNL     1      -0.780  11.149  19.177  0.00  0.00    +0.000 A 
ATOM      5  C   UNL     1       0.093  10.039  19.238  0.00  0.00    +0.000 A 
ATOM      6  C   UNL     1       0.659   9.553  20.451  0.00  0.00    +0.000 A 
ATOM      7  C   UNL     1       0.262  10.200  21.615  0.00  0.00    +0.000 A 
ATOM      8  C   UNL     1      -0.640  11.309  21.539  0.00  0.00    +0.000 A 
BRANCH   8   9
ATOM      9  N   UNL     1      -1.087  11.923  22.780  0.00  0.00    +0.000 N 
ATOM     10  O   UNL     1      -2.121  11.486  23.300  0.00  0.00    +0.000 OA
ATOM     11  O   UNL     1      -0.438  12.904  23.165  0.00  0.00    +0.000 OA
ENDBRANCH   8   9
BRANCH   3  13
ATOM     12  C   UNL     1      -3.472  12.564  20.110  0.00  0.00    +0.000 C 
ATOM     13  O   UNL     1      -2.094  12.820  20.407  0.00  0.00    +0.000 OA
ENDBRANCH   3  13
ENDBRANCH   1   6
BRANCH   1  14
ATOM     14  C   UNL     1       2.197   7.680  19.065  0.00  0.00    +0.000 C 
BRANCH  14  15
ATOM     15  N   UNL     1       2.867   6.247  19.130  0.00  0.00    +0.000 N 
ATOM     16  C   UNL     1       4.125   6.202  18.650  0.00  0.00    +0.000 A 
ATOM     17  C   UNL     1       4.396   5.327  17.585  0.00  0.00    +0.000 A 
ATOM     18 BR   UNL     1       5.237   6.091  16.079  0.00  0.00    +0.000 Br
ATOM     19  C   UNL     1       3.622   4.212  17.367  0.00  0.00    +0.000 A 
ATOM     20  C   UNL     1       2.444   4.091  18.096  0.00  0.00    +0.000 A 
ATOM     21  C   UNL     1       1.727   2.920  17.907  0.00  0.00    +0.000 A 
ATOM     22  C   UNL     1       0.930   2.450  18.911  0.00  0.00    +0.000 A 
ATOM     23  C   UNL     1       0.899   3.195  20.093  0.00  0.00    +0.000 A 
ATOM     24  C   UNL     1       1.434   4.515  20.167  0.00  0.00    +0.000 A 
ATOM     25  C   UNL     1       2.141   5.065  19.090  0.00  0.00    +0.000 A 
ENDBRANCH  14  15
ENDBRANCH   1  14
TORSDOF 5
ENDMDL
MODEL 2
REMARK VINA RESULT:      -7.7      2.145      3.465
REMARK  Name = 
REMARK  6 active torsions:
REMARK  status: ('A' for Active; 'I' for Inactive)
REMARK    1  A    between atoms: C_1  and  O_2
REMARK    2  A    between atoms: O_2  and  C_3
REMARK    3  A    between atoms: C_6  and  C_7
REMARK    4  A    between atoms: C_7  and  C_9
REMARK    5  A    between atoms: C_9  and  N_10
REMARK    6  A    between atoms: C_22  and  N_23
REMARK                            x       y       z     vdW  Elec       q    Type
REMARK                         _______ _______ _______ _____ _____    ______ ____
ROOT
ATOM      1  C   UNL     1       1.896   8.312  18.957  0.00  0.00    +0.000 C 
ATOM      2  O   UNL     1       2.143   8.909  17.910  0.00  0.00    +0.000 OA
ENDROOT
BRANCH   1   6
ATOM      3  C   UNL     1      -0.154  10.549  22.211  0.00  0.00    +0.000 A 
ATOM      4  C   UNL     1      -0.020   9.165  22.209  0.00  0.00    +0.000 A 
ATOM      5  C   UNL     1       0.618   8.496  21.141  0.00  0.00    +0.000 A 
ATOM      6  C   UNL     1       1.119   9.163  19.987  0.00  0.00    +0.000 A 
ATOM      7  C   UNL     1       1.002  10.548  19.979  0.00  0.00    +0.000 A 
ATOM      8  C   UNL     1       0.374  11.213  21.080  0.00  0.00    +0.000 A 
BRANCH   8   9
ATOM      9  N   UNL     1       0.326  12.667  21.072  0.00  0.00    +0.000 N 
ATOM     10  O   UNL     1      -0.655  13.209  20.547  0.00  0.00    +0.000 OA
ATOM     11  O   UNL     1       1.328  13.246  21.513  0.00  0.00    +0.000 OA
ENDBRANCH   8   9
BRANCH   3  13
ATOM     12  C   UNL     1      -2.052  11.587  23.306  0.00  0.00    +0.000 C 
ATOM     13  O   UNL     1      -0.649  11.309  23.230  0.00  0.00    +0.000 OA
ENDBRANCH   3  13
ENDBRANCH   1   6
BRANCH   1  14
ATOM     14  C   UNL     1       2.473   6.849  19.204  0.00  0.00    +0.000 C 
BRANCH  14  15
ATOM     15  N   UNL     1       2.661   5.886  17.963  0.00  0.00    +0.000 N 
ATOM     16  C   UNL     1       1.695   4.956  17.832  0.00  0.00    +0.000 A 
ATOM     17  C   UNL     1       2.074   3.602  17.839  0.00  0.00    +0.000 A 
ATOM     18 BR   UNL     1       1.166   2.495  19.068  0.00  0.00    +0.000 Br
ATOM     19  C   UNL     1       3.342   3.217  17.473  0.00  0.00    +0.000 A 
ATOM     20  C   UNL     1       4.295   4.215  17.301  0.00  0.00    +0.000 A 
ATOM     21  C   UNL     1       5.541   3.799  16.859  0.00  0.00    +0.000 A 
ATOM     22  C   UNL     1       6.324   4.660  16.144  0.00  0.00    +0.000 A 
ATOM     23  C   UNL     1       5.797   5.930  15.893  0.00  0.00    +0.000 A 
ATOM     24  C   UNL     1       4.640   6.415  16.571  0.00  0.00    +0.000 A 
ATOM     25  C   UNL     1       3.900   5.579  17.418  0.00  0.00    +0.000 A 
ENDBRANCH  14  15
ENDBRANCH   1  14
TORSDOF 5
ENDMDL
MODEL 3
REMARK VINA RESULT:      -7.6      2.350      4.033
REMARK  Name = 
REMARK  6 active torsions:
REMARK  status: ('A' for Active; 'I' for Inactive)
REMARK    1  A    between atoms: C_1  and  O_2
REMARK    2  A    between atoms: O_2  and  C_3
REMARK    3  A    between atoms: C_6  and  C_7
REMARK    4  A    between atoms: C_7  and  C_9
REMARK    5  A    between atoms: C_9  and  N_10
REMARK    6  A    between atoms: C_22  and  N_23
REMARK                            x       y       z     vdW  Elec       q    Type
REMARK                         _______ _______ _______ _____ _____    ______ ____
ROOT
ATOM      1  C   UNL     1       2.149   7.060  19.556  0.00  0.00    +0.000 C 
ATOM      2  O   UNL     1       2.285   6.165  20.390  0.00  0.00    +0.000 OA
ENDROOT
BRANCH   1   6
ATOM      3  C   UNL     1       0.447  10.689  21.486  0.00  0.00    +0.000 A 
ATOM      4  C   UNL     1       0.695   9.508  22.177  0.00  0.00    +0.000 A 
ATOM      5  C   UNL     1       1.213   8.373  21.515  0.00  0.00    +0.000 A 
ATOM      6  C   UNL     1       1.473   8.331  20.116  0.00  0.00    +0.000 A 
ATOM      7  C   UNL     1       1.240   9.508  19.414  0.00  0.00    +0.000 A 
ATOM      8  C   UNL     1       0.735  10.657  20.102  0.00  0.00    +0.000 A 
BRANCH   8   9
ATOM      9  N   UNL     1       0.564  11.892  19.352  0.00  0.00    +0.000 N 
ATOM     10  O   UNL     1       1.534  12.657  19.272  0.00  0.00    +0.000 OA
ATOM     11  O   UNL     1      -0.578  12.120  18.933  0.00  0.00    +0.000 OA
ENDBRANCH   8   9
BRANCH   3  13
ATOM     12  C   UNL     1      -1.149  11.947  22.809  0.00  0.00    +0.000 C 
ATOM     13  O   UNL     1       0.053  11.875  22.033  0.00  0.00    +0.000 OA
ENDBRANCH   3  13
ENDBRANCH   1   6
BRANCH   1  14
ATOM     14  C   UNL     1       2.537   6.806  18.033  0.00  0.00    +0.000 C 
BRANCH  14  15
ATOM     15  N   UNL     1       3.753   5.846  17.708  0.00  0.00    +0.000 N 
ATOM     16  C   UNL     1       3.437   4.536  17.698  0.00  0.00    +0.000 A 
ATOM     17  C   UNL     1       4.123   3.683  18.579  0.00  0.00    +0.000 A 
ATOM     18 BR   UNL     1       3.048   2.602  19.690  0.00  0.00    +0.000 Br
ATOM     19  C   UNL     1       5.376   4.003  19.046  0.00  0.00    +0.000 A 
ATOM     20  C   UNL     1       5.853   5.284  18.791  0.00  0.00    +0.000 A 
ATOM     21  C   UNL     1       7.148   5.548  19.209  0.00  0.00    +0.000 A 
ATOM     22  C   UNL     1       7.887   6.491  18.554  0.00  0.00    +0.000 A 
ATOM     23  C   UNL     1       7.275   7.135  17.476  0.00  0.00    +0.000 A 
ATOM     24  C   UNL     1       5.873   7.035  17.233  0.00  0.00    +0.000 A 
ATOM     25  C   UNL     1       5.074   6.167  17.989  0.00  0.00    +0.000 A 
ENDBRANCH  14  15
ENDBRANCH   1  14
TORSDOF 5
ENDMDL
MODEL 4
REMARK VINA RESULT:      -7.6      1.272      2.048
REMARK  Name = 
REMARK  6 active torsions:
REMARK  status: ('A' for Active; 'I' for Inactive)
REMARK    1  A    between atoms: C_1  and  O_2
REMARK    2  A    between atoms: O_2  and  C_3
REMARK    3  A    between atoms: C_6  and  C_7
REMARK    4  A    between atoms: C_7  and  C_9
REMARK    5  A    between atoms: C_9  and  N_10
REMARK    6  A    between atoms: C_22  and  N_23
REMARK                            x       y       z     vdW  Elec       q    Type
REMARK                         _______ _______ _______ _____ _____    ______ ____
ROOT
ATOM      1  C   UNL     1       1.440   8.398  20.349  0.00  0.00    +0.000 C 
ATOM      2  O   UNL     1       1.642   7.889  21.451  0.00  0.00    +0.000 OA
ENDROOT
BRANCH   1   6
ATOM      3  C   UNL     1      -1.350  11.844  20.718  0.00  0.00    +0.000 A 
ATOM      4  C   UNL     1      -0.848  11.154  21.816  0.00  0.00    +0.000 A 
ATOM      5  C   UNL     1       0.017  10.049  21.648  0.00  0.00    +0.000 A 
ATOM      6  C   UNL     1       0.396   9.537  20.375  0.00  0.00    +0.000 A 
ATOM      7  C   UNL     1      -0.090  10.223  19.268  0.00  0.00    +0.000 A 
ATOM      8  C   UNL     1      -0.946  11.355  19.455  0.00  0.00    +0.000 A 
BRANCH   8   9
ATOM      9  N   UNL     1      -1.384  12.091  18.279  0.00  0.00    +0.000 N 
ATOM     10  O   UNL     1      -2.389  11.682  17.683  0.00  0.00    +0.000 OA
ATOM     11  O   UNL     1      -0.651  13.020  17.915  0.00  0.00    +0.000 OA
ENDBRANCH   8   9
BRANCH   3  13
ATOM     12  C   UNL     1      -3.420  12.960  21.309  0.00  0.00    +0.000 C 
ATOM     13  O   UNL     1      -2.099  12.984  20.758  0.00  0.00    +0.000 OA
ENDBRANCH   3  13
ENDBRANCH   1   6
BRANCH   1  14
ATOM     14  C   UNL     1       2.128   7.796  19.046  0.00  0.00    +0.000 C 
BRANCH  14  15
ATOM     15  N   UNL     1       2.824   6.377  19.140  0.00  0.00    +0.000 N 
ATOM     16  C   UNL     1       4.076   6.341  18.642  0.00  0.00    +0.000 A 
ATOM     17  C   UNL     1       4.346   5.441  17.596  0.00  0.00    +0.000 A 
ATOM     18 BR   UNL     1       5.149   6.178  16.057  0.00  0.00    +0.000 Br
ATOM     19  C   UNL     1       3.588   4.307  17.421  0.00  0.00    +0.000 A 
ATOM     20  C   UNL     1       2.424   4.186  18.172  0.00  0.00    +0.000 A 
ATOM     21  C   UNL     1       1.724   2.999  18.027  0.00  0.00    +0.000 A 
ATOM     22  C   UNL     1       0.952   2.542  19.056  0.00  0.00    +0.000 A 
ATOM     23  C   UNL     1       0.926   3.319  20.217  0.00  0.00    +0.000 A 
ATOM     24  C   UNL     1       1.438   4.650  20.247  0.00  0.00    +0.000 A 
ATOM     25  C   UNL     1       2.119   5.182  19.144  0.00  0.00    +0.000 A 
ENDBRANCH  14  15
ENDBRANCH   1  14
TORSDOF 5
ENDMDL
MODEL 5
REMARK VINA RESULT:      -7.6      1.728      2.355
REMARK  Name = 
REMARK  6 active torsions:
REMARK  status: ('A' for Active; 'I' for Inactive)
REMARK    1  A    between atoms: C_1  and  O_2
REMARK    2  A    between atoms: O_2  and  C_3
REMARK    3  A    between atoms: C_6  and  C_7
REMARK    4  A    between atoms: C_7  and  C_9
REMARK    5  A    between atoms: C_9  and  N_10
REMARK    6  A    between atoms: C_22  and  N_23
REMARK                            x       y       z     vdW  Elec       q    Type
REMARK                         _______ _______ _______ _____ _____    ______ ____
ROOT
ATOM      1  C   UNL     1       2.246   7.832  18.454  0.00  0.00    +0.000 C 
ATOM      2  O   UNL     1       1.640   7.748  17.387  0.00  0.00    +0.000 OA
ENDROOT
BRANCH   1   6
ATOM      3  C   UNL     1       0.440  10.192  21.765  0.00  0.00    +0.000 A 
ATOM      4  C   UNL     1       0.864   8.876  21.915  0.00  0.00    +0.000 A 
ATOM      5  C   UNL     1       1.409   8.158  20.827  0.00  0.00    +0.000 A 
ATOM      6  C   UNL     1       1.522   8.694  19.512  0.00  0.00    +0.000 A 
ATOM      7  C   UNL     1       1.112  10.012  19.350  0.00  0.00    +0.000 A 
ATOM      8  C   UNL     1       0.583  10.734  20.467  0.00  0.00    +0.000 A 
BRANCH   8   9
ATOM      9  N   UNL     1       0.224  12.131  20.280  0.00  0.00    +0.000 N 
ATOM     10  O   UNL     1      -0.923  12.384  19.890  0.00  0.00    +0.000 OA
ATOM     11  O   UNL     1       1.137  12.952  20.438  0.00  0.00    +0.000 OA
ENDBRANCH   8   9
BRANCH   3  13
ATOM     12  C   UNL     1      -1.371  10.988  23.167  0.00  0.00    +0.000 C 
ATOM     13  O   UNL     1       0.002  11.015  22.762  0.00  0.00    +0.000 OA
ENDBRANCH   3  13
ENDBRANCH   1   6
BRANCH   1  14
ATOM     14  C   UNL     1       3.698   7.197  18.607  0.00  0.00    +0.000 C 
BRANCH  14  15
ATOM     15  N   UNL     1       3.824   5.638  18.850  0.00  0.00    +0.000 N 
ATOM     16  C   UNL     1       4.885   5.068  18.245  0.00  0.00    +0.000 A 
ATOM     17  C   UNL     1       4.645   4.030  17.329  0.00  0.00    +0.000 A 
ATOM     18 BR   UNL     1       5.429   4.232  15.625  0.00  0.00    +0.000 Br
ATOM     19  C   UNL     1       3.505   3.265  17.403  0.00  0.00    +0.000 A 
ATOM     20  C   UNL     1       2.503   3.684  18.271  0.00  0.00    +0.000 A 
ATOM     21  C   UNL     1       1.400   2.851  18.377  0.00  0.00    +0.000 A 
ATOM     22  C   UNL     1       0.674   2.840  19.534  0.00  0.00    +0.000 A 
ATOM     23  C   UNL     1       1.109   3.683  20.559  0.00  0.00    +0.000 A 
ATOM     24  C   UNL     1       2.076   4.707  20.336  0.00  0.00    +0.000 A 
ATOM     25  C   UNL     1       2.735   4.816  19.105  0.00  0.00    +0.000 A 
ENDBRANCH  14  15
ENDBRANCH   1  14
TORSDOF 5
ENDMDL
MODEL 6
REMARK VINA RESULT:      -7.6      2.240      3.695
REMARK  Name = 
REMARK  6 active torsions:
REMARK  status: ('A' for Active; 'I' for Inactive)
REMARK    1  A    between atoms: C_1  and  O_2
REMARK    2  A    between atoms: O_2  and  C_3
REMARK    3  A    between atoms: C_6  and  C_7
REMARK    4  A    between atoms: C_7  and  C_9
REMARK    5  A    between atoms: C_9  and  N_10
REMARK    6  A    between atoms: C_22  and  N_23
REMARK                            x       y       z     vdW  Elec       q    Type
REMARK                         _______ _______ _______ _____ _____    ______ ____
ROOT
ATOM      1  C   UNL     1       2.115   7.046  19.539  0.00  0.00    +0.000 C 
ATOM      2  O   UNL     1       2.125   6.107  20.334  0.00  0.00    +0.000 OA
ENDROOT
BRANCH   1   6
ATOM      3  C   UNL     1       0.279  10.855  20.923  0.00  0.00    +0.000 A 
ATOM      4  C   UNL     1       0.745  10.665  19.626  0.00  0.00    +0.000 A 
ATOM      5  C   UNL     1       1.344   9.444  19.240  0.00  0.00    +0.000 A 
ATOM      6  C   UNL     1       1.556   8.358  20.135  0.00  0.00    +0.000 A 
ATOM      7  C   UNL     1       1.086   8.530  21.431  0.00  0.00    +0.000 A 
ATOM      8  C   UNL     1       0.460   9.763  21.802  0.00  0.00    +0.000 A 
BRANCH   8   9
ATOM      9  N   UNL     1      -0.080   9.887  23.147  0.00  0.00    +0.000 N 
ATOM     10  O   UNL     1       0.665   9.607  24.095  0.00  0.00    +0.000 OA
ATOM     11  O   UNL     1      -1.282  10.174  23.226  0.00  0.00    +0.000 OA
ENDBRANCH   8   9
BRANCH   3  13
ATOM     12  C   UNL     1       0.155  13.252  21.269  0.00  0.00    +0.000 C 
ATOM     13  O   UNL     1      -0.411  11.940  21.379  0.00  0.00    +0.000 OA
ENDBRANCH   3  13
ENDBRANCH   1   6
BRANCH   1  14
ATOM     14  C   UNL     1       2.529   6.817  18.019  0.00  0.00    +0.000 C 
BRANCH  14  15
ATOM     15  N   UNL     1       3.736   5.845  17.697  0.00  0.00    +0.000 N 
ATOM     16  C   UNL     1       3.408   4.538  17.691  0.00  0.00    +0.000 A 
ATOM     17  C   UNL     1       4.086   3.682  18.576  0.00  0.00    +0.000 A 
ATOM     18 BR   UNL     1       3.000   2.613  19.688  0.00  0.00    +0.000 Br
ATOM     19  C   UNL     1       5.342   3.991  19.042  0.00  0.00    +0.000 A 
ATOM     20  C   UNL     1       5.830   5.268  18.785  0.00  0.00    +0.000 A 
ATOM     21  C   UNL     1       7.127   5.521  19.203  0.00  0.00    +0.000 A 
ATOM     22  C   UNL     1       7.875   6.455  18.547  0.00  0.00    +0.000 A 
ATOM     23  C   UNL     1       7.270   7.102  17.465  0.00  0.00    +0.000 A 
ATOM     24  C   UNL     1       5.868   7.013  17.222  0.00  0.00    +0.000 A 
ATOM     25  C   UNL     1       5.060   6.155  17.979  0.00  0.00    +0.000 A 
ENDBRANCH  14  15
ENDBRANCH   1  14
TORSDOF 5
ENDMDL
MODEL 7
REMARK VINA RESULT:      -7.6      3.813      8.232
REMARK  Name = 
REMARK  6 active torsions:
REMARK  status: ('A' for Active; 'I' for Inactive)
REMARK    1  A    between atoms: C_1  and  O_2
REMARK    2  A    between atoms: O_2  and  C_3
REMARK    3  A    between atoms: C_6  and  C_7
REMARK    4  A    between atoms: C_7  and  C_9
REMARK    5  A    between atoms: C_9  and  N_10
REMARK    6  A    between atoms: C_22  and  N_23
REMARK                            x       y       z     vdW  Elec       q    Type
REMARK                         _______ _______ _______ _____ _____    ______ ____
ROOT
ATOM      1  C   UNL     1       1.882   8.618  18.539  0.00  0.00    +0.000 C 
ATOM      2  O   UNL     1       2.227   8.918  17.397  0.00  0.00    +0.000 OA
ENDROOT
BRANCH   1   6
ATOM      3  C   UNL     1       2.466   4.406  19.847  0.00  0.00    +0.000 A 
ATOM      4  C   UNL     1       2.070   5.421  20.712  0.00  0.00    +0.000 A 
ATOM      5  C   UNL     1       1.922   6.750  20.255  0.00  0.00    +0.000 A 
ATOM      6  C   UNL     1       2.204   7.156  18.920  0.00  0.00    +0.000 A 
ATOM      7  C   UNL     1       2.591   6.150  18.042  0.00  0.00    +0.000 A 
ATOM      8  C   UNL     1       2.715   4.804  18.514  0.00  0.00    +0.000 A 
BRANCH   8   9
ATOM      9  N   UNL     1       3.057   3.765  17.556  0.00  0.00    +0.000 N 
ATOM     10  O   UNL     1       2.129   3.174  16.989  0.00  0.00    +0.000 OA
ATOM     11  O   UNL     1       4.261   3.491  17.458  0.00  0.00    +0.000 OA
ENDBRANCH   8   9
BRANCH   3  13
ATOM     12  C   UNL     1       1.700   2.521  21.167  0.00  0.00    +0.000 C 
ATOM     13  O   UNL     1       2.537   3.076  20.145  0.00  0.00    +0.000 OA
ENDBRANCH   3  13
ENDBRANCH   1   6
BRANCH   1  14
ATOM     14  C   UNL     1       1.067   9.654  19.432  0.00  0.00    +0.000 C 
BRANCH  14  15
ATOM     15  N   UNL     1       0.248  10.800  18.710  0.00  0.00    +0.000 N 
ATOM     16  C   UNL     1       0.693  12.045  18.969  0.00  0.00    +0.000 A 
ATOM     17  C   UNL     1      -0.202  12.961  19.547  0.00  0.00    +0.000 A 
ATOM     18 BR   UNL     1       0.395  13.825  21.115  0.00  0.00    +0.000 Br
ATOM     19  C   UNL     1      -1.562  12.821  19.392  0.00  0.00    +0.000 A 
ATOM     20  C   UNL     1      -2.029  11.638  18.831  0.00  0.00    +0.000 A 
ATOM     21  C   UNL     1      -3.396  11.561  18.620  0.00  0.00    +0.000 A 
ATOM     22  C   UNL     1      -3.880  10.766  17.620  0.00  0.00    +0.000 A 
ATOM     23  C   UNL     1      -2.937  10.075  16.854  0.00  0.00    +0.000 A 
ATOM     24  C   UNL     1      -1.572   9.968  17.251  0.00  0.00    +0.000 A 
ATOM     25  C   UNL     1      -1.090  10.675  18.360  0.00  0.00    +0.000 A 
ENDBRANCH  14  15
ENDBRANCH   1  14
TORSDOF 5
ENDMDL
MODEL 8
REMARK VINA RESULT:      -7.5      1.667      2.140
REMARK  Name = 
REMARK  6 active torsions:
REMARK  status: ('A' for Active; 'I' for Inactive)
REMARK    1  A    between atoms: C_1  and  O_2
REMARK    2  A    between atoms: O_2  and  C_3
REMARK    3  A    between atoms: C_6  and  C_7
REMARK    4  A    between atoms: C_7  and  C_9
REMARK    5  A    between atoms: C_9  and  N_10
REMARK    6  A    between atoms: C_22  and  N_23
REMARK                            x       y       z     vdW  Elec       q    Type
REMARK                         _______ _______ _______ _____ _____    ______ ____
ROOT
ATOM      1  C   UNL     1       2.727   7.677  18.258  0.00  0.00    +0.000 C 
ATOM      2  O   UNL     1       2.439   7.554  17.068  0.00  0.00    +0.000 OA
ENDROOT
BRANCH   1   6
ATOM      3  C   UNL     1      -0.190  10.457  20.144  0.00  0.00    +0.000 A 
ATOM      4  C   UNL     1       0.199  10.554  18.812  0.00  0.00    +0.000 A 
ATOM      5  C   UNL     1       1.148   9.663  18.264  0.00  0.00    +0.000 A 
ATOM      6  C   UNL     1       1.802   8.650  19.022  0.00  0.00    +0.000 A 
ATOM      7  C   UNL     1       1.415   8.534  20.352  0.00  0.00    +0.000 A 
ATOM      8  C   UNL     1       0.435   9.430  20.887  0.00  0.00    +0.000 A 
BRANCH   8   9
ATOM      9  N   UNL     1       0.005   9.240  22.264  0.00  0.00    +0.000 N 
ATOM     10  O   UNL     1       0.558   9.918  23.140  0.00  0.00    +0.000 OA
ATOM     11  O   UNL     1      -0.822   8.338  22.456  0.00  0.00    +0.000 OA
ENDBRANCH   8   9
BRANCH   3  13
ATOM     12  C   UNL     1      -1.766  12.298  20.075  0.00  0.00    +0.000 C 
ATOM     13  O   UNL     1      -1.171  11.185  20.752  0.00  0.00    +0.000 OA
ENDBRANCH   3  13
ENDBRANCH   1   6
BRANCH   1  14
ATOM     14  C   UNL     1       4.026   6.971  18.849  0.00  0.00    +0.000 C 
BRANCH  14  15
ATOM     15  N   UNL     1       4.022   5.398  19.027  0.00  0.00    +0.000 N 
ATOM     16  C   UNL     1       5.043   4.769  18.412  0.00  0.00    +0.000 A 
ATOM     17  C   UNL     1       4.734   3.792  17.450  0.00  0.00    +0.000 A 
ATOM     18 BR   UNL     1       5.557   4.000  15.765  0.00  0.00    +0.000 Br
ATOM     19  C   UNL     1       3.535   3.121  17.478  0.00  0.00    +0.000 A 
ATOM     20  C   UNL     1       2.557   3.584  18.352  0.00  0.00    +0.000 A 
ATOM     21  C   UNL     1       1.389   2.839  18.410  0.00  0.00    +0.000 A 
ATOM     22  C   UNL     1       0.647   2.839  19.556  0.00  0.00    +0.000 A 
ATOM     23  C   UNL     1       1.133   3.602  20.621  0.00  0.00    +0.000 A 
ATOM     24  C   UNL     1       2.182   4.553  20.452  0.00  0.00    +0.000 A 
ATOM     25  C   UNL     1       2.867   4.658  19.234  0.00  0.00    +0.000 A 
ENDBRANCH  14  15
ENDBRANCH   1  14
TORSDOF 5
ENDMDL
MODEL 9
REMARK VINA RESULT:      -7.5      1.652      2.020
REMARK  Name = 
REMARK  6 active torsions:
REMARK  status: ('A' for Active; 'I' for Inactive)
REMARK    1  A    between atoms: C_1  and  O_2
REMARK    2  A    between atoms: O_2  and  C_3
REMARK    3  A    between atoms: C_6  and  C_7
REMARK    4  A    between atoms: C_7  and  C_9
REMARK    5  A    between atoms: C_9  and  N_10
REMARK    6  A    between atoms: C_22  and  N_23
REMARK                            x       y       z     vdW  Elec       q    Type
REMARK                         _______ _______ _______ _____ _____    ______ ____
ROOT
ATOM      1  C   UNL     1       1.822   8.441  18.100  0.00  0.00    +0.000 C 
ATOM      2  O   UNL     1       0.885   8.222  17.334  0.00  0.00    +0.000 OA
ENDROOT
BRANCH   1   6
ATOM      3  C   UNL     1       0.569  11.446  21.133  0.00  0.00    +0.000 A 
ATOM      4  C   UNL     1       0.909  11.782  19.827  0.00  0.00    +0.000 A 
ATOM      5  C   UNL     1       1.325  10.795  18.906  0.00  0.00    +0.000 A 
ATOM      6  C   UNL     1       1.472   9.420  19.244  0.00  0.00    +0.000 A 
ATOM      7  C   UNL     1       1.127   9.067  20.543  0.00  0.00    +0.000 A 
ATOM      8  C   UNL     1       0.685  10.075  21.458  0.00  0.00    +0.000 A 
BRANCH   8   9
ATOM      9  N   UNL     1       0.268   9.664  22.790  0.00  0.00    +0.000 N 
ATOM     10  O   UNL     1      -0.944   9.520  22.997  0.00  0.00    +0.000 OA
ATOM     11  O   UNL     1       1.165   9.583  23.640  0.00  0.00    +0.000 OA
ENDBRANCH   8   9
BRANCH   3  13
ATOM     12  C   UNL     1      -0.443  13.578  21.692  0.00  0.00    +0.000 C 
ATOM     13  O   UNL     1       0.053  12.289  22.073  0.00  0.00    +0.000 OA
ENDBRANCH   3  13
ENDBRANCH   1   6
BRANCH   1  14
ATOM     14  C   UNL     1       3.265   7.840  17.798  0.00  0.00    +0.000 C 
BRANCH  14  15
ATOM     15  N   UNL     1       3.606   6.384  18.317  0.00  0.00    +0.000 N 
ATOM     16  C   UNL     1       4.726   5.856  17.785  0.00  0.00    +0.000 A 
ATOM     17  C   UNL     1       4.617   4.643  17.084  0.00  0.00    +0.000 A 
ATOM     18 BR   UNL     1       5.341   4.625  15.342  0.00  0.00    +0.000 Br
ATOM     19  C   UNL     1       3.592   3.762  17.342  0.00  0.00    +0.000 A 
ATOM     20  C   UNL     1       2.555   4.200  18.159  0.00  0.00    +0.000 A 
ATOM     21  C   UNL     1       1.578   3.264  18.459  0.00  0.00    +0.000 A 
ATOM     22  C   UNL     1       0.877   3.373  19.625  0.00  0.00    +0.000 A 
ATOM     23  C   UNL     1       1.208   4.443  20.462  0.00  0.00    +0.000 A 
ATOM     24  C   UNL     1       2.023   5.526  20.017  0.00  0.00    +0.000 A 
ATOM     25  C   UNL     1       2.643   5.488  18.761  0.00  0.00    +0.000 A 
ENDBRANCH  14  15
ENDBRANCH   1  14
TORSDOF 5
ENDMDL
