MODEL 1
REMARK VINA RESULT:      -7.1      0.000      0.000
REMARK  Name = 
REMARK  11 active torsions:
REMARK  status: ('A' for Active; 'I' for Inactive)
REMARK    1  A    between atoms: C_1  and  N_2
REMARK    2  A    between atoms: C_3  and  C_5
REMARK    3  A    between atoms: C_5  and  C_7
REMARK    4  A    between atoms: C_7  and  C_8
REMARK    5  A    between atoms: C_8  and  C_9
REMARK    6  A    between atoms: C_9  and  C_10
REMARK    7  A    between atoms: C_10  and  C_11
REMARK    8  A    between atoms: C_11  and  C_12
REMARK    9  A    between atoms: C_12  and  O_13
REMARK   10  A    between atoms: O_13  and  C_14
REMARK   11  A    between atoms: C_17  and  C_18
REMARK                            x       y       z     vdW  Elec       q    Type
REMARK                         _______ _______ _______ _____ _____    ______ ____
ROOT
ATOM      1  C   UNL     1       2.261   4.696  20.090  0.00  0.00    +0.000 C 
ENDROOT
BRANCH   1   2
ATOM      2  C   UNL     1       2.667   3.418  19.365  0.00  0.00    +0.000 C 
BRANCH   2   3
ATOM      3  C   UNL     1       4.079   3.533  18.804  0.00  0.00    +0.000 C 
BRANCH   3   4
ATOM      4  C   UNL     1       4.110   3.289  17.295  0.00  0.00    +0.000 C 
BRANCH   4   5
ATOM      5  C   UNL     1       4.671   4.508  16.562  0.00  0.00    +0.000 C 
BRANCH   5   6
ATOM      6  C   UNL     1       5.781   4.120  15.590  0.00  0.00    +0.000 C 
BRANCH   6   7
ATOM      7  C   UNL     1       6.900   5.138  15.582  0.00  0.00    +0.000 C 
ATOM      8  O   UNL     1       7.649   5.361  14.640  0.00  0.00    +0.000 OA
BRANCH   7  11
ATOM      9  C   UNL     1       7.811   5.771  19.214  0.00  0.00    +0.000 C 
ATOM     10  N   UNL     1       7.573   5.195  17.921  0.00  0.00    +0.000 N 
ATOM     11  C   UNL     1       7.081   5.938  16.875  0.00  0.00    +0.000 C 
ATOM     12  O   UNL     1       6.797   7.127  16.916  0.00  0.00    +0.000 OA
ATOM     13  H   UNL     1       7.766   4.211  17.741  0.00  0.00    +0.000 HD
ENDBRANCH   7  11
ENDBRANCH   6   7
ENDBRANCH   5   6
ENDBRANCH   4   5
ENDBRANCH   3   4
ENDBRANCH   2   3
ENDBRANCH   1   2
BRANCH   1  14
ATOM     14  O   UNL     1       3.090   5.758  19.614  0.00  0.00    +0.000 OA
BRANCH  14  15
ATOM     15  C   UNL     1       2.460   6.963  19.476  0.00  0.00    +0.000 A 
ATOM     16  C   UNL     1       2.544   7.544  18.215  0.00  0.00    +0.000 A 
ATOM     17  C   UNL     1       1.964   8.787  17.977  0.00  0.00    +0.000 A 
ATOM     18  C   UNL     1       1.255   9.467  18.983  0.00  0.00    +0.000 A 
ATOM     19  C   UNL     1       1.174   8.860  20.245  0.00  0.00    +0.000 A 
ATOM     20  C   UNL     1       1.768   7.622  20.490  0.00  0.00    +0.000 A 
BRANCH  18  21
ATOM     21  C   UNL     1       0.629  10.770  18.708  0.00  0.00    +0.000 A 
ATOM     22  C   UNL     1       1.397  11.949  18.718  0.00  0.00    +0.000 A 
ATOM     23  C   UNL     1       0.813  13.196  18.510  0.00  0.00    +0.000 A 
ATOM     24  C   UNL     1      -0.560  13.286  18.271  0.00  0.00    +0.000 A 
ATOM     25  C   UNL     1      -1.335  12.135  18.236  0.00  0.00    +0.000 A 
ATOM     26  C   UNL     1      -0.747  10.889  18.450  0.00  0.00    +0.000 A 
ENDBRANCH  18  21
ENDBRANCH  14  15
ENDBRANCH   1  14
TORSDOF 10
ENDMDL
MODEL 2
REMARK VINA RESULT:      -7.0      5.382      8.547
REMARK  Name = 
REMARK  11 active torsions:
REMARK  status: ('A' for Active; 'I' for Inactive)
REMARK    1  A    between atoms: C_1  and  N_2
REMARK    2  A    between atoms: C_3  and  C_5
REMARK    3  A    between atoms: C_5  and  C_7
REMARK    4  A    between atoms: C_7  and  C_8
REMARK    5  A    between atoms: C_8  and  C_9
REMARK    6  A    between atoms: C_9  and  C_10
REMARK    7  A    between atoms: C_10  and  C_11
REMARK    8  A    between atoms: C_11  and  C_12
REMARK    9  A    between atoms: C_12  and  O_13
REMARK   10  A    between atoms: O_13  and  C_14
REMARK   11  A    between atoms: C_17  and  C_18
REMARK                            x       y       z     vdW  Elec       q    Type
REMARK                         _______ _______ _______ _____ _____    ______ ____
ROOT
ATOM      1  C   UNL     1       8.372   8.191  18.198  0.00  0.00    +0.000 C 
ENDROOT
BRANCH   1   2
ATOM      2  C   UNL     1       8.569   9.703  18.199  0.00  0.00    +0.000 C 
BRANCH   2   3
ATOM      3  C   UNL     1       9.311  10.156  19.452  0.00  0.00    +0.000 C 
BRANCH   3   4
ATOM      4  C   UNL     1       9.581  11.660  19.438  0.00  0.00    +0.000 C 
BRANCH   4   5
ATOM      5  C   UNL     1      10.934  11.972  20.080  0.00  0.00    +0.000 C 
BRANCH   5   6
ATOM      6  C   UNL     1      11.442  13.353  19.680  0.00  0.00    +0.000 C 
BRANCH   6   7
ATOM      7  C   UNL     1      11.471  13.525  18.177  0.00  0.00    +0.000 C 
ATOM      8  O   UNL     1      12.004  12.760  17.385  0.00  0.00    +0.000 OA
BRANCH   7  11
ATOM      9  C   UNL     1       8.702  16.095  17.794  0.00  0.00    +0.000 C 
ATOM     10  N   UNL     1       9.517  14.978  18.177  0.00  0.00    +0.000 N 
ATOM     11  C   UNL     1      10.763  14.772  17.636  0.00  0.00    +0.000 C 
ATOM     12  O   UNL     1      11.306  15.482  16.800  0.00  0.00    +0.000 OA
ATOM     13  H   UNL     1       9.193  14.303  18.866  0.00  0.00    +0.000 HD
ENDBRANCH   7  11
ENDBRANCH   6   7
ENDBRANCH   5   6
ENDBRANCH   4   5
ENDBRANCH   3   4
ENDBRANCH   2   3
ENDBRANCH   1   2
BRANCH   1  14
ATOM     14  O   UNL     1       7.460   7.865  17.148  0.00  0.00    +0.000 OA
BRANCH  14  15
ATOM     15  C   UNL     1       6.541   6.903  17.462  0.00  0.00    +0.000 A 
ATOM     16  C   UNL     1       5.307   7.022  16.830  0.00  0.00    +0.000 A 
ATOM     17  C   UNL     1       4.290   6.113  17.106  0.00  0.00    +0.000 A 
ATOM     18  C   UNL     1       4.488   5.040  17.991  0.00  0.00    +0.000 A 
ATOM     19  C   UNL     1       5.742   4.932  18.611  0.00  0.00    +0.000 A 
ATOM     20  C   UNL     1       6.758   5.851  18.349  0.00  0.00    +0.000 A 
BRANCH  18  21
ATOM     21  C   UNL     1       3.409   4.074  18.254  0.00  0.00    +0.000 A 
ATOM     22  C   UNL     1       3.708   2.746  18.608  0.00  0.00    +0.000 A 
ATOM     23  C   UNL     1       2.701   1.806  18.812  0.00  0.00    +0.000 A 
ATOM     24  C   UNL     1       1.363   2.185  18.679  0.00  0.00    +0.000 A 
ATOM     25  C   UNL     1       1.043   3.495  18.351  0.00  0.00    +0.000 A 
ATOM     26  C   UNL     1       2.055   4.432  18.142  0.00  0.00    +0.000 A 
ENDBRANCH  18  21
ENDBRANCH  14  15
ENDBRANCH   1  14
TORSDOF 10
ENDMDL
MODEL 3
REMARK VINA RESULT:      -7.0      4.913      8.216
REMARK  Name = 
REMARK  11 active torsions:
REMARK  status: ('A' for Active; 'I' for Inactive)
REMARK    1  A    between atoms: C_1  and  N_2
REMARK    2  A    between atoms: C_3  and  C_5
REMARK    3  A    between atoms: C_5  and  C_7
REMARK    4  A    between atoms: C_7  and  C_8
REMARK    5  A    between atoms: C_8  and  C_9
REMARK    6  A    between atoms: C_9  and  C_10
REMARK    7  A    between atoms: C_10  and  C_11
REMARK    8  A    between atoms: C_11  and  C_12
REMARK    9  A    between atoms: C_12  and  O_13
REMARK   10  A    between atoms: O_13  and  C_14
REMARK   11  A    between atoms: C_17  and  C_18
REMARK                            x       y       z     vdW  Elec       q    Type
REMARK                         _______ _______ _______ _____ _____    ______ ____
ROOT
ATOM      1  C   UNL     1       8.230   8.043  18.114  0.00  0.00    +0.000 C 
ENDROOT
BRANCH   1   2
ATOM      2  C   UNL     1       8.124   9.511  17.713  0.00  0.00    +0.000 C 
BRANCH   2   3
ATOM      3  C   UNL     1       8.991  10.386  18.611  0.00  0.00    +0.000 C 
BRANCH   3   4
ATOM      4  C   UNL     1      10.230  10.897  17.876  0.00  0.00    +0.000 C 
BRANCH   4   5
ATOM      5  C   UNL     1      10.259  12.426  17.868  0.00  0.00    +0.000 C 
BRANCH   5   6
ATOM      6  C   UNL     1       8.880  13.017  18.141  0.00  0.00    +0.000 C 
BRANCH   6   7
ATOM      7  C   UNL     1       8.929  14.525  18.256  0.00  0.00    +0.000 C 
ATOM      8  O   UNL     1       9.941  15.190  18.439  0.00  0.00    +0.000 OA
BRANCH   7  11
ATOM      9  C   UNL     1       5.177  14.892  17.802  0.00  0.00    +0.000 C 
ATOM     10  N   UNL     1       6.518  14.401  17.944  0.00  0.00    +0.000 N 
ATOM     11  C   UNL     1       7.585  15.247  18.126  0.00  0.00    +0.000 C 
ATOM     12  O   UNL     1       7.526  16.468  18.185  0.00  0.00    +0.000 OA
ATOM     13  H   UNL     1       6.717  13.402  17.915  0.00  0.00    +0.000 HD
ENDBRANCH   7  11
ENDBRANCH   6   7
ENDBRANCH   5   6
ENDBRANCH   4   5
ENDBRANCH   3   4
ENDBRANCH   2   3
ENDBRANCH   1   2
BRANCH   1  14
ATOM     14  O   UNL     1       7.602   7.260  17.097  0.00  0.00    +0.000 OA
BRANCH  14  15
ATOM     15  C   UNL     1       6.453   6.629  17.483  0.00  0.00    +0.000 A 
ATOM     16  C   UNL     1       6.548   5.863  18.641  0.00  0.00    +0.000 A 
ATOM     17  C   UNL     1       5.444   5.154  19.103  0.00  0.00    +0.000 A 
ATOM     18  C   UNL     1       4.205   5.217  18.441  0.00  0.00    +0.000 A 
ATOM     19  C   UNL     1       4.127   6.001  17.281  0.00  0.00    +0.000 A 
ATOM     20  C   UNL     1       5.237   6.701  16.807  0.00  0.00    +0.000 A 
BRANCH  18  21
ATOM     21  C   UNL     1       3.041   4.478  18.956  0.00  0.00    +0.000 A 
ATOM     22  C   UNL     1       2.305   3.625  18.113  0.00  0.00    +0.000 A 
ATOM     23  C   UNL     1       1.172   2.956  18.569  0.00  0.00    +0.000 A 
ATOM     24  C   UNL     1       0.759   3.118  19.894  0.00  0.00    +0.000 A 
ATOM     25  C   UNL     1       1.481   3.938  20.749  0.00  0.00    +0.000 A 
ATOM     26  C   UNL     1       2.612   4.611  20.287  0.00  0.00    +0.000 A 
ENDBRANCH  18  21
ENDBRANCH  14  15
ENDBRANCH   1  14
TORSDOF 10
ENDMDL
MODEL 4
REMARK VINA RESULT:      -6.9      3.636      5.205
REMARK  Name = 
REMARK  11 active torsions:
REMARK  status: ('A' for Active; 'I' for Inactive)
REMARK    1  A    between atoms: C_1  and  N_2
REMARK    2  A    between atoms: C_3  and  C_5
REMARK    3  A    between atoms: C_5  and  C_7
REMARK    4  A    between atoms: C_7  and  C_8
REMARK    5  A    between atoms: C_8  and  C_9
REMARK    6  A    between atoms: C_9  and  C_10
REMARK    7  A    between atoms: C_10  and  C_11
REMARK    8  A    between atoms: C_11  and  C_12
REMARK    9  A    between atoms: C_12  and  O_13
REMARK   10  A    between atoms: O_13  and  C_14
REMARK   11  A    between atoms: C_17  and  C_18
REMARK                            x       y       z     vdW  Elec       q    Type
REMARK                         _______ _______ _______ _____ _____    ______ ____
ROOT
ATOM      1  C   UNL     1       6.872   5.237  16.561  0.00  0.00    +0.000 C 
ENDROOT
BRANCH   1   2
ATOM      2  C   UNL     1       7.568   5.205  17.917  0.00  0.00    +0.000 C 
BRANCH   2   3
ATOM      3  C   UNL     1       7.759   6.614  18.466  0.00  0.00    +0.000 C 
BRANCH   3   4
ATOM      4  C   UNL     1       7.875   7.647  17.345  0.00  0.00    +0.000 C 
BRANCH   4   5
ATOM      5  C   UNL     1       7.816   9.066  17.912  0.00  0.00    +0.000 C 
BRANCH   5   6
ATOM      6  C   UNL     1       8.970   9.338  18.872  0.00  0.00    +0.000 C 
BRANCH   6   7
ATOM      7  C   UNL     1       9.464  10.764  18.763  0.00  0.00    +0.000 C 
ATOM      8  O   UNL     1       9.802  11.321  17.727  0.00  0.00    +0.000 OA
BRANCH   7  11
ATOM      9  C   UNL     1      10.178  13.701  21.062  0.00  0.00    +0.000 C 
ATOM     10  N   UNL     1      10.037  12.817  19.940  0.00  0.00    +0.000 N 
ATOM     11  C   UNL     1       9.534  11.546  20.078  0.00  0.00    +0.000 C 
ATOM     12  O   UNL     1       9.162  11.035  21.126  0.00  0.00    +0.000 OA
ATOM     13  H   UNL     1      10.307  13.109  19.003  0.00  0.00    +0.000 HD
ENDBRANCH   7  11
ENDBRANCH   6   7
ENDBRANCH   5   6
ENDBRANCH   4   5
ENDBRANCH   3   4
ENDBRANCH   2   3
ENDBRANCH   1   2
BRANCH   1  14
ATOM     14  O   UNL     1       5.574   4.660  16.715  0.00  0.00    +0.000 OA
BRANCH  14  15
ATOM     15  C   UNL     1       4.666   5.451  17.360  0.00  0.00    +0.000 A 
ATOM     16  C   UNL     1       4.433   6.694  16.780  0.00  0.00    +0.000 A 
ATOM     17  C   UNL     1       3.550   7.590  17.376  0.00  0.00    +0.000 A 
ATOM     18  C   UNL     1       2.849   7.256  18.548  0.00  0.00    +0.000 A 
ATOM     19  C   UNL     1       3.091   5.995  19.113  0.00  0.00    +0.000 A 
ATOM     20  C   UNL     1       3.988   5.101  18.526  0.00  0.00    +0.000 A 
BRANCH  18  21
ATOM     21  C   UNL     1       1.903   8.206  19.153  0.00  0.00    +0.000 A 
ATOM     22  C   UNL     1       1.370   9.266  18.396  0.00  0.00    +0.000 A 
ATOM     23  C   UNL     1       0.512  10.203  18.965  0.00  0.00    +0.000 A 
ATOM     24  C   UNL     1       0.155  10.088  20.310  0.00  0.00    +0.000 A 
ATOM     25  C   UNL     1       0.650   9.039  21.072  0.00  0.00    +0.000 A 
ATOM     26  C   UNL     1       1.514   8.105  20.500  0.00  0.00    +0.000 A 
ENDBRANCH  18  21
ENDBRANCH  14  15
ENDBRANCH   1  14
TORSDOF 10
ENDMDL
MODEL 5
REMARK VINA RESULT:      -6.9      5.798      8.876
REMARK  Name = 
REMARK  11 active torsions:
REMARK  status: ('A' for Active; 'I' for Inactive)
REMARK    1  A    between atoms: C_1  and  N_2
REMARK    2  A    between atoms: C_3  and  C_5
REMARK    3  A    between atoms: C_5  and  C_7
REMARK    4  A    between atoms: C_7  and  C_8
REMARK    5  A    between atoms: C_8  and  C_9
REMARK    6  A    between atoms: C_9  and  C_10
REMARK    7  A    between atoms: C_10  and  C_11
REMARK    8  A    between atoms: C_11  and  C_12
REMARK    9  A    between atoms: C_12  and  O_13
REMARK   10  A    between atoms: O_13  and  C_14
REMARK   11  A    between atoms: C_17  and  C_18
REMARK                            x       y       z     vdW  Elec       q    Type
REMARK                         _______ _______ _______ _____ _____    ______ ____
ROOT
ATOM      1  C   UNL     1       8.289   8.067  18.197  0.00  0.00    +0.000 C 
ENDROOT
BRANCH   1   2
ATOM      2  C   UNL     1       8.392   9.580  18.033  0.00  0.00    +0.000 C 
BRANCH   2   3
ATOM      3  C   UNL     1       9.234  10.193  19.145  0.00  0.00    +0.000 C 
BRANCH   3   4
ATOM      4  C   UNL     1      10.126  11.321  18.625  0.00  0.00    +0.000 C 
BRANCH   4   5
ATOM      5  C   UNL     1       9.355  12.642  18.582  0.00  0.00    +0.000 C 
BRANCH   5   6
ATOM      6  C   UNL     1      10.259  13.831  18.892  0.00  0.00    +0.000 C 
BRANCH   6   7
ATOM      7  C   UNL     1      10.579  14.630  17.648  0.00  0.00    +0.000 C 
ATOM      8  O   UNL     1      11.288  14.251  16.725  0.00  0.00    +0.000 OA
BRANCH   7  11
ATOM      9  C   UNL     1      10.459  18.416  17.384  0.00  0.00    +0.000 C 
ATOM     10  N   UNL     1      10.862  17.041  17.468  0.00  0.00    +0.000 N 
ATOM     11  C   UNL     1       9.947  16.022  17.570  0.00  0.00    +0.000 C 
ATOM     12  O   UNL     1       8.730  16.155  17.600  0.00  0.00    +0.000 OA
ATOM     13  H   UNL     1      11.847  16.780  17.454  0.00  0.00    +0.000 HD
ENDBRANCH   7  11
ENDBRANCH   6   7
ENDBRANCH   5   6
ENDBRANCH   4   5
ENDBRANCH   3   4
ENDBRANCH   2   3
ENDBRANCH   1   2
BRANCH   1  14
ATOM     14  O   UNL     1       7.654   7.538  17.032  0.00  0.00    +0.000 OA
BRANCH  14  15
ATOM     15  C   UNL     1       6.579   6.730  17.280  0.00  0.00    +0.000 A 
ATOM     16  C   UNL     1       6.742   5.812  18.312  0.00  0.00    +0.000 A 
ATOM     17  C   UNL     1       5.720   4.920  18.623  0.00  0.00    +0.000 A 
ATOM     18  C   UNL     1       4.494   4.945  17.937  0.00  0.00    +0.000 A 
ATOM     19  C   UNL     1       4.345   5.885  16.905  0.00  0.00    +0.000 A 
ATOM     20  C   UNL     1       5.374   6.769  16.581  0.00  0.00    +0.000 A 
BRANCH  18  21
ATOM     21  C   UNL     1       3.415   4.011  18.294  0.00  0.00    +0.000 A 
ATOM     22  C   UNL     1       2.160   4.491  18.712  0.00  0.00    +0.000 A 
ATOM     23  C   UNL     1       1.144   3.622  19.101  0.00  0.00    +0.000 A 
ATOM     24  C   UNL     1       1.360   2.243  19.064  0.00  0.00    +0.000 A 
ATOM     25  C   UNL     1       2.582   1.745  18.635  0.00  0.00    +0.000 A 
ATOM     26  C   UNL     1       3.600   2.618  18.251  0.00  0.00    +0.000 A 
ENDBRANCH  18  21
ENDBRANCH  14  15
ENDBRANCH   1  14
TORSDOF 10
ENDMDL
MODEL 6
REMARK VINA RESULT:      -6.8      2.391      3.845
REMARK  Name = 
REMARK  11 active torsions:
REMARK  status: ('A' for Active; 'I' for Inactive)
REMARK    1  A    between atoms: C_1  and  N_2
REMARK    2  A    between atoms: C_3  and  C_5
REMARK    3  A    between atoms: C_5  and  C_7
REMARK    4  A    between atoms: C_7  and  C_8
REMARK    5  A    between atoms: C_8  and  C_9
REMARK    6  A    between atoms: C_9  and  C_10
REMARK    7  A    between atoms: C_10  and  C_11
REMARK    8  A    between atoms: C_11  and  C_12
REMARK    9  A    between atoms: C_12  and  O_13
REMARK   10  A    between atoms: O_13  and  C_14
REMARK   11  A    between atoms: C_17  and  C_18
REMARK                            x       y       z     vdW  Elec       q    Type
REMARK                         _______ _______ _______ _____ _____    ______ ____
ROOT
ATOM      1  C   UNL     1       3.010   5.797  17.970  0.00  0.00    +0.000 C 
ENDROOT
BRANCH   1   2
ATOM      2  C   UNL     1       1.568   5.330  17.809  0.00  0.00    +0.000 C 
BRANCH   2   3
ATOM      3  C   UNL     1       1.338   4.008  18.531  0.00  0.00    +0.000 C 
BRANCH   3   4
ATOM      4  C   UNL     1       1.085   4.215  20.024  0.00  0.00    +0.000 C 
BRANCH   4   5
ATOM      5  C   UNL     1       2.345   3.902  20.834  0.00  0.00    +0.000 C 
BRANCH   5   6
ATOM      6  C   UNL     1       2.779   2.450  20.660  0.00  0.00    +0.000 C 
BRANCH   6   7
ATOM      7  C   UNL     1       4.260   2.339  20.374  0.00  0.00    +0.000 C 
ATOM      8  O   UNL     1       5.090   1.834  21.119  0.00  0.00    +0.000 OA
BRANCH   7  11
ATOM      9  C   UNL     1       6.322   4.466  17.998  0.00  0.00    +0.000 C 
ATOM     10  N   UNL     1       5.752   3.820  19.146  0.00  0.00    +0.000 N 
ATOM     11  C   UNL     1       4.724   2.916  19.033  0.00  0.00    +0.000 C 
ATOM     12  O   UNL     1       4.191   2.566  17.988  0.00  0.00    +0.000 OA
ATOM     13  H   UNL     1       6.099   4.014  20.084  0.00  0.00    +0.000 HD
ENDBRANCH   7  11
ENDBRANCH   6   7
ENDBRANCH   5   6
ENDBRANCH   4   5
ENDBRANCH   3   4
ENDBRANCH   2   3
ENDBRANCH   1   2
BRANCH   1  14
ATOM     14  O   UNL     1       3.041   7.213  17.782  0.00  0.00    +0.000 OA
BRANCH  14  15
ATOM     15  C   UNL     1       2.236   7.923  18.627  0.00  0.00    +0.000 A 
ATOM     16  C   UNL     1       1.556   8.993  18.053  0.00  0.00    +0.000 A 
ATOM     17  C   UNL     1       0.735   9.801  18.834  0.00  0.00    +0.000 A 
ATOM     18  C   UNL     1       0.542   9.542  20.202  0.00  0.00    +0.000 A 
ATOM     19  C   UNL     1       1.230   8.454  20.761  0.00  0.00    +0.000 A 
ATOM     20  C   UNL     1       2.065   7.652  19.984  0.00  0.00    +0.000 A 
BRANCH  18  21
ATOM     21  C   UNL     1      -0.347  10.393  21.009  0.00  0.00    +0.000 A 
ATOM     22  C   UNL     1      -1.068  11.443  20.413  0.00  0.00    +0.000 A 
ATOM     23  C   UNL     1      -1.876  12.289  21.168  0.00  0.00    +0.000 A 
ATOM     24  C   UNL     1      -1.989  12.089  22.546  0.00  0.00    +0.000 A 
ATOM     25  C   UNL     1      -1.304  11.046  23.154  0.00  0.00    +0.000 A 
ATOM     26  C   UNL     1      -0.492  10.205  22.394  0.00  0.00    +0.000 A 
ENDBRANCH  18  21
ENDBRANCH  14  15
ENDBRANCH   1  14
TORSDOF 10
ENDMDL
MODEL 7
REMARK VINA RESULT:      -6.8      3.010      3.880
REMARK  Name = 
REMARK  11 active torsions:
REMARK  status: ('A' for Active; 'I' for Inactive)
REMARK    1  A    between atoms: C_1  and  N_2
REMARK    2  A    between atoms: C_3  and  C_5
REMARK    3  A    between atoms: C_5  and  C_7
REMARK    4  A    between atoms: C_7  and  C_8
REMARK    5  A    between atoms: C_8  and  C_9
REMARK    6  A    between atoms: C_9  and  C_10
REMARK    7  A    between atoms: C_10  and  C_11
REMARK    8  A    between atoms: C_11  and  C_12
REMARK    9  A    between atoms: C_12  and  O_13
REMARK   10  A    between atoms: O_13  and  C_14
REMARK   11  A    between atoms: C_17  and  C_18
REMARK                            x       y       z     vdW  Elec       q    Type
REMARK                         _______ _______ _______ _____ _____    ______ ____
ROOT
ATOM      1  C   UNL     1       2.337   8.196  18.714  0.00  0.00    +0.000 C 
ENDROOT
BRANCH   1   2
ATOM      2  C   UNL     1       2.582   6.945  17.878  0.00  0.00    +0.000 C 
BRANCH   2   3
ATOM      3  C   UNL     1       2.808   5.729  18.769  0.00  0.00    +0.000 C 
BRANCH   3   4
ATOM      4  C   UNL     1       4.274   5.294  18.772  0.00  0.00    +0.000 C 
BRANCH   4   5
ATOM      5  C   UNL     1       4.901   5.501  17.392  0.00  0.00    +0.000 C 
BRANCH   5   6
ATOM      6  C   UNL     1       5.496   4.207  16.845  0.00  0.00    +0.000 C 
BRANCH   6   7
ATOM      7  C   UNL     1       6.894   4.419  16.305  0.00  0.00    +0.000 C 
ATOM      8  O   UNL     1       7.914   4.473  16.980  0.00  0.00    +0.000 OA
BRANCH   7  11
ATOM      9  C   UNL     1       6.285   3.605  12.647  0.00  0.00    +0.000 C 
ATOM     10  N   UNL     1       6.303   3.624  14.082  0.00  0.00    +0.000 N 
ATOM     11  C   UNL     1       7.004   4.572  14.786  0.00  0.00    +0.000 C 
ATOM     12  O   UNL     1       7.671   5.476  14.298  0.00  0.00    +0.000 OA
ATOM     13  H   UNL     1       5.790   2.930  14.622  0.00  0.00    +0.000 HD
ENDBRANCH   7  11
ENDBRANCH   6   7
ENDBRANCH   5   6
ENDBRANCH   4   5
ENDBRANCH   3   4
ENDBRANCH   2   3
ENDBRANCH   1   2
BRANCH   1  14
ATOM     14  O   UNL     1       1.837   7.787  19.988  0.00  0.00    +0.000 OA
BRANCH  14  15
ATOM     15  C   UNL     1       1.140   8.746  20.668  0.00  0.00    +0.000 A 
ATOM     16  C   UNL     1       0.799   9.877  19.931  0.00  0.00    +0.000 A 
ATOM     17  C   UNL     1       0.117  10.927  20.539  0.00  0.00    +0.000 A 
ATOM     18  C   UNL     1      -0.274  10.863  21.887  0.00  0.00    +0.000 A 
ATOM     19  C   UNL     1       0.072   9.711  22.610  0.00  0.00    +0.000 A 
ATOM     20  C   UNL     1       0.769   8.664  22.008  0.00  0.00    +0.000 A 
BRANCH  18  21
ATOM     21  C   UNL     1      -1.014  11.973  22.507  0.00  0.00    +0.000 A 
ATOM     22  C   UNL     1      -2.249  11.745  23.141  0.00  0.00    +0.000 A 
ATOM     23  C   UNL     1      -2.987  12.791  23.690  0.00  0.00    +0.000 A 
ATOM     24  C   UNL     1      -2.491  14.095  23.628  0.00  0.00    +0.000 A 
ATOM     25  C   UNL     1      -1.265  14.342  23.027  0.00  0.00    +0.000 A 
ATOM     26  C   UNL     1      -0.531  13.293  22.473  0.00  0.00    +0.000 A 
ENDBRANCH  18  21
ENDBRANCH  14  15
ENDBRANCH   1  14
TORSDOF 10
ENDMDL
MODEL 8
REMARK VINA RESULT:      -6.8      5.632      8.400
REMARK  Name = 
REMARK  11 active torsions:
REMARK  status: ('A' for Active; 'I' for Inactive)
REMARK    1  A    between atoms: C_1  and  N_2
REMARK    2  A    between atoms: C_3  and  C_5
REMARK    3  A    between atoms: C_5  and  C_7
REMARK    4  A    between atoms: C_7  and  C_8
REMARK    5  A    between atoms: C_8  and  C_9
REMARK    6  A    between atoms: C_9  and  C_10
REMARK    7  A    between atoms: C_10  and  C_11
REMARK    8  A    between atoms: C_11  and  C_12
REMARK    9  A    between atoms: C_12  and  O_13
REMARK   10  A    between atoms: O_13  and  C_14
REMARK   11  A    between atoms: C_17  and  C_18
REMARK                            x       y       z     vdW  Elec       q    Type
REMARK                         _______ _______ _______ _____ _____    ______ ____
ROOT
ATOM      1  C   UNL     1       8.102   7.768  17.410  0.00  0.00    +0.000 C 
ENDROOT
BRANCH   1   2
ATOM      2  C   UNL     1       7.844   9.206  17.846  0.00  0.00    +0.000 C 
BRANCH   2   3
ATOM      3  C   UNL     1       8.922   9.686  18.811  0.00  0.00    +0.000 C 
BRANCH   3   4
ATOM      4  C   UNL     1       9.792  10.779  18.189  0.00  0.00    +0.000 C 
BRANCH   4   5
ATOM      5  C   UNL     1       9.489  12.136  18.826  0.00  0.00    +0.000 C 
BRANCH   5   6
ATOM      6  C   UNL     1       9.188  13.198  17.772  0.00  0.00    +0.000 C 
BRANCH   6   7
ATOM      7  C   UNL     1      10.422  13.997  17.415  0.00  0.00    +0.000 C 
ATOM      8  O   UNL     1      11.461  13.534  16.962  0.00  0.00    +0.000 OA
BRANCH   7  11
ATOM      9  C   UNL     1      11.548  17.623  17.403  0.00  0.00    +0.000 C 
ATOM     10  N   UNL     1      11.449  16.199  17.261  0.00  0.00    +0.000 N 
ATOM     11  C   UNL     1      10.328  15.507  17.650  0.00  0.00    +0.000 C 
ATOM     12  O   UNL     1       9.321  15.998  18.144  0.00  0.00    +0.000 OA
ATOM     13  H   UNL     1      12.214  15.656  16.864  0.00  0.00    +0.000 HD
ENDBRANCH   7  11
ENDBRANCH   6   7
ENDBRANCH   5   6
ENDBRANCH   4   5
ENDBRANCH   3   4
ENDBRANCH   2   3
ENDBRANCH   1   2
BRANCH   1  14
ATOM     14  O   UNL     1       6.940   7.297  16.726  0.00  0.00    +0.000 OA
BRANCH  14  15
ATOM     15  C   UNL     1       6.090   6.545  17.486  0.00  0.00    +0.000 A 
ATOM     16  C   UNL     1       4.734   6.722  17.227  0.00  0.00    +0.000 A 
ATOM     17  C   UNL     1       3.783   6.027  17.969  0.00  0.00    +0.000 A 
ATOM     18  C   UNL     1       4.160   5.110  18.965  0.00  0.00    +0.000 A 
ATOM     19  C   UNL     1       5.532   4.938  19.205  0.00  0.00    +0.000 A 
ATOM     20  C   UNL     1       6.486   5.645  18.474  0.00  0.00    +0.000 A 
BRANCH  18  21
ATOM     21  C   UNL     1       3.142   4.367  19.724  0.00  0.00    +0.000 A 
ATOM     22  C   UNL     1       3.505   3.265  20.520  0.00  0.00    +0.000 A 
ATOM     23  C   UNL     1       2.550   2.520  21.206  0.00  0.00    +0.000 A 
ATOM     24  C   UNL     1       1.202   2.876  21.120  0.00  0.00    +0.000 A 
ATOM     25  C   UNL     1       0.822   3.972  20.359  0.00  0.00    +0.000 A 
ATOM     26  C   UNL     1       1.781   4.712  19.669  0.00  0.00    +0.000 A 
ENDBRANCH  18  21
ENDBRANCH  14  15
ENDBRANCH   1  14
TORSDOF 10
ENDMDL
MODEL 9
REMARK VINA RESULT:      -6.8      2.599      4.327
REMARK  Name = 
REMARK  11 active torsions:
REMARK  status: ('A' for Active; 'I' for Inactive)
REMARK    1  A    between atoms: C_1  and  N_2
REMARK    2  A    between atoms: C_3  and  C_5
REMARK    3  A    between atoms: C_5  and  C_7
REMARK    4  A    between atoms: C_7  and  C_8
REMARK    5  A    between atoms: C_8  and  C_9
REMARK    6  A    between atoms: C_9  and  C_10
REMARK    7  A    between atoms: C_10  and  C_11
REMARK    8  A    between atoms: C_11  and  C_12
REMARK    9  A    between atoms: C_12  and  O_13
REMARK   10  A    between atoms: O_13  and  C_14
REMARK   11  A    between atoms: C_17  and  C_18
REMARK                            x       y       z     vdW  Elec       q    Type
REMARK                         _______ _______ _______ _____ _____    ______ ____
ROOT
ATOM      1  C   UNL     1       4.663   7.092  17.333  0.00  0.00    +0.000 C 
ENDROOT
BRANCH   1   2
ATOM      2  C   UNL     1       5.300   6.480  16.090  0.00  0.00    +0.000 C 
BRANCH   2   3
ATOM      3  C   UNL     1       5.548   4.988  16.282  0.00  0.00    +0.000 C 
BRANCH   3   4
ATOM      4  C   UNL     1       6.139   4.685  17.658  0.00  0.00    +0.000 C 
BRANCH   4   5
ATOM      5  C   UNL     1       5.208   3.771  18.457  0.00  0.00    +0.000 C 
BRANCH   5   6
ATOM      6  C   UNL     1       4.060   3.249  17.598  0.00  0.00    +0.000 C 
BRANCH   6   7
ATOM      7  C   UNL     1       3.287   2.155  18.302  0.00  0.00    +0.000 C 
ATOM      8  O   UNL     1       3.640   0.987  18.398  0.00  0.00    +0.000 OA
BRANCH   7  11
ATOM      9  C   UNL     1       0.957   4.094  20.589  0.00  0.00    +0.000 C 
ATOM     10  N   UNL     1       2.090   3.565  19.885  0.00  0.00    +0.000 N 
ATOM     11  C   UNL     1       1.960   2.581  18.936  0.00  0.00    +0.000 C 
ATOM     12  O   UNL     1       0.909   2.057  18.590  0.00  0.00    +0.000 OA
ATOM     13  H   UNL     1       3.031   3.909  20.071  0.00  0.00    +0.000 HD
ENDBRANCH   7  11
ENDBRANCH   6   7
ENDBRANCH   5   6
ENDBRANCH   4   5
ENDBRANCH   3   4
ENDBRANCH   2   3
ENDBRANCH   1   2
BRANCH   1  14
ATOM     14  O   UNL     1       3.244   7.026  17.181  0.00  0.00    +0.000 OA
BRANCH  14  15
ATOM     15  C   UNL     1       2.531   7.637  18.174  0.00  0.00    +0.000 A 
ATOM     16  C   UNL     1       1.895   8.821  17.815  0.00  0.00    +0.000 A 
ATOM     17  C   UNL     1       1.168   9.539  18.761  0.00  0.00    +0.000 A 
ATOM     18  C   UNL     1       1.028   9.077  20.080  0.00  0.00    +0.000 A 
ATOM     19  C   UNL     1       1.669   7.876  20.420  0.00  0.00    +0.000 A 
ATOM     20  C   UNL     1       2.410   7.163  19.479  0.00  0.00    +0.000 A 
BRANCH  18  21
ATOM     21  C   UNL     1       0.238   9.837  21.061  0.00  0.00    +0.000 A 
ATOM     22  C   UNL     1      -0.247  11.121  20.750  0.00  0.00    +0.000 A 
ATOM     23  C   UNL     1      -0.953  11.875  21.684  0.00  0.00    +0.000 A 
ATOM     24  C   UNL     1      -1.204  11.348  22.952  0.00  0.00    +0.000 A 
ATOM     25  C   UNL     1      -0.755  10.075  23.275  0.00  0.00    +0.000 A 
ATOM     26  C   UNL     1      -0.042   9.325  22.340  0.00  0.00    +0.000 A 
ENDBRANCH  18  21
ENDBRANCH  14  15
ENDBRANCH   1  14
TORSDOF 10
ENDMDL
