MODEL 1
REMARK VINA RESULT:      -7.3      0.000      0.000
REMARK  Name = 
REMARK  7 active torsions:
REMARK  status: ('A' for Active; 'I' for Inactive)
REMARK    1  A    between atoms: C_1  and  N_2
REMARK    2  A    between atoms: N_2  and  C_3
REMARK    3  A    between atoms: C_4  and  C_6
REMARK    4  A    between atoms: C_6  and  N_7
REMARK    5  A    between atoms: C_8  and  C_10
REMARK    6  A    between atoms: C_12  and  C_13
REMARK    7  A    between atoms: N_16  and  C_17
REMARK                            x       y       z     vdW  Elec       q    Type
REMARK                         _______ _______ _______ _____ _____    ______ ____
ROOT
ATOM      1  C   UNL     1       2.285   8.213  18.369  0.00  0.00    +0.000 A 
ATOM      2  N   UNL     1       3.388   7.717  17.707  0.00  0.00    +0.000 NA
ATOM      3  C   UNL     1       3.555   6.509  18.212  0.00  0.00    +0.000 A 
ATOM      4  N   UNL     1       2.499   6.230  19.079  0.00  0.00    +0.000 N 
ATOM      5  N   UNL     1       1.722   7.331  19.210  0.00  0.00    +0.000 NA
ENDROOT
BRANCH   4   6
ATOM      6  C   UNL     1       2.143   5.004  19.703  0.00  0.00    +0.000 A 
ATOM      7  C   UNL     1       2.451   4.806  21.059  0.00  0.00    +0.000 A 
ATOM      8  C   UNL     1       2.191   3.580  21.682  0.00  0.00    +0.000 A 
ATOM      9  C   UNL     1       1.596   2.552  20.968  0.00  0.00    +0.000 A 
ATOM     10  C   UNL     1       1.243   2.748  19.633  0.00  0.00    +0.000 A 
ATOM     11  C   UNL     1       1.508   3.967  18.994  0.00  0.00    +0.000 A 
ATOM     12 CL   UNL     1       1.118   4.008  17.305  0.00  0.00    +0.000 Cl
ENDBRANCH   4   6
BRANCH   1  14
ATOM     13  N   UNL     1       0.468   9.768  18.702  0.00  0.00    +0.000 N 
ATOM     14  C   UNL     1       1.738   9.581  18.181  0.00  0.00    +0.000 C 
ATOM     15  O   UNL     1       2.349  10.478  17.597  0.00  0.00    +0.000 OA
ATOM     16  H   UNL     1       0.081   9.011  19.259  0.00  0.00    +0.000 HD
BRANCH  13  17
ATOM     17  C   UNL     1      -0.230  11.043  18.650  0.00  0.00    +0.000 C 
BRANCH  17  21
ATOM     18  C   UNL     1      -4.002  11.544  18.062  0.00  0.00    +0.000 C 
ATOM     19  N   UNL     1      -2.675  11.630  18.653  0.00  0.00    +0.000 N 
ATOM     20  C   UNL     1      -2.510  12.446  19.847  0.00  0.00    +0.000 C 
ATOM     21  C   UNL     1      -1.641  10.915  18.047  0.00  0.00    +0.000 C 
ATOM     22  O   UNL     1      -1.828  10.260  17.017  0.00  0.00    +0.000 OA
ENDBRANCH  17  21
ENDBRANCH  13  17
ENDBRANCH   1  14
BRANCH   3  23
ATOM     23  C   UNL     1       4.721   5.607  17.802  0.00  0.00    +0.000 C 
ATOM     24  C   UNL     1       4.522   4.509  16.790  0.00  0.00    +0.000 C 
ATOM     25  C   UNL     1       5.331   5.724  16.431  0.00  0.00    +0.000 C 
ENDBRANCH   3  23
TORSDOF 5
ENDMDL
MODEL 2
REMARK VINA RESULT:      -7.2      2.265      4.230
REMARK  Name = 
REMARK  7 active torsions:
REMARK  status: ('A' for Active; 'I' for Inactive)
REMARK    1  A    between atoms: C_1  and  N_2
REMARK    2  A    between atoms: N_2  and  C_3
REMARK    3  A    between atoms: C_4  and  C_6
REMARK    4  A    between atoms: C_6  and  N_7
REMARK    5  A    between atoms: C_8  and  C_10
REMARK    6  A    between atoms: C_12  and  C_13
REMARK    7  A    between atoms: N_16  and  C_17
REMARK                            x       y       z     vdW  Elec       q    Type
REMARK                         _______ _______ _______ _____ _____    ______ ____
ROOT
ATOM      1  C   UNL     1       2.630   7.907  18.078  0.00  0.00    +0.000 A 
ATOM      2  N   UNL     1       2.140   6.762  18.670  0.00  0.00    +0.000 NA
ATOM      3  C   UNL     1       2.908   5.798  18.200  0.00  0.00    +0.000 A 
ATOM      4  N   UNL     1       3.924   6.361  17.429  0.00  0.00    +0.000 N 
ATOM      5  N   UNL     1       3.716   7.694  17.317  0.00  0.00    +0.000 NA
ENDROOT
BRANCH   4   6
ATOM      6  C   UNL     1       5.086   5.753  16.882  0.00  0.00    +0.000 A 
ATOM      7  C   UNL     1       5.188   5.591  15.491  0.00  0.00    +0.000 A 
ATOM      8  C   UNL     1       6.279   4.921  14.925  0.00  0.00    +0.000 A 
ATOM      9  C   UNL     1       7.290   4.433  15.739  0.00  0.00    +0.000 A 
ATOM     10  C   UNL     1       7.225   4.625  17.118  0.00  0.00    +0.000 A 
ATOM     11  C   UNL     1       6.133   5.285  17.698  0.00  0.00    +0.000 A 
ATOM     12 CL   UNL     1       6.145   5.336  19.432  0.00  0.00    +0.000 Cl
ENDBRANCH   4   6
BRANCH   1  14
ATOM     13  N   UNL     1       1.149   9.366  19.305  0.00  0.00    +0.000 N 
ATOM     14  C   UNL     1       2.045   9.261  18.255  0.00  0.00    +0.000 C 
ATOM     15  O   UNL     1       2.318  10.214  17.522  0.00  0.00    +0.000 OA
ATOM     16  H   UNL     1       1.063   8.562  19.921  0.00  0.00    +0.000 HD
BRANCH  13  17
ATOM     17  C   UNL     1       0.491  10.613  19.665  0.00  0.00    +0.000 C 
BRANCH  17  21
ATOM     18  C   UNL     1      -1.174  11.501  23.020  0.00  0.00    +0.000 C 
ATOM     19  N   UNL     1      -0.901  11.429  21.593  0.00  0.00    +0.000 N 
ATOM     20  C   UNL     1      -1.817  12.104  20.686  0.00  0.00    +0.000 C 
ATOM     21  C   UNL     1       0.230  10.723  21.177  0.00  0.00    +0.000 C 
ATOM     22  O   UNL     1       0.960  10.143  21.986  0.00  0.00    +0.000 OA
ENDBRANCH  17  21
ENDBRANCH  13  17
ENDBRANCH   1  14
BRANCH   3  23
ATOM     23  C   UNL     1       2.678   4.326  18.552  0.00  0.00    +0.000 C 
ATOM     24  C   UNL     1       1.433   3.613  18.093  0.00  0.00    +0.000 C 
ATOM     25  C   UNL     1       2.764   3.265  17.487  0.00  0.00    +0.000 C 
ENDBRANCH   3  23
TORSDOF 5
ENDMDL
MODEL 3
REMARK VINA RESULT:      -7.2      1.798      3.796
REMARK  Name = 
REMARK  7 active torsions:
REMARK  status: ('A' for Active; 'I' for Inactive)
REMARK    1  A    between atoms: C_1  and  N_2
REMARK    2  A    between atoms: N_2  and  C_3
REMARK    3  A    between atoms: C_4  and  C_6
REMARK    4  A    between atoms: C_6  and  N_7
REMARK    5  A    between atoms: C_8  and  C_10
REMARK    6  A    between atoms: C_12  and  C_13
REMARK    7  A    between atoms: N_16  and  C_17
REMARK                            x       y       z     vdW  Elec       q    Type
REMARK                         _______ _______ _______ _____ _____    ______ ____
ROOT
ATOM      1  C   UNL     1       2.599   7.835  18.060  0.00  0.00    +0.000 A 
ATOM      2  N   UNL     1       2.123   6.679  18.643  0.00  0.00    +0.000 NA
ATOM      3  C   UNL     1       2.908   5.729  18.172  0.00  0.00    +0.000 A 
ATOM      4  N   UNL     1       3.919   6.312  17.409  0.00  0.00    +0.000 N 
ATOM      5  N   UNL     1       3.692   7.642  17.303  0.00  0.00    +0.000 NA
ENDROOT
BRANCH   4   6
ATOM      6  C   UNL     1       5.093   5.724  16.864  0.00  0.00    +0.000 A 
ATOM      7  C   UNL     1       5.199   5.560  15.473  0.00  0.00    +0.000 A 
ATOM      8  C   UNL     1       6.302   4.909  14.910  0.00  0.00    +0.000 A 
ATOM      9  C   UNL     1       7.322   4.442  15.726  0.00  0.00    +0.000 A 
ATOM     10  C   UNL     1       7.252   4.638  17.105  0.00  0.00    +0.000 A 
ATOM     11  C   UNL     1       6.148   5.278  17.682  0.00  0.00    +0.000 A 
ATOM     12 CL   UNL     1       6.159   5.335  19.416  0.00  0.00    +0.000 Cl
ENDBRANCH   4   6
BRANCH   1  14
ATOM     13  N   UNL     1       1.015   9.239  19.219  0.00  0.00    +0.000 N 
ATOM     14  C   UNL     1       1.994   9.178  18.242  0.00  0.00    +0.000 C 
ATOM     15  O   UNL     1       2.317  10.160  17.571  0.00  0.00    +0.000 OA
ATOM     16  H   UNL     1       0.885   8.412  19.795  0.00  0.00    +0.000 HD
BRANCH  13  17
ATOM     17  C   UNL     1       0.322  10.469  19.573  0.00  0.00    +0.000 C 
BRANCH  17  21
ATOM     18  C   UNL     1      -3.183  11.717  18.587  0.00  0.00    +0.000 C 
ATOM     19  N   UNL     1      -1.946  11.526  19.328  0.00  0.00    +0.000 N 
ATOM     20  C   UNL     1      -1.769  12.265  20.569  0.00  0.00    +0.000 C 
ATOM     21  C   UNL     1      -1.004  10.636  18.809  0.00  0.00    +0.000 C 
ATOM     22  O   UNL     1      -1.190  10.054  17.736  0.00  0.00    +0.000 OA
ENDBRANCH  17  21
ENDBRANCH  13  17
ENDBRANCH   1  14
BRANCH   3  23
ATOM     23  C   UNL     1       2.699   4.252  18.515  0.00  0.00    +0.000 C 
ATOM     24  C   UNL     1       1.421   3.550  18.136  0.00  0.00    +0.000 C 
ATOM     25  C   UNL     1       2.702   3.209  17.429  0.00  0.00    +0.000 C 
ENDBRANCH   3  23
TORSDOF 5
ENDMDL
MODEL 4
REMARK VINA RESULT:      -7.2      2.074      4.048
REMARK  Name = 
REMARK  7 active torsions:
REMARK  status: ('A' for Active; 'I' for Inactive)
REMARK    1  A    between atoms: C_1  and  N_2
REMARK    2  A    between atoms: N_2  and  C_3
REMARK    3  A    between atoms: C_4  and  C_6
REMARK    4  A    between atoms: C_6  and  N_7
REMARK    5  A    between atoms: C_8  and  C_10
REMARK    6  A    between atoms: C_12  and  C_13
REMARK    7  A    between atoms: N_16  and  C_17
REMARK                            x       y       z     vdW  Elec       q    Type
REMARK                         _______ _______ _______ _____ _____    ______ ____
ROOT
ATOM      1  C   UNL     1       2.475   6.906  18.634  0.00  0.00    +0.000 A 
ATOM      2  N   UNL     1       1.924   5.642  18.598  0.00  0.00    +0.000 NA
ATOM      3  C   UNL     1       2.738   4.954  17.820  0.00  0.00    +0.000 A 
ATOM      4  N   UNL     1       3.831   5.753  17.487  0.00  0.00    +0.000 N 
ATOM      5  N   UNL     1       3.636   7.004  17.967  0.00  0.00    +0.000 NA
ENDROOT
BRANCH   4   6
ATOM      6  C   UNL     1       5.044   5.399  16.838  0.00  0.00    +0.000 A 
ATOM      7  C   UNL     1       5.075   5.307  15.436  0.00  0.00    +0.000 A 
ATOM      8  C   UNL     1       6.230   4.879  14.771  0.00  0.00    +0.000 A 
ATOM      9  C   UNL     1       7.370   4.568  15.494  0.00  0.00    +0.000 A 
ATOM     10  C   UNL     1       7.370   4.697  16.882  0.00  0.00    +0.000 A 
ATOM     11  C   UNL     1       6.217   5.114  17.562  0.00  0.00    +0.000 A 
ATOM     12 CL   UNL     1       6.345   5.108  19.292  0.00  0.00    +0.000 Cl
ENDBRANCH   4   6
BRANCH   1  14
ATOM     13  N   UNL     1       1.527   9.123  18.524  0.00  0.00    +0.000 N 
ATOM     14  C   UNL     1       1.875   8.064  19.345  0.00  0.00    +0.000 C 
ATOM     15  O   UNL     1       1.711   8.094  20.566  0.00  0.00    +0.000 OA
ATOM     16  H   UNL     1       1.598   8.974  17.522  0.00  0.00    +0.000 HD
BRANCH  13  17
ATOM     17  C   UNL     1       0.897  10.337  19.020  0.00  0.00    +0.000 C 
BRANCH  17  21
ATOM     18  C   UNL     1      -2.709  11.629  18.640  0.00  0.00    +0.000 C 
ATOM     19  N   UNL     1      -1.357  11.444  19.144  0.00  0.00    +0.000 N 
ATOM     20  C   UNL     1      -0.935  12.247  20.282  0.00  0.00    +0.000 C 
ATOM     21  C   UNL     1      -0.547  10.499  18.512  0.00  0.00    +0.000 C 
ATOM     22  O   UNL     1      -0.944   9.863  17.531  0.00  0.00    +0.000 OA
ENDBRANCH  17  21
ENDBRANCH  13  17
ENDBRANCH   1  14
BRANCH   3  23
ATOM     23  C   UNL     1       2.472   3.493  17.449  0.00  0.00    +0.000 C 
ATOM     24  C   UNL     1       3.256   2.382  18.097  0.00  0.00    +0.000 C 
ATOM     25  C   UNL     1       1.802   2.567  18.428  0.00  0.00    +0.000 C 
ENDBRANCH   3  23
TORSDOF 5
ENDMDL
MODEL 5
REMARK VINA RESULT:      -7.1      2.445      4.389
REMARK  Name = 
REMARK  7 active torsions:
REMARK  status: ('A' for Active; 'I' for Inactive)
REMARK    1  A    between atoms: C_1  and  N_2
REMARK    2  A    between atoms: N_2  and  C_3
REMARK    3  A    between atoms: C_4  and  C_6
REMARK    4  A    between atoms: C_6  and  N_7
REMARK    5  A    between atoms: C_8  and  C_10
REMARK    6  A    between atoms: C_12  and  C_13
REMARK    7  A    between atoms: N_16  and  C_17
REMARK                            x       y       z     vdW  Elec       q    Type
REMARK                         _______ _______ _______ _____ _____    ______ ____
ROOT
ATOM      1  C   UNL     1       2.542   7.851  18.061  0.00  0.00    +0.000 A 
ATOM      2  N   UNL     1       2.106   6.713  18.708  0.00  0.00    +0.000 NA
ATOM      3  C   UNL     1       2.901   5.760  18.260  0.00  0.00    +0.000 A 
ATOM      4  N   UNL     1       3.880   6.329  17.447  0.00  0.00    +0.000 N 
ATOM      5  N   UNL     1       3.620   7.648  17.287  0.00  0.00    +0.000 NA
ENDROOT
BRANCH   4   6
ATOM      6  C   UNL     1       5.054   5.742  16.901  0.00  0.00    +0.000 A 
ATOM      7  C   UNL     1       5.153   5.567  15.511  0.00  0.00    +0.000 A 
ATOM      8  C   UNL     1       6.257   4.917  14.947  0.00  0.00    +0.000 A 
ATOM      9  C   UNL     1       7.283   4.463  15.760  0.00  0.00    +0.000 A 
ATOM     10  C   UNL     1       7.220   4.669  17.138  0.00  0.00    +0.000 A 
ATOM     11  C   UNL     1       6.116   5.309  17.717  0.00  0.00    +0.000 A 
ATOM     12 CL   UNL     1       6.136   5.380  19.449  0.00  0.00    +0.000 Cl
ENDBRANCH   4   6
BRANCH   1  14
ATOM     13  N   UNL     1       0.933   9.265  19.176  0.00  0.00    +0.000 N 
ATOM     14  C   UNL     1       1.910   9.188  18.196  0.00  0.00    +0.000 C 
ATOM     15  O   UNL     1       2.211  10.151  17.489  0.00  0.00    +0.000 OA
ATOM     16  H   UNL     1       0.822   8.457  19.781  0.00  0.00    +0.000 HD
BRANCH  13  17
ATOM     17  C   UNL     1       0.218  10.492  19.487  0.00  0.00    +0.000 C 
BRANCH  17  21
ATOM     18  C   UNL     1       2.076  13.549  20.909  0.00  0.00    +0.000 C 
ATOM     19  N   UNL     1       1.368  12.671  19.990  0.00  0.00    +0.000 N 
ATOM     20  C   UNL     1       1.092  13.162  18.649  0.00  0.00    +0.000 C 
ATOM     21  C   UNL     1       1.004  11.403  20.447  0.00  0.00    +0.000 C 
ATOM     22  O   UNL     1       1.237  11.044  21.606  0.00  0.00    +0.000 OA
ENDBRANCH  17  21
ENDBRANCH  13  17
ENDBRANCH   1  14
BRANCH   3  23
ATOM     23  C   UNL     1       2.734   4.296  18.675  0.00  0.00    +0.000 C 
ATOM     24  C   UNL     1       1.578   3.480  18.159  0.00  0.00    +0.000 C 
ATOM     25  C   UNL     1       2.973   3.190  17.682  0.00  0.00    +0.000 C 
ENDBRANCH   3  23
TORSDOF 5
ENDMDL
MODEL 6
REMARK VINA RESULT:      -7.1      3.097      8.059
REMARK  Name = 
REMARK  7 active torsions:
REMARK  status: ('A' for Active; 'I' for Inactive)
REMARK    1  A    between atoms: C_1  and  N_2
REMARK    2  A    between atoms: N_2  and  C_3
REMARK    3  A    between atoms: C_4  and  C_6
REMARK    4  A    between atoms: C_6  and  N_7
REMARK    5  A    between atoms: C_8  and  C_10
REMARK    6  A    between atoms: C_12  and  C_13
REMARK    7  A    between atoms: N_16  and  C_17
REMARK                            x       y       z     vdW  Elec       q    Type
REMARK                         _______ _______ _______ _____ _____    ______ ____
ROOT
ATOM      1  C   UNL     1       1.969   7.782  19.511  0.00  0.00    +0.000 A 
ATOM      2  N   UNL     1       1.563   7.968  20.816  0.00  0.00    +0.000 NA
ATOM      3  C   UNL     1       1.180   9.230  20.860  0.00  0.00    +0.000 A 
ATOM      4  N   UNL     1       1.239   9.768  19.575  0.00  0.00    +0.000 N 
ATOM      5  N   UNL     1       1.784   8.859  18.732  0.00  0.00    +0.000 NA
ENDROOT
BRANCH   4   6
ATOM      6  C   UNL     1       0.750  11.013  19.094  0.00  0.00    +0.000 A 
ATOM      7  C   UNL     1       1.580  12.145  19.147  0.00  0.00    +0.000 A 
ATOM      8  C   UNL     1       1.102  13.402  18.759  0.00  0.00    +0.000 A 
ATOM      9  C   UNL     1      -0.195  13.536  18.290  0.00  0.00    +0.000 A 
ATOM     10  C   UNL     1      -1.016  12.414  18.188  0.00  0.00    +0.000 A 
ATOM     11  C   UNL     1      -0.554  11.151  18.583  0.00  0.00    +0.000 A 
ATOM     12 CL   UNL     1      -1.735   9.883  18.507  0.00  0.00    +0.000 Cl
ENDBRANCH   4   6
BRANCH   1  14
ATOM     13  N   UNL     1       3.427   5.887  19.846  0.00  0.00    +0.000 N 
ATOM     14  C   UNL     1       2.547   6.519  18.984  0.00  0.00    +0.000 C 
ATOM     15  O   UNL     1       2.283   6.072  17.866  0.00  0.00    +0.000 OA
ATOM     16  H   UNL     1       3.506   6.266  20.786  0.00  0.00    +0.000 HD
BRANCH  13  17
ATOM     17  C   UNL     1       4.076   4.623  19.531  0.00  0.00    +0.000 C 
BRANCH  17  21
ATOM     18  C   UNL     1       7.175   4.688  17.249  0.00  0.00    +0.000 C 
ATOM     19  N   UNL     1       5.817   4.474  17.723  0.00  0.00    +0.000 N 
ATOM     20  C   UNL     1       4.848   3.909  16.795  0.00  0.00    +0.000 C 
ATOM     21  C   UNL     1       5.524   4.812  19.046  0.00  0.00    +0.000 C 
ATOM     22  O   UNL     1       6.376   5.315  19.785  0.00  0.00    +0.000 OA
ENDBRANCH  17  21
ENDBRANCH  13  17
ENDBRANCH   1  14
BRANCH   3  23
ATOM     23  C   UNL     1       0.702   9.894  22.154  0.00  0.00    +0.000 C 
ATOM     24  C   UNL     1      -0.651  10.552  22.224  0.00  0.00    +0.000 C 
ATOM     25  C   UNL     1      -0.400   9.271  22.969  0.00  0.00    +0.000 C 
ENDBRANCH   3  23
TORSDOF 5
ENDMDL
MODEL 7
REMARK VINA RESULT:      -7.1      1.348      1.867
REMARK  Name = 
REMARK  7 active torsions:
REMARK  status: ('A' for Active; 'I' for Inactive)
REMARK    1  A    between atoms: C_1  and  N_2
REMARK    2  A    between atoms: N_2  and  C_3
REMARK    3  A    between atoms: C_4  and  C_6
REMARK    4  A    between atoms: C_6  and  N_7
REMARK    5  A    between atoms: C_8  and  C_10
REMARK    6  A    between atoms: C_12  and  C_13
REMARK    7  A    between atoms: N_16  and  C_17
REMARK                            x       y       z     vdW  Elec       q    Type
REMARK                         _______ _______ _______ _____ _____    ______ ____
ROOT
ATOM      1  C   UNL     1       2.322   8.209  18.457  0.00  0.00    +0.000 A 
ATOM      2  N   UNL     1       3.401   7.703  17.764  0.00  0.00    +0.000 NA
ATOM      3  C   UNL     1       3.549   6.480  18.238  0.00  0.00    +0.000 A 
ATOM      4  N   UNL     1       2.503   6.206  19.119  0.00  0.00    +0.000 N 
ATOM      5  N   UNL     1       1.754   7.321  19.289  0.00  0.00    +0.000 NA
ENDROOT
BRANCH   4   6
ATOM      6  C   UNL     1       2.130   4.974  19.722  0.00  0.00    +0.000 A 
ATOM      7  C   UNL     1       2.442   4.746  21.073  0.00  0.00    +0.000 A 
ATOM      8  C   UNL     1       2.165   3.514  21.674  0.00  0.00    +0.000 A 
ATOM      9  C   UNL     1       1.549   2.509  20.944  0.00  0.00    +0.000 A 
ATOM     10  C   UNL     1       1.192   2.736  19.616  0.00  0.00    +0.000 A 
ATOM     11  C   UNL     1       1.473   3.962  18.998  0.00  0.00    +0.000 A 
ATOM     12 CL   UNL     1       1.075   4.040  17.312  0.00  0.00    +0.000 Cl
ENDBRANCH   4   6
BRANCH   1  14
ATOM     13  N   UNL     1       0.705   9.882  19.102  0.00  0.00    +0.000 N 
ATOM     14  C   UNL     1       1.804   9.593  18.310  0.00  0.00    +0.000 C 
ATOM     15  O   UNL     1       2.295  10.419  17.538  0.00  0.00    +0.000 OA
ATOM     16  H   UNL     1       0.431   9.181  19.785  0.00  0.00    +0.000 HD
BRANCH  13  17
ATOM     17  C   UNL     1       0.068  11.189  19.129  0.00  0.00    +0.000 C 
BRANCH  17  21
ATOM     18  C   UNL     1      -0.558  13.377  22.235  0.00  0.00    +0.000 C 
ATOM     19  N   UNL     1      -0.750  12.714  20.954  0.00  0.00    +0.000 N 
ATOM     20  C   UNL     1      -2.010  12.923  20.257  0.00  0.00    +0.000 C 
ATOM     21  C   UNL     1       0.292  11.924  20.464  0.00  0.00    +0.000 C 
ATOM     22  O   UNL     1       1.332  11.756  21.108  0.00  0.00    +0.000 OA
ENDBRANCH  17  21
ENDBRANCH  13  17
ENDBRANCH   1  14
BRANCH   3  23
ATOM     23  C   UNL     1       4.685   5.560  17.786  0.00  0.00    +0.000 C 
ATOM     24  C   UNL     1       4.443   4.495  16.750  0.00  0.00    +0.000 C 
ATOM     25  C   UNL     1       5.275   5.698  16.408  0.00  0.00    +0.000 C 
ENDBRANCH   3  23
TORSDOF 5
ENDMDL
MODEL 8
REMARK VINA RESULT:      -7.0      2.629      4.539
REMARK  Name = 
REMARK  7 active torsions:
REMARK  status: ('A' for Active; 'I' for Inactive)
REMARK    1  A    between atoms: C_1  and  N_2
REMARK    2  A    between atoms: N_2  and  C_3
REMARK    3  A    between atoms: C_4  and  C_6
REMARK    4  A    between atoms: C_6  and  N_7
REMARK    5  A    between atoms: C_8  and  C_10
REMARK    6  A    between atoms: C_12  and  C_13
REMARK    7  A    between atoms: N_16  and  C_17
REMARK                            x       y       z     vdW  Elec       q    Type
REMARK                         _______ _______ _______ _____ _____    ______ ____
ROOT
ATOM      1  C   UNL     1       2.411   7.040  18.504  0.00  0.00    +0.000 A 
ATOM      2  N   UNL     1       1.895   5.762  18.562  0.00  0.00    +0.000 NA
ATOM      3  C   UNL     1       2.731   5.040  17.841  0.00  0.00    +0.000 A 
ATOM      4  N   UNL     1       3.804   5.841  17.450  0.00  0.00    +0.000 N 
ATOM      5  N   UNL     1       3.573   7.119  17.834  0.00  0.00    +0.000 NA
ENDROOT
BRANCH   4   6
ATOM      6  C   UNL     1       5.029   5.472  16.834  0.00  0.00    +0.000 A 
ATOM      7  C   UNL     1       5.109   5.425  15.432  0.00  0.00    +0.000 A 
ATOM      8  C   UNL     1       6.274   4.985  14.794  0.00  0.00    +0.000 A 
ATOM      9  C   UNL     1       7.378   4.615  15.547  0.00  0.00    +0.000 A 
ATOM     10  C   UNL     1       7.330   4.699  16.938  0.00  0.00    +0.000 A 
ATOM     11  C   UNL     1       6.166   5.128  17.589  0.00  0.00    +0.000 A 
ATOM     12 CL   UNL     1       6.230   5.062  19.321  0.00  0.00    +0.000 Cl
ENDBRANCH   4   6
BRANCH   1  14
ATOM     13  N   UNL     1       1.408   9.218  18.224  0.00  0.00    +0.000 N 
ATOM     14  C   UNL     1       1.777   8.231  19.123  0.00  0.00    +0.000 C 
ATOM     15  O   UNL     1       1.604   8.348  20.338  0.00  0.00    +0.000 OA
ATOM     16  H   UNL     1       1.491   8.996  17.236  0.00  0.00    +0.000 HD
BRANCH  13  17
ATOM     17  C   UNL     1       0.744  10.448  18.625  0.00  0.00    +0.000 C 
BRANCH  17  21
ATOM     18  C   UNL     1       2.564  13.538  20.025  0.00  0.00    +0.000 C 
ATOM     19  N   UNL     1       1.615  12.446  19.880  0.00  0.00    +0.000 N 
ATOM     20  C   UNL     1       0.602  12.278  20.911  0.00  0.00    +0.000 C 
ATOM     21  C   UNL     1       1.724  11.629  18.753  0.00  0.00    +0.000 C 
ATOM     22  O   UNL     1       2.620  11.797  17.920  0.00  0.00    +0.000 OA
ENDBRANCH  17  21
ENDBRANCH  13  17
ENDBRANCH   1  14
BRANCH   3  23
ATOM     23  C   UNL     1       2.506   3.548  17.580  0.00  0.00    +0.000 C 
ATOM     24  C   UNL     1       3.211   2.510  18.413  0.00  0.00    +0.000 C 
ATOM     25  C   UNL     1       1.729   2.712  18.561  0.00  0.00    +0.000 C 
ENDBRANCH   3  23
TORSDOF 5
ENDMDL
MODEL 9
REMARK VINA RESULT:      -7.0      2.341      4.329
REMARK  Name = 
REMARK  7 active torsions:
REMARK  status: ('A' for Active; 'I' for Inactive)
REMARK    1  A    between atoms: C_1  and  N_2
REMARK    2  A    between atoms: N_2  and  C_3
REMARK    3  A    between atoms: C_4  and  C_6
REMARK    4  A    between atoms: C_6  and  N_7
REMARK    5  A    between atoms: C_8  and  C_10
REMARK    6  A    between atoms: C_12  and  C_13
REMARK    7  A    between atoms: N_16  and  C_17
REMARK                            x       y       z     vdW  Elec       q    Type
REMARK                         _______ _______ _______ _____ _____    ______ ____
ROOT
ATOM      1  C   UNL     1       2.435   6.524  19.069  0.00  0.00    +0.000 A 
ATOM      2  N   UNL     1       1.919   5.257  18.902  0.00  0.00    +0.000 NA
ATOM      3  C   UNL     1       2.722   4.690  18.022  0.00  0.00    +0.000 A 
ATOM      4  N   UNL     1       3.780   5.557  17.749  0.00  0.00    +0.000 N 
ATOM      5  N   UNL     1       3.568   6.737  18.379  0.00  0.00    +0.000 NA
ENDROOT
BRANCH   4   6
ATOM      6  C   UNL     1       4.978   5.320  17.023  0.00  0.00    +0.000 A 
ATOM      7  C   UNL     1       4.922   5.183  15.626  0.00  0.00    +0.000 A 
ATOM      8  C   UNL     1       6.069   4.866  14.891  0.00  0.00    +0.000 A 
ATOM      9  C   UNL     1       7.286   4.711  15.537  0.00  0.00    +0.000 A 
ATOM     10  C   UNL     1       7.367   4.888  16.918  0.00  0.00    +0.000 A 
ATOM     11  C   UNL     1       6.223   5.195  17.668  0.00  0.00    +0.000 A 
ATOM     12 CL   UNL     1       6.470   5.264  19.383  0.00  0.00    +0.000 Cl
ENDBRANCH   4   6
BRANCH   1  14
ATOM     13  N   UNL     1       1.579   8.771  19.285  0.00  0.00    +0.000 N 
ATOM     14  C   UNL     1       1.829   7.572  19.930  0.00  0.00    +0.000 C 
ATOM     15  O   UNL     1       1.581   7.402  21.125  0.00  0.00    +0.000 OA
ATOM     16  H   UNL     1       1.715   8.792  18.278  0.00  0.00    +0.000 HD
BRANCH  13  17
ATOM     17  C   UNL     1       0.961   9.912  19.943  0.00  0.00    +0.000 C 
BRANCH  17  21
ATOM     18  C   UNL     1      -0.190  13.194  18.293  0.00  0.00    +0.000 C 
ATOM     19  N   UNL     1      -0.186  11.987  19.105  0.00  0.00    +0.000 N 
ATOM     20  C   UNL     1      -1.361  11.702  19.915  0.00  0.00    +0.000 C 
ATOM     21  C   UNL     1       0.942  11.166  19.050  0.00  0.00    +0.000 C 
ATOM     22  O   UNL     1       1.926  11.467  18.368  0.00  0.00    +0.000 OA
ENDBRANCH  17  21
ENDBRANCH  13  17
ENDBRANCH   1  14
BRANCH   3  23
ATOM     23  C   UNL     1       2.484   3.275  17.491  0.00  0.00    +0.000 C 
ATOM     24  C   UNL     1       3.327   2.123  17.971  0.00  0.00    +0.000 C 
ATOM     25  C   UNL     1       1.884   2.218  18.379  0.00  0.00    +0.000 C 
ENDBRANCH   3  23
TORSDOF 5
ENDMDL
