MODEL 1
REMARK VINA RESULT:      -7.6      0.000      0.000
REMARK  Name = 
REMARK  10 active torsions:
REMARK  status: ('A' for Active; 'I' for Inactive)
REMARK    1  A    between atoms: C_1  and  O_2
REMARK    2  A    between atoms: O_2  and  C_3
REMARK    3  A    between atoms: C_3  and  C_5
REMARK    4  A    between atoms: C_9  and  O_10
REMARK    5  A    between atoms: O_10  and  C_11
REMARK    6  A    between atoms: C_12  and  O_13
REMARK    7  A    between atoms: O_13  and  C_14
REMARK    8  A    between atoms: C_17  and  N_18
REMARK    9  A    between atoms: C_19  and  O_21
REMARK   10  A    between atoms: O_21  and  C_22
REMARK                            x       y       z     vdW  Elec       q    Type
REMARK                         _______ _______ _______ _____ _____    ______ ____
ROOT
ATOM      1  C   UNL     1       6.858   6.007  16.154  0.00  0.00    +0.000 A 
ATOM      2  N   UNL     1       7.747   5.662  15.155  0.00  0.00    +0.000 N 
ATOM      3  C   UNL     1       7.113   4.977  14.142  0.00  0.00    +0.000 A 
ATOM      4  C   UNL     1       7.600   4.369  12.970  0.00  0.00    +0.000 A 
ATOM      5  C   UNL     1       6.708   3.657  12.118  0.00  0.00    +0.000 A 
ATOM      6  C   UNL     1       5.354   3.568  12.452  0.00  0.00    +0.000 A 
ATOM      7  C   UNL     1       4.920   4.191  13.634  0.00  0.00    +0.000 A 
ATOM      8  C   UNL     1       5.767   4.900  14.495  0.00  0.00    +0.000 A 
ATOM      9  C   UNL     1       5.610   5.544  15.756  0.00  0.00    +0.000 A 
ATOM     10  H   UNL     1       8.738   5.871  15.187  0.00  0.00    +0.000 HD
ENDROOT
BRANCH   9  11
ATOM     11  N   UNL     1       4.476   5.673  16.543  0.00  0.00    +0.000 N 
ATOM     12  C   UNL     1       3.888   4.682  17.287  0.00  0.00    +0.000 C 
ATOM     13  O   UNL     1       4.160   3.487  17.305  0.00  0.00    +0.000 OA
ATOM     14  H   UNL     1       3.903   6.499  16.410  0.00  0.00    +0.000 HD
BRANCH  12  15
ATOM     15  O   UNL     1       2.804   5.229  17.959  0.00  0.00    +0.000 OA
BRANCH  15  16
ATOM     16  C   UNL     1       2.326   4.411  18.991  0.00  0.00    +0.000 A 
ATOM     17  C   UNL     1       2.772   4.652  20.288  0.00  0.00    +0.000 A 
ATOM     18  C   UNL     1       2.196   3.943  21.344  0.00  0.00    +0.000 A 
ATOM     19  C   UNL     1       1.177   3.015  21.092  0.00  0.00    +0.000 A 
ATOM     20  C   UNL     1       0.740   2.780  19.793  0.00  0.00    +0.000 A 
ATOM     21  C   UNL     1       1.313   3.485  18.736  0.00  0.00    +0.000 A 
ENDBRANCH  15  16
ENDBRANCH  12  15
ENDBRANCH   9  11
BRANCH   1  22
ATOM     22  C   UNL     1       7.192   6.748  17.349  0.00  0.00    +0.000 C 
ATOM     23  O   UNL     1       7.782   7.822  17.365  0.00  0.00    +0.000 OA
BRANCH  22  25
ATOM     24  C   UNL     1       7.842   5.689  19.339  0.00  0.00    +0.000 C 
ATOM     25  O   UNL     1       6.779   6.068  18.457  0.00  0.00    +0.000 OA
ENDBRANCH  22  25
ENDBRANCH   1  22
BRANCH   5  26
ATOM     26  O   UNL     1       7.376   2.935  11.162  0.00  0.00    +0.000 OA
ATOM     27  C   UNL     1       7.137   1.539  11.115  0.00  0.00    +0.000 C 
ENDBRANCH   5  26
BRANCH   6  28
ATOM     28  O   UNL     1       4.307   2.855  11.960  0.00  0.00    +0.000 OA
ATOM     29  C   UNL     1       3.580   3.172  10.804  0.00  0.00    +0.000 C 
ENDBRANCH   6  28
TORSDOF 7
ENDMDL
MODEL 2
REMARK VINA RESULT:      -7.6      0.496      1.291
REMARK  Name = 
REMARK  10 active torsions:
REMARK  status: ('A' for Active; 'I' for Inactive)
REMARK    1  A    between atoms: C_1  and  O_2
REMARK    2  A    between atoms: O_2  and  C_3
REMARK    3  A    between atoms: C_3  and  C_5
REMARK    4  A    between atoms: C_9  and  O_10
REMARK    5  A    between atoms: O_10  and  C_11
REMARK    6  A    between atoms: C_12  and  O_13
REMARK    7  A    between atoms: O_13  and  C_14
REMARK    8  A    between atoms: C_17  and  N_18
REMARK    9  A    between atoms: C_19  and  O_21
REMARK   10  A    between atoms: O_21  and  C_22
REMARK                            x       y       z     vdW  Elec       q    Type
REMARK                         _______ _______ _______ _____ _____    ______ ____
ROOT
ATOM      1  C   UNL     1       6.883   5.872  16.166  0.00  0.00    +0.000 A 
ATOM      2  N   UNL     1       7.761   5.460  15.184  0.00  0.00    +0.000 N 
ATOM      3  C   UNL     1       7.096   4.825  14.159  0.00  0.00    +0.000 A 
ATOM      4  C   UNL     1       7.556   4.181  12.995  0.00  0.00    +0.000 A 
ATOM      5  C   UNL     1       6.629   3.539  12.126  0.00  0.00    +0.000 A 
ATOM      6  C   UNL     1       5.266   3.555  12.434  0.00  0.00    +0.000 A 
ATOM      7  C   UNL     1       4.858   4.210  13.608  0.00  0.00    +0.000 A 
ATOM      8  C   UNL     1       5.741   4.851  14.486  0.00  0.00    +0.000 A 
ATOM      9  C   UNL     1       5.610   5.507  15.745  0.00  0.00    +0.000 A 
ATOM     10  H   UNL     1       8.765   5.593  15.235  0.00  0.00    +0.000 HD
ENDROOT
BRANCH   9  11
ATOM     11  N   UNL     1       4.475   5.723  16.510  0.00  0.00    +0.000 N 
ATOM     12  C   UNL     1       4.011   4.916  17.518  0.00  0.00    +0.000 C 
ATOM     13  O   UNL     1       4.420   3.809  17.850  0.00  0.00    +0.000 OA
ATOM     14  H   UNL     1       3.809   6.413  16.180  0.00  0.00    +0.000 HD
BRANCH  12  15
ATOM     15  O   UNL     1       2.877   5.505  18.057  0.00  0.00    +0.000 OA
BRANCH  15  16
ATOM     16  C   UNL     1       2.254   4.713  19.031  0.00  0.00    +0.000 A 
ATOM     17  C   UNL     1       1.384   3.709  18.612  0.00  0.00    +0.000 A 
ATOM     18  C   UNL     1       0.871   2.820  19.558  0.00  0.00    +0.000 A 
ATOM     19  C   UNL     1       1.241   2.939  20.904  0.00  0.00    +0.000 A 
ATOM     20  C   UNL     1       2.108   3.946  21.314  0.00  0.00    +0.000 A 
ATOM     21  C   UNL     1       2.623   4.836  20.372  0.00  0.00    +0.000 A 
ENDBRANCH  15  16
ENDBRANCH  12  15
ENDBRANCH   9  11
BRANCH   1  22
ATOM     22  C   UNL     1       7.249   6.586  17.369  0.00  0.00    +0.000 C 
ATOM     23  O   UNL     1       7.104   6.157  18.508  0.00  0.00    +0.000 OA
BRANCH  22  25
ATOM     24  C   UNL     1       8.209   8.564  18.186  0.00  0.00    +0.000 C 
ATOM     25  O   UNL     1       7.754   7.813  17.055  0.00  0.00    +0.000 OA
ENDBRANCH  22  25
ENDBRANCH   1  22
BRANCH   5  26
ATOM     26  O   UNL     1       7.257   2.768  11.182  0.00  0.00    +0.000 OA
ATOM     27  C   UNL     1       6.940   1.387  11.153  0.00  0.00    +0.000 C 
ENDBRANCH   5  26
BRANCH   6  28
ATOM     28  O   UNL     1       4.177   2.924  11.922  0.00  0.00    +0.000 OA
ATOM     29  C   UNL     1       3.536   3.255  10.719  0.00  0.00    +0.000 C 
ENDBRANCH   6  28
TORSDOF 7
ENDMDL
MODEL 3
REMARK VINA RESULT:      -7.4      3.829      6.133
REMARK  Name = 
REMARK  10 active torsions:
REMARK  status: ('A' for Active; 'I' for Inactive)
REMARK    1  A    between atoms: C_1  and  O_2
REMARK    2  A    between atoms: O_2  and  C_3
REMARK    3  A    between atoms: C_3  and  C_5
REMARK    4  A    between atoms: C_9  and  O_10
REMARK    5  A    between atoms: O_10  and  C_11
REMARK    6  A    between atoms: C_12  and  O_13
REMARK    7  A    between atoms: O_13  and  C_14
REMARK    8  A    between atoms: C_17  and  N_18
REMARK    9  A    between atoms: C_19  and  O_21
REMARK   10  A    between atoms: O_21  and  C_22
REMARK                            x       y       z     vdW  Elec       q    Type
REMARK                         _______ _______ _______ _____ _____    ______ ____
ROOT
ATOM      1  C   UNL     1       2.738   4.412  18.747  0.00  0.00    +0.000 A 
ATOM      2  N   UNL     1       3.587   3.666  17.953  0.00  0.00    +0.000 N 
ATOM      3  C   UNL     1       4.668   4.414  17.544  0.00  0.00    +0.000 A 
ATOM      4  C   UNL     1       5.743   4.122  16.684  0.00  0.00    +0.000 A 
ATOM      5  C   UNL     1       6.703   5.129  16.381  0.00  0.00    +0.000 A 
ATOM      6  C   UNL     1       6.572   6.402  16.942  0.00  0.00    +0.000 A 
ATOM      7  C   UNL     1       5.480   6.643  17.793  0.00  0.00    +0.000 A 
ATOM      8  C   UNL     1       4.518   5.677  18.114  0.00  0.00    +0.000 A 
ATOM      9  C   UNL     1       3.307   5.674  18.865  0.00  0.00    +0.000 A 
ATOM     10  H   UNL     1       3.413   2.701  17.694  0.00  0.00    +0.000 HD
ENDROOT
BRANCH   9  11
ATOM     11  N   UNL     1       2.699   6.709  19.559  0.00  0.00    +0.000 N 
ATOM     12  C   UNL     1       2.103   7.815  19.008  0.00  0.00    +0.000 C 
ATOM     13  O   UNL     1       2.099   8.166  17.834  0.00  0.00    +0.000 OA
ATOM     14  H   UNL     1       2.880   6.777  20.555  0.00  0.00    +0.000 HD
BRANCH  12  15
ATOM     15  O   UNL     1       1.581   8.584  20.038  0.00  0.00    +0.000 OA
BRANCH  15  16
ATOM     16  C   UNL     1       0.900   9.721  19.586  0.00  0.00    +0.000 A 
ATOM     17  C   UNL     1      -0.491   9.733  19.656  0.00  0.00    +0.000 A 
ATOM     18  C   UNL     1      -1.174  10.911  19.347  0.00  0.00    +0.000 A 
ATOM     19  C   UNL     1      -0.460  12.060  18.984  0.00  0.00    +0.000 A 
ATOM     20  C   UNL     1       0.928  12.039  18.914  0.00  0.00    +0.000 A 
ATOM     21  C   UNL     1       1.614  10.865  19.221  0.00  0.00    +0.000 A 
ENDBRANCH  15  16
ENDBRANCH  12  15
ENDBRANCH   9  11
BRANCH   1  22
ATOM     22  C   UNL     1       1.521   3.925  19.357  0.00  0.00    +0.000 C 
ATOM     23  O   UNL     1       0.657   3.279  18.775  0.00  0.00    +0.000 OA
BRANCH  22  25
ATOM     24  C   UNL     1       1.778   3.269  21.594  0.00  0.00    +0.000 C 
ATOM     25  O   UNL     1       1.461   4.310  20.664  0.00  0.00    +0.000 OA
ENDBRANCH  22  25
ENDBRANCH   1  22
BRANCH   5  26
ATOM     26  O   UNL     1       7.535   4.756  15.356  0.00  0.00    +0.000 OA
ATOM     27  C   UNL     1       6.938   4.478  14.101  0.00  0.00    +0.000 C 
ENDBRANCH   5  26
BRANCH   6  28
ATOM     28  O   UNL     1       7.199   7.590  16.739  0.00  0.00    +0.000 OA
ATOM     29  C   UNL     1       7.821   8.361  17.732  0.00  0.00    +0.000 C 
ENDBRANCH   6  28
TORSDOF 7
ENDMDL
MODEL 4
REMARK VINA RESULT:      -7.4      0.690      1.040
REMARK  Name = 
REMARK  10 active torsions:
REMARK  status: ('A' for Active; 'I' for Inactive)
REMARK    1  A    between atoms: C_1  and  O_2
REMARK    2  A    between atoms: O_2  and  C_3
REMARK    3  A    between atoms: C_3  and  C_5
REMARK    4  A    between atoms: C_9  and  O_10
REMARK    5  A    between atoms: O_10  and  C_11
REMARK    6  A    between atoms: C_12  and  O_13
REMARK    7  A    between atoms: O_13  and  C_14
REMARK    8  A    between atoms: C_17  and  N_18
REMARK    9  A    between atoms: C_19  and  O_21
REMARK   10  A    between atoms: O_21  and  C_22
REMARK                            x       y       z     vdW  Elec       q    Type
REMARK                         _______ _______ _______ _____ _____    ______ ____
ROOT
ATOM      1  C   UNL     1       6.961   5.921  16.197  0.00  0.00    +0.000 A 
ATOM      2  N   UNL     1       7.825   5.549  15.186  0.00  0.00    +0.000 N 
ATOM      3  C   UNL     1       7.152   4.907  14.170  0.00  0.00    +0.000 A 
ATOM      4  C   UNL     1       7.600   4.293  12.986  0.00  0.00    +0.000 A 
ATOM      5  C   UNL     1       6.669   3.634  12.133  0.00  0.00    +0.000 A 
ATOM      6  C   UNL     1       5.316   3.603  12.477  0.00  0.00    +0.000 A 
ATOM      7  C   UNL     1       4.920   4.230  13.671  0.00  0.00    +0.000 A 
ATOM      8  C   UNL     1       5.806   4.887  14.534  0.00  0.00    +0.000 A 
ATOM      9  C   UNL     1       5.689   5.521  15.805  0.00  0.00    +0.000 A 
ATOM     10  H   UNL     1       8.825   5.712  15.212  0.00  0.00    +0.000 HD
ENDROOT
BRANCH   9  11
ATOM     11  N   UNL     1       4.570   5.691  16.603  0.00  0.00    +0.000 N 
ATOM     12  C   UNL     1       4.334   5.083  17.811  0.00  0.00    +0.000 C 
ATOM     13  O   UNL     1       4.984   4.196  18.350  0.00  0.00    +0.000 OA
ATOM     14  H   UNL     1       3.758   6.134  16.187  0.00  0.00    +0.000 HD
BRANCH  12  15
ATOM     15  O   UNL     1       3.125   5.552  18.303  0.00  0.00    +0.000 OA
BRANCH  15  16
ATOM     16  C   UNL     1       2.353   4.554  18.912  0.00  0.00    +0.000 A 
ATOM     17  C   UNL     1       2.151   4.620  20.289  0.00  0.00    +0.000 A 
ATOM     18  C   UNL     1       1.268   3.719  20.886  0.00  0.00    +0.000 A 
ATOM     19  C   UNL     1       0.592   2.775  20.103  0.00  0.00    +0.000 A 
ATOM     20  C   UNL     1       0.803   2.714  18.730  0.00  0.00    +0.000 A 
ATOM     21  C   UNL     1       1.684   3.612  18.129  0.00  0.00    +0.000 A 
ENDBRANCH  15  16
ENDBRANCH  12  15
ENDBRANCH   9  11
BRANCH   1  22
ATOM     22  C   UNL     1       7.338   6.629  17.399  0.00  0.00    +0.000 C 
ATOM     23  O   UNL     1       7.844   6.110  18.388  0.00  0.00    +0.000 OA
BRANCH  22  25
ATOM     24  C   UNL     1       8.025   8.835  17.807  0.00  0.00    +0.000 C 
ATOM     25  O   UNL     1       7.025   7.952  17.286  0.00  0.00    +0.000 OA
ENDBRANCH  22  25
ENDBRANCH   1  22
BRANCH   5  26
ATOM     26  O   UNL     1       7.296   2.895  11.161  0.00  0.00    +0.000 OA
ATOM     27  C   UNL     1       7.041   1.501  11.139  0.00  0.00    +0.000 C 
ENDBRANCH   5  26
BRANCH   6  28
ATOM     28  O   UNL     1       4.233   2.945  11.986  0.00  0.00    +0.000 OA
ATOM     29  C   UNL     1       3.605   3.215  10.760  0.00  0.00    +0.000 C 
ENDBRANCH   6  28
TORSDOF 7
ENDMDL
MODEL 5
REMARK VINA RESULT:      -7.3      3.323      5.723
REMARK  Name = 
REMARK  10 active torsions:
REMARK  status: ('A' for Active; 'I' for Inactive)
REMARK    1  A    between atoms: C_1  and  O_2
REMARK    2  A    between atoms: O_2  and  C_3
REMARK    3  A    between atoms: C_3  and  C_5
REMARK    4  A    between atoms: C_9  and  O_10
REMARK    5  A    between atoms: O_10  and  C_11
REMARK    6  A    between atoms: C_12  and  O_13
REMARK    7  A    between atoms: O_13  and  C_14
REMARK    8  A    between atoms: C_17  and  N_18
REMARK    9  A    between atoms: C_19  and  O_21
REMARK   10  A    between atoms: O_21  and  C_22
REMARK                            x       y       z     vdW  Elec       q    Type
REMARK                         _______ _______ _______ _____ _____    ______ ____
ROOT
ATOM      1  C   UNL     1       3.757   3.572  19.094  0.00  0.00    +0.000 A 
ATOM      2  N   UNL     1       4.601   3.108  18.105  0.00  0.00    +0.000 N 
ATOM      3  C   UNL     1       5.407   4.117  17.628  0.00  0.00    +0.000 A 
ATOM      4  C   UNL     1       6.358   4.151  16.591  0.00  0.00    +0.000 A 
ATOM      5  C   UNL     1       7.010   5.375  16.265  0.00  0.00    +0.000 A 
ATOM      6  C   UNL     1       6.702   6.535  16.981  0.00  0.00    +0.000 A 
ATOM      7  C   UNL     1       5.744   6.448  18.006  0.00  0.00    +0.000 A 
ATOM      8  C   UNL     1       5.084   5.263  18.353  0.00  0.00    +0.000 A 
ATOM      9  C   UNL     1       4.048   4.919  19.270  0.00  0.00    +0.000 A 
ATOM     10  H   UNL     1       4.599   2.153  17.767  0.00  0.00    +0.000 HD
ENDROOT
BRANCH   9  11
ATOM     11  N   UNL     1       3.357   5.727  20.159  0.00  0.00    +0.000 N 
ATOM     12  C   UNL     1       2.360   6.615  19.842  0.00  0.00    +0.000 C 
ATOM     13  O   UNL     1       1.979   6.958  18.729  0.00  0.00    +0.000 OA
ATOM     14  H   UNL     1       3.742   5.838  21.091  0.00  0.00    +0.000 HD
BRANCH  12  15
ATOM     15  O   UNL     1       1.903   7.192  21.018  0.00  0.00    +0.000 OA
BRANCH  15  16
ATOM     16  C   UNL     1       1.122   8.334  20.804  0.00  0.00    +0.000 A 
ATOM     17  C   UNL     1       0.182   8.686  21.770  0.00  0.00    +0.000 A 
ATOM     18  C   UNL     1      -0.498   9.898  21.642  0.00  0.00    +0.000 A 
ATOM     19  C   UNL     1      -0.225  10.745  20.560  0.00  0.00    +0.000 A 
ATOM     20  C   UNL     1       0.712  10.384  19.599  0.00  0.00    +0.000 A 
ATOM     21  C   UNL     1       1.395   9.175  19.722  0.00  0.00    +0.000 A 
ENDBRANCH  15  16
ENDBRANCH  12  15
ENDBRANCH   9  11
BRANCH   1  22
ATOM     22  C   UNL     1       2.797   2.769  19.818  0.00  0.00    +0.000 C 
ATOM     23  O   UNL     1       2.694   2.734  21.039  0.00  0.00    +0.000 OA
BRANCH  22  25
ATOM     24  C   UNL     1       0.708   2.526  18.779  0.00  0.00    +0.000 C 
ATOM     25  O   UNL     1       2.043   2.036  18.949  0.00  0.00    +0.000 OA
ENDBRANCH  22  25
ENDBRANCH   1  22
BRANCH   5  26
ATOM     26  O   UNL     1       7.717   5.286  15.093  0.00  0.00    +0.000 OA
ATOM     27  C   UNL     1       7.055   4.718  13.975  0.00  0.00    +0.000 C 
ENDBRANCH   5  26
BRANCH   6  28
ATOM     28  O   UNL     1       7.011   7.849  16.823  0.00  0.00    +0.000 OA
ATOM     29  C   UNL     1       7.868   8.587  17.653  0.00  0.00    +0.000 C 
ENDBRANCH   6  28
TORSDOF 7
ENDMDL
MODEL 6
REMARK VINA RESULT:      -7.3      3.224      5.560
REMARK  Name = 
REMARK  10 active torsions:
REMARK  status: ('A' for Active; 'I' for Inactive)
REMARK    1  A    between atoms: C_1  and  O_2
REMARK    2  A    between atoms: O_2  and  C_3
REMARK    3  A    between atoms: C_3  and  C_5
REMARK    4  A    between atoms: C_9  and  O_10
REMARK    5  A    between atoms: O_10  and  C_11
REMARK    6  A    between atoms: C_12  and  O_13
REMARK    7  A    between atoms: O_13  and  C_14
REMARK    8  A    between atoms: C_17  and  N_18
REMARK    9  A    between atoms: C_19  and  O_21
REMARK   10  A    between atoms: O_21  and  C_22
REMARK                            x       y       z     vdW  Elec       q    Type
REMARK                         _______ _______ _______ _____ _____    ______ ____
ROOT
ATOM      1  C   UNL     1       3.639   3.610  18.664  0.00  0.00    +0.000 A 
ATOM      2  N   UNL     1       4.457   3.132  17.660  0.00  0.00    +0.000 N 
ATOM      3  C   UNL     1       5.360   4.090  17.257  0.00  0.00    +0.000 A 
ATOM      4  C   UNL     1       6.330   4.099  16.237  0.00  0.00    +0.000 A 
ATOM      5  C   UNL     1       7.096   5.275  15.997  0.00  0.00    +0.000 A 
ATOM      6  C   UNL     1       6.880   6.413  16.778  0.00  0.00    +0.000 A 
ATOM      7  C   UNL     1       5.899   6.353  17.782  0.00  0.00    +0.000 A 
ATOM      8  C   UNL     1       5.128   5.215  18.047  0.00  0.00    +0.000 A 
ATOM      9  C   UNL     1       4.048   4.912  18.926  0.00  0.00    +0.000 A 
ATOM     10  H   UNL     1       4.376   2.202  17.263  0.00  0.00    +0.000 HD
ENDROOT
BRANCH   9  11
ATOM     11  N   UNL     1       3.415   5.725  19.854  0.00  0.00    +0.000 N 
ATOM     12  C   UNL     1       2.319   6.518  19.624  0.00  0.00    +0.000 C 
ATOM     13  O   UNL     1       1.773   6.761  18.554  0.00  0.00    +0.000 OA
ATOM     14  H   UNL     1       3.907   5.923  20.719  0.00  0.00    +0.000 HD
BRANCH  12  15
ATOM     15  O   UNL     1       1.973   7.135  20.817  0.00  0.00    +0.000 OA
BRANCH  15  16
ATOM     16  C   UNL     1       1.289   8.344  20.633  0.00  0.00    +0.000 A 
ATOM     17  C   UNL     1       1.595   9.117  19.516  0.00  0.00    +0.000 A 
ATOM     18  C   UNL     1       0.822  10.246  19.242  0.00  0.00    +0.000 A 
ATOM     19  C   UNL     1      -0.250  10.582  20.078  0.00  0.00    +0.000 A 
ATOM     20  C   UNL     1      -0.547   9.806  21.194  0.00  0.00    +0.000 A 
ATOM     21  C   UNL     1       0.222   8.677  21.471  0.00  0.00    +0.000 A 
ENDBRANCH  15  16
ENDBRANCH  12  15
ENDBRANCH   9  11
BRANCH   1  22
ATOM     22  C   UNL     1       2.598   2.856  19.324  0.00  0.00    +0.000 C 
ATOM     23  O   UNL     1       1.637   2.348  18.757  0.00  0.00    +0.000 OA
BRANCH  22  25
ATOM     24  C   UNL     1       1.634   2.903  21.462  0.00  0.00    +0.000 C 
ATOM     25  O   UNL     1       2.823   2.815  20.668  0.00  0.00    +0.000 OA
ENDBRANCH  22  25
ENDBRANCH   1  22
BRANCH   5  26
ATOM     26  O   UNL     1       7.814   5.193  14.831  0.00  0.00    +0.000 OA
ATOM     27  C   UNL     1       7.120   4.783  13.665  0.00  0.00    +0.000 C 
ENDBRANCH   5  26
BRANCH   6  28
ATOM     28  O   UNL     1       7.309   7.701  16.706  0.00  0.00    +0.000 OA
ATOM     29  C   UNL     1       7.855   8.436  17.769  0.00  0.00    +0.000 C 
ENDBRANCH   6  28
TORSDOF 7
ENDMDL
MODEL 7
REMARK VINA RESULT:      -7.2      3.298      6.758
REMARK  Name = 
REMARK  10 active torsions:
REMARK  status: ('A' for Active; 'I' for Inactive)
REMARK    1  A    between atoms: C_1  and  O_2
REMARK    2  A    between atoms: O_2  and  C_3
REMARK    3  A    between atoms: C_3  and  C_5
REMARK    4  A    between atoms: C_9  and  O_10
REMARK    5  A    between atoms: O_10  and  C_11
REMARK    6  A    between atoms: C_12  and  O_13
REMARK    7  A    between atoms: O_13  and  C_14
REMARK    8  A    between atoms: C_17  and  N_18
REMARK    9  A    between atoms: C_19  and  O_21
REMARK   10  A    between atoms: O_21  and  C_22
REMARK                            x       y       z     vdW  Elec       q    Type
REMARK                         _______ _______ _______ _____ _____    ______ ____
ROOT
ATOM      1  C   UNL     1       4.256   6.569  17.038  0.00  0.00    +0.000 A 
ATOM      2  N   UNL     1       3.750   7.839  16.845  0.00  0.00    +0.000 N 
ATOM      3  C   UNL     1       2.916   8.203  17.879  0.00  0.00    +0.000 A 
ATOM      4  C   UNL     1       2.125   9.347  18.091  0.00  0.00    +0.000 A 
ATOM      5  C   UNL     1       1.293   9.430  19.244  0.00  0.00    +0.000 A 
ATOM      6  C   UNL     1       1.269   8.374  20.158  0.00  0.00    +0.000 A 
ATOM      7  C   UNL     1       2.076   7.254  19.899  0.00  0.00    +0.000 A 
ATOM      8  C   UNL     1       2.906   7.137  18.777  0.00  0.00    +0.000 A 
ATOM      9  C   UNL     1       3.745   6.114  18.247  0.00  0.00    +0.000 A 
ATOM     10  H   UNL     1       3.954   8.408  16.031  0.00  0.00    +0.000 HD
ENDROOT
BRANCH   9  11
ATOM     11  N   UNL     1       4.007   4.847  18.743  0.00  0.00    +0.000 N 
ATOM     12  C   UNL     1       5.121   4.466  19.449  0.00  0.00    +0.000 C 
ATOM     13  O   UNL     1       6.137   5.115  19.666  0.00  0.00    +0.000 OA
ATOM     14  H   UNL     1       3.446   4.079  18.392  0.00  0.00    +0.000 HD
BRANCH  12  15
ATOM     15  O   UNL     1       4.978   3.130  19.796  0.00  0.00    +0.000 OA
BRANCH  15  16
ATOM     16  C   UNL     1       3.642   2.710  19.830  0.00  0.00    +0.000 A 
ATOM     17  C   UNL     1       2.885   2.995  20.965  0.00  0.00    +0.000 A 
ATOM     18  C   UNL     1       1.518   2.713  20.954  0.00  0.00    +0.000 A 
ATOM     19  C   UNL     1       0.924   2.163  19.811  0.00  0.00    +0.000 A 
ATOM     20  C   UNL     1       1.687   1.878  18.684  0.00  0.00    +0.000 A 
ATOM     21  C   UNL     1       3.053   2.158  18.690  0.00  0.00    +0.000 A 
ENDBRANCH  15  16
ENDBRANCH  12  15
ENDBRANCH   9  11
BRANCH   1  22
ATOM     22  C   UNL     1       5.176   5.893  16.151  0.00  0.00    +0.000 C 
ATOM     23  O   UNL     1       6.151   6.416  15.624  0.00  0.00    +0.000 OA
BRANCH  22  25
ATOM     24  C   UNL     1       5.870   3.694  15.717  0.00  0.00    +0.000 C 
ATOM     25  O   UNL     1       4.788   4.599  15.965  0.00  0.00    +0.000 OA
ENDBRANCH  22  25
ENDBRANCH   1  22
BRANCH   5  26
ATOM     26  O   UNL     1       0.423  10.488  19.175  0.00  0.00    +0.000 OA
ATOM     27  C   UNL     1      -0.708  10.348  18.332  0.00  0.00    +0.000 C 
ENDBRANCH   5  26
BRANCH   6  28
ATOM     28  O   UNL     1       0.494   8.076  21.234  0.00  0.00    +0.000 OA
ATOM     29  C   UNL     1      -0.145   9.013  22.059  0.00  0.00    +0.000 C 
ENDBRANCH   6  28
TORSDOF 7
ENDMDL
MODEL 8
REMARK VINA RESULT:      -6.9      4.424      8.115
REMARK  Name = 
REMARK  10 active torsions:
REMARK  status: ('A' for Active; 'I' for Inactive)
REMARK    1  A    between atoms: C_1  and  O_2
REMARK    2  A    between atoms: O_2  and  C_3
REMARK    3  A    between atoms: C_3  and  C_5
REMARK    4  A    between atoms: C_9  and  O_10
REMARK    5  A    between atoms: O_10  and  C_11
REMARK    6  A    between atoms: C_12  and  O_13
REMARK    7  A    between atoms: O_13  and  C_14
REMARK    8  A    between atoms: C_17  and  N_18
REMARK    9  A    between atoms: C_19  and  O_21
REMARK   10  A    between atoms: O_21  and  C_22
REMARK                            x       y       z     vdW  Elec       q    Type
REMARK                         _______ _______ _______ _____ _____    ______ ____
ROOT
ATOM      1  C   UNL     1       2.951   7.393  18.269  0.00  0.00    +0.000 A 
ATOM      2  N   UNL     1       2.457   8.618  17.867  0.00  0.00    +0.000 N 
ATOM      3  C   UNL     1       1.640   9.164  18.832  0.00  0.00    +0.000 A 
ATOM      4  C   UNL     1       0.865  10.338  18.855  0.00  0.00    +0.000 A 
ATOM      5  C   UNL     1       0.047  10.627  19.984  0.00  0.00    +0.000 A 
ATOM      6  C   UNL     1       0.022   9.742  21.065  0.00  0.00    +0.000 A 
ATOM      7  C   UNL     1       0.813   8.583  20.993  0.00  0.00    +0.000 A 
ATOM      8  C   UNL     1       1.628   8.266  19.899  0.00  0.00    +0.000 A 
ATOM      9  C   UNL     1       2.449   7.157  19.543  0.00  0.00    +0.000 A 
ATOM     10  H   UNL     1       2.658   9.038  16.967  0.00  0.00    +0.000 HD
ENDROOT
BRANCH   9  11
ATOM     11  N   UNL     1       2.702   5.989  20.245  0.00  0.00    +0.000 N 
ATOM     12  C   UNL     1       1.773   5.055  20.627  0.00  0.00    +0.000 C 
ATOM     13  O   UNL     1       0.552   5.123  20.541  0.00  0.00    +0.000 OA
ATOM     14  H   UNL     1       3.603   5.900  20.701  0.00  0.00    +0.000 HD
BRANCH  12  15
ATOM     15  O   UNL     1       2.437   4.020  21.269  0.00  0.00    +0.000 OA
BRANCH  15  16
ATOM     16  C   UNL     1       2.837   2.998  20.399  0.00  0.00    +0.000 A 
ATOM     17  C   UNL     1       1.931   2.550  19.440  0.00  0.00    +0.000 A 
ATOM     18  C   UNL     1       2.362   1.639  18.475  0.00  0.00    +0.000 A 
ATOM     19  C   UNL     1       3.691   1.196  18.473  0.00  0.00    +0.000 A 
ATOM     20  C   UNL     1       4.588   1.646  19.435  0.00  0.00    +0.000 A 
ATOM     21  C   UNL     1       4.162   2.556  20.402  0.00  0.00    +0.000 A 
ENDBRANCH  15  16
ENDBRANCH  12  15
ENDBRANCH   9  11
BRANCH   1  22
ATOM     22  C   UNL     1       3.852   6.563  17.502  0.00  0.00    +0.000 C 
ATOM     23  O   UNL     1       4.843   6.971  16.907  0.00  0.00    +0.000 OA
BRANCH  22  25
ATOM     24  C   UNL     1       4.317   4.355  16.860  0.00  0.00    +0.000 C 
ATOM     25  O   UNL     1       3.427   5.267  17.513  0.00  0.00    +0.000 OA
ENDBRANCH  22  25
ENDBRANCH   1  22
BRANCH   5  26
ATOM     26  O   UNL     1      -0.812  11.669  19.745  0.00  0.00    +0.000 OA
ATOM     27  C   UNL     1      -1.966  11.397  18.968  0.00  0.00    +0.000 C 
ENDBRANCH   5  26
BRANCH   6  28
ATOM     28  O   UNL     1      -0.744   9.642  22.184  0.00  0.00    +0.000 OA
ATOM     29  C   UNL     1      -0.966  10.671  23.111  0.00  0.00    +0.000 C 
ENDBRANCH   6  28
TORSDOF 7
ENDMDL
MODEL 9
REMARK VINA RESULT:      -6.9      3.035      7.748
REMARK  Name = 
REMARK  10 active torsions:
REMARK  status: ('A' for Active; 'I' for Inactive)
REMARK    1  A    between atoms: C_1  and  O_2
REMARK    2  A    between atoms: O_2  and  C_3
REMARK    3  A    between atoms: C_3  and  C_5
REMARK    4  A    between atoms: C_9  and  O_10
REMARK    5  A    between atoms: O_10  and  C_11
REMARK    6  A    between atoms: C_12  and  O_13
REMARK    7  A    between atoms: O_13  and  C_14
REMARK    8  A    between atoms: C_17  and  N_18
REMARK    9  A    between atoms: C_19  and  O_21
REMARK   10  A    between atoms: O_21  and  C_22
REMARK                            x       y       z     vdW  Elec       q    Type
REMARK                         _______ _______ _______ _____ _____    ______ ____
ROOT
ATOM      1  C   UNL     1       6.235   4.984  17.414  0.00  0.00    +0.000 A 
ATOM      2  N   UNL     1       5.287   4.121  17.928  0.00  0.00    +0.000 N 
ATOM      3  C   UNL     1       4.217   4.813  18.451  0.00  0.00    +0.000 A 
ATOM      4  C   UNL     1       3.064   4.386  19.134  0.00  0.00    +0.000 A 
ATOM      5  C   UNL     1       2.136   5.346  19.629  0.00  0.00    +0.000 A 
ATOM      6  C   UNL     1       2.378   6.708  19.431  0.00  0.00    +0.000 A 
ATOM      7  C   UNL     1       3.545   7.082  18.744  0.00  0.00    +0.000 A 
ATOM      8  C   UNL     1       4.479   6.167  18.243  0.00  0.00    +0.000 A 
ATOM      9  C   UNL     1       5.744   6.271  17.595  0.00  0.00    +0.000 A 
ATOM     10  H   UNL     1       5.390   3.112  17.936  0.00  0.00    +0.000 HD
ENDROOT
BRANCH   9  11
ATOM     11  N   UNL     1       6.457   7.404  17.237  0.00  0.00    +0.000 N 
ATOM     12  C   UNL     1       7.665   7.800  17.756  0.00  0.00    +0.000 C 
ATOM     13  O   UNL     1       8.276   7.318  18.703  0.00  0.00    +0.000 OA
ATOM     14  H   UNL     1       5.972   8.117  16.703  0.00  0.00    +0.000 HD
BRANCH  12  15
ATOM     15  O   UNL     1       8.058   8.959  17.103  0.00  0.00    +0.000 OA
BRANCH  15  16
ATOM     16  C   UNL     1       8.604   9.919  17.964  0.00  0.00    +0.000 A 
ATOM     17  C   UNL     1       8.543  11.259  17.588  0.00  0.00    +0.000 A 
ATOM     18  C   UNL     1       8.949  12.236  18.498  0.00  0.00    +0.000 A 
ATOM     19  C   UNL     1       9.400  11.864  19.772  0.00  0.00    +0.000 A 
ATOM     20  C   UNL     1       9.461  10.524  20.137  0.00  0.00    +0.000 A 
ATOM     21  C   UNL     1       9.056   9.544  19.231  0.00  0.00    +0.000 A 
ENDBRANCH  15  16
ENDBRANCH  12  15
ENDBRANCH   9  11
BRANCH   1  22
ATOM     22  C   UNL     1       7.469   4.585  16.776  0.00  0.00    +0.000 C 
ATOM     23  O   UNL     1       8.408   4.043  17.347  0.00  0.00    +0.000 OA
BRANCH  22  25
ATOM     24  C   UNL     1       6.550   4.137  14.665  0.00  0.00    +0.000 C 
ATOM     25  O   UNL     1       7.448   4.924  15.455  0.00  0.00    +0.000 OA
ENDBRANCH  22  25
ENDBRANCH   1  22
BRANCH   5  26
ATOM     26  O   UNL     1       1.207   4.781  20.465  0.00  0.00    +0.000 OA
ATOM     27  C   UNL     1       1.371   3.411  20.790  0.00  0.00    +0.000 C 
ENDBRANCH   5  26
BRANCH   6  28
ATOM     28  O   UNL     1       1.800   7.845  19.899  0.00  0.00    +0.000 OA
ATOM     29  C   UNL     1       1.211   7.997  21.164  0.00  0.00    +0.000 C 
ENDBRANCH   6  28
TORSDOF 7
ENDMDL
