MODEL 1
REMARK VINA RESULT:      -6.3      0.000      0.000
REMARK  Name = 
REMARK  8 active torsions:
REMARK  status: ('A' for Active; 'I' for Inactive)
REMARK    1  A    between atoms: C_1  and  C_2
REMARK    2  A    between atoms: C_2  and  C_3
REMARK    3  A    between atoms: C_3  and  N_4
REMARK    4  A    between atoms: N_4  and  C_5
REMARK    5  A    between atoms: C_11  and  C_12
REMARK    6  A    between atoms: C_12  and  O_13
REMARK    7  A    between atoms: C_14  and  O_15
REMARK    8  A    between atoms: C_16  and  O_17
REMARK                            x       y       z     vdW  Elec       q    Type
REMARK                         _______ _______ _______ _____ _____    ______ ____
ROOT
ATOM      1  N   UNL     1       5.412   5.513  15.627  0.00  0.00    +0.000 N 
ATOM      2  C   UNL     1       5.101   6.898  15.283  0.00  0.00    +0.000 C 
ATOM      3  C   UNL     1       5.016   4.964  16.830  0.00  0.00    +0.000 C 
ATOM      4  N   UNL     1       5.455   3.838  17.314  0.00  0.00    +0.000 NA
ATOM      5  C   UNL     1       4.752   3.488  18.575  0.00  0.00    +0.000 C 
ATOM      6  C   UNL     1       4.216   4.770  19.218  0.00  0.00    +0.000 C 
ATOM      7  O   UNL     1       3.140   4.622  20.136  0.00  0.00    +0.000 OA
ATOM      8  C   UNL     1       2.068   3.778  19.690  0.00  0.00    +0.000 C 
ATOM      9  C   UNL     1       2.594   2.375  19.379  0.00  0.00    +0.000 C 
ATOM     10  C   UNL     1       3.656   2.451  18.270  0.00  0.00    +0.000 C 
ATOM     11  S   UNL     1       3.844   5.822  17.817  0.00  0.00    +0.000 S 
ENDROOT
BRANCH   9  12
ATOM     12  O   UNL     1       1.523   1.509  18.992  0.00  0.00    +0.000 OA
ATOM     13  H   UNL     1       1.792   0.588  19.165  0.00  0.00    +0.000 HD
ENDBRANCH   9  12
BRANCH  10  14
ATOM     14  O   UNL     1       4.224   1.146  18.063  0.00  0.00    +0.000 OA
ATOM     15  H   UNL     1       3.707   0.498  18.572  0.00  0.00    +0.000 HD
ENDBRANCH  10  14
BRANCH   1  16
ATOM     16  C   UNL     1       6.370   4.802  14.769  0.00  0.00    +0.000 C 
BRANCH  16  18
ATOM     17  C   UNL     1       6.525   3.697  12.462  0.00  0.00    +0.000 C 
ATOM     18  C   UNL     1       5.692   3.917  13.715  0.00  0.00    +0.000 C 
ENDBRANCH  16  18
ENDBRANCH   1  16
BRANCH   8  19
ATOM     19  C   UNL     1       1.013   3.750  20.808  0.00  0.00    +0.000 C 
BRANCH  19  20
ATOM     20  O   UNL     1       1.248   2.652  21.695  0.00  0.00    +0.000 OA
ATOM     21  H   UNL     1       0.894   2.915  22.564  0.00  0.00    +0.000 HD
ENDBRANCH  19  20
ENDBRANCH   8  19
TORSDOF 6
ENDMDL
MODEL 2
REMARK VINA RESULT:      -6.0      1.521      1.877
REMARK  Name = 
REMARK  8 active torsions:
REMARK  status: ('A' for Active; 'I' for Inactive)
REMARK    1  A    between atoms: C_1  and  C_2
REMARK    2  A    between atoms: C_2  and  C_3
REMARK    3  A    between atoms: C_3  and  N_4
REMARK    4  A    between atoms: N_4  and  C_5
REMARK    5  A    between atoms: C_11  and  C_12
REMARK    6  A    between atoms: C_12  and  O_13
REMARK    7  A    between atoms: C_14  and  O_15
REMARK    8  A    between atoms: C_16  and  O_17
REMARK                            x       y       z     vdW  Elec       q    Type
REMARK                         _______ _______ _______ _____ _____    ______ ____
ROOT
ATOM      1  N   UNL     1       5.935   5.483  16.589  0.00  0.00    +0.000 N 
ATOM      2  C   UNL     1       7.108   6.168  17.125  0.00  0.00    +0.000 C 
ATOM      3  C   UNL     1       5.196   4.610  17.362  0.00  0.00    +0.000 C 
ATOM      4  N   UNL     1       4.301   3.784  16.902  0.00  0.00    +0.000 NA
ATOM      5  C   UNL     1       3.621   3.061  18.008  0.00  0.00    +0.000 C 
ATOM      6  C   UNL     1       4.546   3.035  19.227  0.00  0.00    +0.000 C 
ATOM      7  O   UNL     1       3.927   2.831  20.492  0.00  0.00    +0.000 OA
ATOM      8  C   UNL     1       2.764   3.634  20.740  0.00  0.00    +0.000 C 
ATOM      9  C   UNL     1       1.703   3.371  19.670  0.00  0.00    +0.000 C 
ATOM     10  C   UNL     1       2.260   3.728  18.283  0.00  0.00    +0.000 C 
ATOM     11  S   UNL     1       5.460   4.570  19.098  0.00  0.00    +0.000 S 
ENDROOT
BRANCH   9  12
ATOM     12  O   UNL     1       0.515   4.121  19.943  0.00  0.00    +0.000 OA
ATOM     13  H   UNL     1       0.116   3.778  20.764  0.00  0.00    +0.000 HD
ENDBRANCH   9  12
BRANCH  10  14
ATOM     14  O   UNL     1       1.298   3.374  17.276  0.00  0.00    +0.000 OA
ATOM     15  H   UNL     1       0.684   4.119  17.158  0.00  0.00    +0.000 HD
ENDBRANCH  10  14
BRANCH   1  16
ATOM     16  C   UNL     1       5.713   5.555  15.139  0.00  0.00    +0.000 C 
BRANCH  16  18
ATOM     17  C   UNL     1       5.866   3.860  13.222  0.00  0.00    +0.000 C 
ATOM     18  C   UNL     1       6.595   4.582  14.345  0.00  0.00    +0.000 C 
ENDBRANCH  16  18
ENDBRANCH   1  16
BRANCH   8  19
ATOM     19  C   UNL     1       2.252   3.274  22.144  0.00  0.00    +0.000 C 
BRANCH  19  20
ATOM     20  O   UNL     1       1.238   2.266  22.068  0.00  0.00    +0.000 OA
ATOM     21  H   UNL     1       1.105   1.935  22.975  0.00  0.00    +0.000 HD
ENDBRANCH  19  20
ENDBRANCH   8  19
TORSDOF 6
ENDMDL
MODEL 3
REMARK VINA RESULT:      -5.9      2.199      3.631
REMARK  Name = 
REMARK  8 active torsions:
REMARK  status: ('A' for Active; 'I' for Inactive)
REMARK    1  A    between atoms: C_1  and  C_2
REMARK    2  A    between atoms: C_2  and  C_3
REMARK    3  A    between atoms: C_3  and  N_4
REMARK    4  A    between atoms: N_4  and  C_5
REMARK    5  A    between atoms: C_11  and  C_12
REMARK    6  A    between atoms: C_12  and  O_13
REMARK    7  A    between atoms: C_14  and  O_15
REMARK    8  A    between atoms: C_16  and  O_17
REMARK                            x       y       z     vdW  Elec       q    Type
REMARK                         _______ _______ _______ _____ _____    ______ ____
ROOT
ATOM      1  N   UNL     1       6.407   5.682  16.915  0.00  0.00    +0.000 N 
ATOM      2  C   UNL     1       7.258   4.619  16.389  0.00  0.00    +0.000 C 
ATOM      3  C   UNL     1       5.122   5.426  17.351  0.00  0.00    +0.000 C 
ATOM      4  N   UNL     1       4.226   6.338  17.599  0.00  0.00    +0.000 NA
ATOM      5  C   UNL     1       2.984   5.731  18.145  0.00  0.00    +0.000 C 
ATOM      6  C   UNL     1       2.900   4.273  17.689  0.00  0.00    +0.000 C 
ATOM      7  O   UNL     1       2.080   3.408  18.465  0.00  0.00    +0.000 OA
ATOM      8  C   UNL     1       2.271   3.497  19.885  0.00  0.00    +0.000 C 
ATOM      9  C   UNL     1       2.003   4.925  20.365  0.00  0.00    +0.000 C 
ATOM     10  C   UNL     1       2.974   5.897  19.676  0.00  0.00    +0.000 C 
ATOM     11  S   UNL     1       4.615   3.762  17.588  0.00  0.00    +0.000 S 
ENDROOT
BRANCH   9  12
ATOM     12  O   UNL     1       2.130   5.011  21.787  0.00  0.00    +0.000 OA
ATOM     13  H   UNL     1       1.253   4.859  22.185  0.00  0.00    +0.000 HD
ENDBRANCH   9  12
BRANCH  10  14
ATOM     14  O   UNL     1       2.643   7.246  20.047  0.00  0.00    +0.000 OA
ATOM     15  H   UNL     1       3.466   7.721  20.258  0.00  0.00    +0.000 HD
ENDBRANCH  10  14
BRANCH   1  16
ATOM     16  C   UNL     1       6.865   7.067  16.736  0.00  0.00    +0.000 C 
BRANCH  16  18
ATOM     17  C   UNL     1       8.074   9.040  17.837  0.00  0.00    +0.000 C 
ATOM     18  C   UNL     1       7.787   7.547  17.865  0.00  0.00    +0.000 C 
ENDBRANCH  16  18
ENDBRANCH   1  16
BRANCH   8  19
ATOM     19  C   UNL     1       1.307   2.492  20.539  0.00  0.00    +0.000 C 
BRANCH  19  20
ATOM     20  O   UNL     1       1.599   2.349  21.933  0.00  0.00    +0.000 OA
ATOM     21  H   UNL     1       0.894   2.819  22.415  0.00  0.00    +0.000 HD
ENDBRANCH  19  20
ENDBRANCH   8  19
TORSDOF 6
ENDMDL
MODEL 4
REMARK VINA RESULT:      -5.9      2.348      3.779
REMARK  Name = 
REMARK  8 active torsions:
REMARK  status: ('A' for Active; 'I' for Inactive)
REMARK    1  A    between atoms: C_1  and  C_2
REMARK    2  A    between atoms: C_2  and  C_3
REMARK    3  A    between atoms: C_3  and  N_4
REMARK    4  A    between atoms: N_4  and  C_5
REMARK    5  A    between atoms: C_11  and  C_12
REMARK    6  A    between atoms: C_12  and  O_13
REMARK    7  A    between atoms: C_14  and  O_15
REMARK    8  A    between atoms: C_16  and  O_17
REMARK                            x       y       z     vdW  Elec       q    Type
REMARK                         _______ _______ _______ _____ _____    ______ ____
ROOT
ATOM      1  N   UNL     1       6.361   6.184  17.034  0.00  0.00    +0.000 N 
ATOM      2  C   UNL     1       7.259   5.309  16.286  0.00  0.00    +0.000 C 
ATOM      3  C   UNL     1       5.074   5.794  17.350  0.00  0.00    +0.000 C 
ATOM      4  N   UNL     1       4.143   6.590  17.789  0.00  0.00    +0.000 NA
ATOM      5  C   UNL     1       2.908   5.834  18.126  0.00  0.00    +0.000 C 
ATOM      6  C   UNL     1       2.884   4.536  17.315  0.00  0.00    +0.000 C 
ATOM      7  O   UNL     1       2.074   3.483  17.823  0.00  0.00    +0.000 OA
ATOM      8  C   UNL     1       2.225   3.217  19.226  0.00  0.00    +0.000 C 
ATOM      9  C   UNL     1       1.899   4.471  20.039  0.00  0.00    +0.000 C 
ATOM     10  C   UNL     1       2.855   5.609  19.648  0.00  0.00    +0.000 C 
ATOM     11  S   UNL     1       4.616   4.111  17.146  0.00  0.00    +0.000 S 
ENDROOT
BRANCH   9  12
ATOM     12  O   UNL     1       1.987   4.199  21.441  0.00  0.00    +0.000 OA
ATOM     13  H   UNL     1       1.088   4.044  21.783  0.00  0.00    +0.000 HD
ENDBRANCH   9  12
BRANCH  10  14
ATOM     14  O   UNL     1       2.471   6.813  20.334  0.00  0.00    +0.000 OA
ATOM     15  H   UNL     1       2.833   6.784  21.237  0.00  0.00    +0.000 HD
ENDBRANCH  10  14
BRANCH   1  16
ATOM     16  C   UNL     1       6.778   7.580  17.223  0.00  0.00    +0.000 C 
BRANCH  16  18
ATOM     17  C   UNL     1       8.497   9.157  18.284  0.00  0.00    +0.000 C 
ATOM     18  C   UNL     1       8.050   7.719  18.070  0.00  0.00    +0.000 C 
ENDBRANCH  16  18
ENDBRANCH   1  16
BRANCH   8  19
ATOM     19  C   UNL     1       1.280   2.056  19.575  0.00  0.00    +0.000 C 
BRANCH  19  20
ATOM     20  O   UNL     1       0.352   1.824  18.510  0.00  0.00    +0.000 OA
ATOM     21  H   UNL     1      -0.205   1.072  18.785  0.00  0.00    +0.000 HD
ENDBRANCH  19  20
ENDBRANCH   8  19
TORSDOF 6
ENDMDL
MODEL 5
REMARK VINA RESULT:      -5.8      3.213      5.607
REMARK  Name = 
REMARK  8 active torsions:
REMARK  status: ('A' for Active; 'I' for Inactive)
REMARK    1  A    between atoms: C_1  and  C_2
REMARK    2  A    between atoms: C_2  and  C_3
REMARK    3  A    between atoms: C_3  and  N_4
REMARK    4  A    between atoms: N_4  and  C_5
REMARK    5  A    between atoms: C_11  and  C_12
REMARK    6  A    between atoms: C_12  and  O_13
REMARK    7  A    between atoms: C_14  and  O_15
REMARK    8  A    between atoms: C_16  and  O_17
REMARK                            x       y       z     vdW  Elec       q    Type
REMARK                         _______ _______ _______ _____ _____    ______ ____
ROOT
ATOM      1  N   UNL     1       1.804   4.190  19.243  0.00  0.00    +0.000 N 
ATOM      2  C   UNL     1       1.213   4.907  20.369  0.00  0.00    +0.000 C 
ATOM      3  C   UNL     1       2.780   4.767  18.455  0.00  0.00    +0.000 C 
ATOM      4  N   UNL     1       3.177   4.304  17.305  0.00  0.00    +0.000 NA
ATOM      5  C   UNL     1       4.308   5.104  16.768  0.00  0.00    +0.000 C 
ATOM      6  C   UNL     1       4.254   6.509  17.372  0.00  0.00    +0.000 C 
ATOM      7  O   UNL     1       5.468   7.250  17.371  0.00  0.00    +0.000 OA
ATOM      8  C   UNL     1       6.623   6.532  17.830  0.00  0.00    +0.000 C 
ATOM      9  C   UNL     1       6.851   5.291  16.965  0.00  0.00    +0.000 C 
ATOM     10  C   UNL     1       5.628   4.363  17.052  0.00  0.00    +0.000 C 
ATOM     11  S   UNL     1       3.560   6.242  19.002  0.00  0.00    +0.000 S 
ENDROOT
BRANCH   9  12
ATOM     12  O   UNL     1       8.035   4.601  17.376  0.00  0.00    +0.000 OA
ATOM     13  H   UNL     1       7.844   3.645  17.400  0.00  0.00    +0.000 HD
ENDBRANCH   9  12
BRANCH  10  14
ATOM     14  O   UNL     1       5.803   3.256  16.152  0.00  0.00    +0.000 OA
ATOM     15  H   UNL     1       5.188   2.547  16.409  0.00  0.00    +0.000 HD
ENDBRANCH  10  14
BRANCH   1  16
ATOM     16  C   UNL     1       1.157   2.940  18.821  0.00  0.00    +0.000 C 
BRANCH  16  18
ATOM     17  C   UNL     1       3.179   1.375  18.655  0.00  0.00    +0.000 C 
ATOM     18  C   UNL     1       1.865   1.687  19.353  0.00  0.00    +0.000 C 
ENDBRANCH  16  18
ENDBRANCH   1  16
BRANCH   8  19
ATOM     19  C   UNL     1       7.819   7.497  17.758  0.00  0.00    +0.000 C 
BRANCH  19  20
ATOM     20  O   UNL     1       8.610   7.407  18.947  0.00  0.00    +0.000 OA
ATOM     21  H   UNL     1       8.350   6.580  19.393  0.00  0.00    +0.000 HD
ENDBRANCH  19  20
ENDBRANCH   8  19
TORSDOF 6
ENDMDL
MODEL 6
REMARK VINA RESULT:      -5.6      2.996      6.429
REMARK  Name = 
REMARK  8 active torsions:
REMARK  status: ('A' for Active; 'I' for Inactive)
REMARK    1  A    between atoms: C_1  and  C_2
REMARK    2  A    between atoms: C_2  and  C_3
REMARK    3  A    between atoms: C_3  and  N_4
REMARK    4  A    between atoms: N_4  and  C_5
REMARK    5  A    between atoms: C_11  and  C_12
REMARK    6  A    between atoms: C_12  and  O_13
REMARK    7  A    between atoms: C_14  and  O_15
REMARK    8  A    between atoms: C_16  and  O_17
REMARK                            x       y       z     vdW  Elec       q    Type
REMARK                         _______ _______ _______ _____ _____    ______ ____
ROOT
ATOM      1  N   UNL     1       1.609   3.427  18.983  0.00  0.00    +0.000 N 
ATOM      2  C   UNL     1       0.989   2.147  18.652  0.00  0.00    +0.000 C 
ATOM      3  C   UNL     1       2.839   3.785  18.469  0.00  0.00    +0.000 C 
ATOM      4  N   UNL     1       3.563   4.779  18.897  0.00  0.00    +0.000 NA
ATOM      5  C   UNL     1       4.781   4.951  18.064  0.00  0.00    +0.000 C 
ATOM      6  C   UNL     1       5.120   3.616  17.396  0.00  0.00    +0.000 C 
ATOM      7  O   UNL     1       5.924   3.675  16.225  0.00  0.00    +0.000 OA
ATOM      8  C   UNL     1       5.520   4.653  15.254  0.00  0.00    +0.000 C 
ATOM      9  C   UNL     1       5.526   6.050  15.878  0.00  0.00    +0.000 C 
ATOM     10  C   UNL     1       4.547   6.097  17.062  0.00  0.00    +0.000 C 
ATOM     11  S   UNL     1       3.520   2.849  17.148  0.00  0.00    +0.000 S 
ENDROOT
BRANCH   9  12
ATOM     12  O   UNL     1       5.185   7.039  14.903  0.00  0.00    +0.000 OA
ATOM     13  H   UNL     1       5.980   7.568  14.708  0.00  0.00    +0.000 HD
ENDBRANCH   9  12
BRANCH  10  14
ATOM     14  O   UNL     1       4.641   7.376  17.710  0.00  0.00    +0.000 OA
ATOM     15  H   UNL     1       4.475   8.072  17.050  0.00  0.00    +0.000 HD
ENDBRANCH  10  14
BRANCH   1  16
ATOM     16  C   UNL     1       1.004   4.210  20.069  0.00  0.00    +0.000 C 
BRANCH  16  18
ATOM     17  C   UNL     1       1.792   2.569  21.873  0.00  0.00    +0.000 C 
ATOM     18  C   UNL     1       1.714   4.018  21.416  0.00  0.00    +0.000 C 
ENDBRANCH  16  18
ENDBRANCH   1  16
BRANCH   8  19
ATOM     19  C   UNL     1       6.501   4.558  14.074  0.00  0.00    +0.000 C 
BRANCH  19  20
ATOM     20  O   UNL     1       7.629   5.413  14.286  0.00  0.00    +0.000 OA
ATOM     21  H   UNL     1       7.368   6.052  14.974  0.00  0.00    +0.000 HD
ENDBRANCH  19  20
ENDBRANCH   8  19
TORSDOF 6
ENDMDL
MODEL 7
REMARK VINA RESULT:      -5.5      3.434      5.936
REMARK  Name = 
REMARK  8 active torsions:
REMARK  status: ('A' for Active; 'I' for Inactive)
REMARK    1  A    between atoms: C_1  and  C_2
REMARK    2  A    between atoms: C_2  and  C_3
REMARK    3  A    between atoms: C_3  and  N_4
REMARK    4  A    between atoms: N_4  and  C_5
REMARK    5  A    between atoms: C_11  and  C_12
REMARK    6  A    between atoms: C_12  and  O_13
REMARK    7  A    between atoms: C_14  and  O_15
REMARK    8  A    between atoms: C_16  and  O_17
REMARK                            x       y       z     vdW  Elec       q    Type
REMARK                         _______ _______ _______ _____ _____    ______ ____
ROOT
ATOM      1  N   UNL     1       2.770   4.032  17.786  0.00  0.00    +0.000 N 
ATOM      2  C   UNL     1       1.511   4.770  17.833  0.00  0.00    +0.000 C 
ATOM      3  C   UNL     1       3.947   4.640  17.399  0.00  0.00    +0.000 C 
ATOM      4  N   UNL     1       5.045   4.010  17.096  0.00  0.00    +0.000 NA
ATOM      5  C   UNL     1       6.151   4.965  16.820  0.00  0.00    +0.000 C 
ATOM      6  C   UNL     1       5.554   6.304  16.383  0.00  0.00    +0.000 C 
ATOM      7  O   UNL     1       6.381   7.451  16.536  0.00  0.00    +0.000 OA
ATOM      8  C   UNL     1       7.037   7.566  17.807  0.00  0.00    +0.000 C 
ATOM      9  C   UNL     1       7.914   6.339  18.061  0.00  0.00    +0.000 C 
ATOM     10  C   UNL     1       7.047   5.070  18.068  0.00  0.00    +0.000 C 
ATOM     11  S   UNL     1       4.006   6.392  17.282  0.00  0.00    +0.000 S 
ENDROOT
BRANCH   9  12
ATOM     12  O   UNL     1       8.621   6.472  19.298  0.00  0.00    +0.000 OA
ATOM     13  H   UNL     1       9.432   5.932  19.250  0.00  0.00    +0.000 HD
ENDBRANCH   9  12
BRANCH  10  14
ATOM     14  O   UNL     1       7.892   3.914  18.196  0.00  0.00    +0.000 OA
ATOM     15  H   UNL     1       8.454   4.026  18.982  0.00  0.00    +0.000 HD
ENDBRANCH  10  14
BRANCH   1  16
ATOM     16  C   UNL     1       2.702   2.570  17.918  0.00  0.00    +0.000 C 
BRANCH  16  18
ATOM     17  C   UNL     1       2.728   2.644  20.480  0.00  0.00    +0.000 C 
ATOM     18  C   UNL     1       2.045   2.114  19.228  0.00  0.00    +0.000 C 
ENDBRANCH  16  18
ENDBRANCH   1  16
BRANCH   8  19
ATOM     19  C   UNL     1       7.870   8.859  17.776  0.00  0.00    +0.000 C 
BRANCH  19  20
ATOM     20  O   UNL     1       8.683   8.963  18.949  0.00  0.00    +0.000 OA
ATOM     21  H   UNL     1       8.325   8.325  19.593  0.00  0.00    +0.000 HD
ENDBRANCH  19  20
ENDBRANCH   8  19
TORSDOF 6
ENDMDL
MODEL 8
REMARK VINA RESULT:      -5.4      2.289      2.908
REMARK  Name = 
REMARK  8 active torsions:
REMARK  status: ('A' for Active; 'I' for Inactive)
REMARK    1  A    between atoms: C_1  and  C_2
REMARK    2  A    between atoms: C_2  and  C_3
REMARK    3  A    between atoms: C_3  and  N_4
REMARK    4  A    between atoms: N_4  and  C_5
REMARK    5  A    between atoms: C_11  and  C_12
REMARK    6  A    between atoms: C_12  and  O_13
REMARK    7  A    between atoms: C_14  and  O_15
REMARK    8  A    between atoms: C_16  and  O_17
REMARK                            x       y       z     vdW  Elec       q    Type
REMARK                         _______ _______ _______ _____ _____    ______ ____
ROOT
ATOM      1  N   UNL     1       6.007   6.409  17.222  0.00  0.00    +0.000 N 
ATOM      2  C   UNL     1       5.509   7.441  16.318  0.00  0.00    +0.000 C 
ATOM      3  C   UNL     1       5.160   5.736  18.081  0.00  0.00    +0.000 C 
ATOM      4  N   UNL     1       5.549   4.991  19.075  0.00  0.00    +0.000 NA
ATOM      5  C   UNL     1       4.391   4.334  19.735  0.00  0.00    +0.000 C 
ATOM      6  C   UNL     1       3.132   5.165  19.475  0.00  0.00    +0.000 C 
ATOM      7  O   UNL     1       1.886   4.491  19.596  0.00  0.00    +0.000 OA
ATOM      8  C   UNL     1       1.813   3.218  18.936  0.00  0.00    +0.000 C 
ATOM      9  C   UNL     1       2.891   2.279  19.480  0.00  0.00    +0.000 C 
ATOM     10  C   UNL     1       4.283   2.882  19.233  0.00  0.00    +0.000 C 
ATOM     11  S   UNL     1       3.425   5.879  17.857  0.00  0.00    +0.000 S 
ENDROOT
BRANCH   9  12
ATOM     12  O   UNL     1       2.787   0.987  18.873  0.00  0.00    +0.000 OA
ATOM     13  H   UNL     1       1.985   0.550  19.212  0.00  0.00    +0.000 HD
ENDBRANCH   9  12
BRANCH  10  14
ATOM     14  O   UNL     1       5.281   2.048  19.845  0.00  0.00    +0.000 OA
ATOM     15  H   UNL     1       5.880   2.612  20.364  0.00  0.00    +0.000 HD
ENDBRANCH  10  14
BRANCH   1  16
ATOM     16  C   UNL     1       7.463   6.283  17.370  0.00  0.00    +0.000 C 
BRANCH  16  18
ATOM     17  C   UNL     1       8.207   8.668  17.944  0.00  0.00    +0.000 C 
ATOM     18  C   UNL     1       8.045   7.234  18.425  0.00  0.00    +0.000 C 
ENDBRANCH  16  18
ENDBRANCH   1  16
BRANCH   8  19
ATOM     19  C   UNL     1       0.402   2.658  19.178  0.00  0.00    +0.000 C 
BRANCH  19  20
ATOM     20  O   UNL     1       0.089   1.645  18.217  0.00  0.00    +0.000 OA
ATOM     21  H   UNL     1      -0.116   2.106  17.383  0.00  0.00    +0.000 HD
ENDBRANCH  19  20
ENDBRANCH   8  19
TORSDOF 6
ENDMDL
MODEL 9
REMARK VINA RESULT:      -5.3      3.102      6.320
REMARK  Name = 
REMARK  8 active torsions:
REMARK  status: ('A' for Active; 'I' for Inactive)
REMARK    1  A    between atoms: C_1  and  C_2
REMARK    2  A    between atoms: C_2  and  C_3
REMARK    3  A    between atoms: C_3  and  N_4
REMARK    4  A    between atoms: N_4  and  C_5
REMARK    5  A    between atoms: C_11  and  C_12
REMARK    6  A    between atoms: C_12  and  O_13
REMARK    7  A    between atoms: C_14  and  O_15
REMARK    8  A    between atoms: C_16  and  O_17
REMARK                            x       y       z     vdW  Elec       q    Type
REMARK                         _______ _______ _______ _____ _____    ______ ____
ROOT
ATOM      1  N   UNL     1       2.306   4.365  19.481  0.00  0.00    +0.000 N 
ATOM      2  C   UNL     1       1.021   4.065  18.856  0.00  0.00    +0.000 C 
ATOM      3  C   UNL     1       3.496   4.174  18.807  0.00  0.00    +0.000 C 
ATOM      4  N   UNL     1       4.674   4.181  19.361  0.00  0.00    +0.000 NA
ATOM      5  C   UNL     1       5.746   4.046  18.341  0.00  0.00    +0.000 C 
ATOM      6  C   UNL     1       5.171   3.350  17.105  0.00  0.00    +0.000 C 
ATOM      7  O   UNL     1       5.864   3.550  15.879  0.00  0.00    +0.000 OA
ATOM      8  C   UNL     1       6.215   4.912  15.592  0.00  0.00    +0.000 C 
ATOM      9  C   UNL     1       7.096   5.477  16.708  0.00  0.00    +0.000 C 
ATOM     10  C   UNL     1       6.336   5.436  18.043  0.00  0.00    +0.000 C 
ATOM     11  S   UNL     1       3.461   3.885  17.075  0.00  0.00    +0.000 S 
ENDROOT
BRANCH   9  12
ATOM     12  O   UNL     1       7.503   6.814  16.401  0.00  0.00    +0.000 OA
ATOM     13  H   UNL     1       8.469   6.822  16.275  0.00  0.00    +0.000 HD
ENDBRANCH   9  12
BRANCH  10  14
ATOM     14  O   UNL     1       7.208   5.864  19.103  0.00  0.00    +0.000 OA
ATOM     15  H   UNL     1       8.103   5.525  18.925  0.00  0.00    +0.000 HD
ENDBRANCH  10  14
BRANCH   1  16
ATOM     16  C   UNL     1       2.310   4.637  20.925  0.00  0.00    +0.000 C 
BRANCH  16  18
ATOM     17  C   UNL     1       2.698   2.207  21.642  0.00  0.00    +0.000 C 
ATOM     18  C   UNL     1       1.824   3.446  21.762  0.00  0.00    +0.000 C 
ENDBRANCH  16  18
ENDBRANCH   1  16
BRANCH   8  19
ATOM     19  C   UNL     1       6.945   4.920  14.239  0.00  0.00    +0.000 C 
BRANCH  19  20
ATOM     20  O   UNL     1       6.715   3.695  13.534  0.00  0.00    +0.000 OA
ATOM     21  H   UNL     1       6.289   3.935  12.691  0.00  0.00    +0.000 HD
ENDBRANCH  19  20
ENDBRANCH   8  19
TORSDOF 6
ENDMDL
