MODEL 1
REMARK VINA RESULT:      -7.9      0.000      0.000
REMARK  Name = 
REMARK  8 active torsions:
REMARK  status: ('A' for Active; 'I' for Inactive)
REMARK    1  A    between atoms: C_2  and  C_3
REMARK    2  A    between atoms: C_3  and  O_4
REMARK    3  A    between atoms: O_4  and  C_5
REMARK    4  A    between atoms: C_5  and  C_7
REMARK    5  A    between atoms: C_10  and  O_11
REMARK    6  A    between atoms: N_14  and  C_15
REMARK    7  A    between atoms: C_15  and  C_16
REMARK    8  A    between atoms: C_16  and  C_17
REMARK                            x       y       z     vdW  Elec       q    Type
REMARK                         _______ _______ _______ _____ _____    ______ ____
ROOT
ATOM      1  O   UNL     1       7.787   6.817  16.387  0.00  0.00    +0.000 OA
ATOM      2  C   UNL     1       7.383   7.217  17.474  0.00  0.00    +0.000 C 
ATOM      3  N   UNL     1       6.137   6.909  17.982  0.00  0.00    +0.000 N 
ATOM      4  H   UNL     1       5.830   7.437  18.793  0.00  0.00    +0.000 HD
ENDROOT
BRANCH   2   5
ATOM      5  C   UNL     1       8.251   8.024  18.438  0.00  0.00    +0.000 C 
BRANCH   5   6
ATOM      6  O   UNL     1       8.457   9.371  17.993  0.00  0.00    +0.000 OA
BRANCH   6   7
ATOM      7  C   UNL     1       9.084  10.166  18.896  0.00  0.00    +0.000 C 
ATOM      8  O   UNL     1       9.143   9.984  20.098  0.00  0.00    +0.000 OA
BRANCH   7   9
ATOM      9  C   UNL     1       9.672  11.349  18.220  0.00  0.00    +0.000 A 
ATOM     10  C   UNL     1      11.024  11.404  17.863  0.00  0.00    +0.000 A 
ATOM     11  C   UNL     1      11.533  12.543  17.234  0.00  0.00    +0.000 A 
ATOM     12  C   UNL     1      10.699  13.628  16.989  0.00  0.00    +0.000 A 
ATOM     13  C   UNL     1       9.354  13.584  17.337  0.00  0.00    +0.000 A 
ATOM     14  C   UNL     1       8.839  12.444  17.956  0.00  0.00    +0.000 A 
BRANCH  12  15
ATOM     15  O   UNL     1      11.173  14.768  16.414  0.00  0.00    +0.000 OA
ATOM     16  H   UNL     1      11.220  14.634  15.453  0.00  0.00    +0.000 HD
ENDBRANCH  12  15
ENDBRANCH   7   9
ENDBRANCH   6   7
ENDBRANCH   5   6
ENDBRANCH   2   5
BRANCH   3  17
ATOM     17  C   UNL     1       5.132   6.263  17.160  0.00  0.00    +0.000 C 
BRANCH  17  18
ATOM     18  C   UNL     1       3.750   6.900  17.313  0.00  0.00    +0.000 C 
BRANCH  18  19
ATOM     19  C   UNL     1       2.980   6.362  18.485  0.00  0.00    +0.000 A 
ATOM     20  C   UNL     1       2.709   7.032  19.661  0.00  0.00    +0.000 A 
ATOM     21  N   UNL     1       1.995   6.202  20.480  0.00  0.00    +0.000 N 
ATOM     22  C   UNL     1       1.768   5.000  19.853  0.00  0.00    +0.000 A 
ATOM     23  C   UNL     1       1.069   3.871  20.299  0.00  0.00    +0.000 A 
ATOM     24  C   UNL     1       1.003   2.770  19.441  0.00  0.00    +0.000 A 
ATOM     25  C   UNL     1       1.628   2.792  18.197  0.00  0.00    +0.000 A 
ATOM     26  C   UNL     1       2.316   3.932  17.765  0.00  0.00    +0.000 A 
ATOM     27  C   UNL     1       2.385   5.064  18.604  0.00  0.00    +0.000 A 
ATOM     28  H   UNL     1       1.669   6.435  21.408  0.00  0.00    +0.000 HD
ENDBRANCH  18  19
ENDBRANCH  17  18
ENDBRANCH   3  17
TORSDOF 8
ENDMDL
MODEL 2
REMARK VINA RESULT:      -7.8      3.208     10.112
REMARK  Name = 
REMARK  8 active torsions:
REMARK  status: ('A' for Active; 'I' for Inactive)
REMARK    1  A    between atoms: C_2  and  C_3
REMARK    2  A    between atoms: C_3  and  O_4
REMARK    3  A    between atoms: O_4  and  C_5
REMARK    4  A    between atoms: C_5  and  C_7
REMARK    5  A    between atoms: C_10  and  O_11
REMARK    6  A    between atoms: N_14  and  C_15
REMARK    7  A    between atoms: C_15  and  C_16
REMARK    8  A    between atoms: C_16  and  C_17
REMARK                            x       y       z     vdW  Elec       q    Type
REMARK                         _______ _______ _______ _____ _____    ______ ____
ROOT
ATOM      1  O   UNL     1       7.601   5.566  19.644  0.00  0.00    +0.000 OA
ATOM      2  C   UNL     1       7.603   5.919  18.468  0.00  0.00    +0.000 C 
ATOM      3  N   UNL     1       8.090   7.138  18.042  0.00  0.00    +0.000 N 
ATOM      4  H   UNL     1       7.876   7.407  17.087  0.00  0.00    +0.000 HD
ENDROOT
BRANCH   2   5
ATOM      5  C   UNL     1       7.157   5.008  17.327  0.00  0.00    +0.000 C 
BRANCH   5   6
ATOM      6  O   UNL     1       6.049   4.176  17.692  0.00  0.00    +0.000 OA
BRANCH   6   7
ATOM      7  C   UNL     1       4.856   4.585  17.190  0.00  0.00    +0.000 C 
ATOM      8  O   UNL     1       4.686   5.224  16.168  0.00  0.00    +0.000 OA
BRANCH   7   9
ATOM      9  C   UNL     1       3.751   4.180  18.094  0.00  0.00    +0.000 A 
ATOM     10  C   UNL     1       3.990   3.625  19.356  0.00  0.00    +0.000 A 
ATOM     11  C   UNL     1       2.916   3.253  20.168  0.00  0.00    +0.000 A 
ATOM     12  C   UNL     1       1.614   3.412  19.708  0.00  0.00    +0.000 A 
ATOM     13  C   UNL     1       1.364   3.965  18.458  0.00  0.00    +0.000 A 
ATOM     14  C   UNL     1       2.434   4.347  17.647  0.00  0.00    +0.000 A 
BRANCH  12  15
ATOM     15  O   UNL     1       0.547   3.023  20.460  0.00  0.00    +0.000 OA
ATOM     16  H   UNL     1      -0.201   2.843  19.867  0.00  0.00    +0.000 HD
ENDBRANCH  12  15
ENDBRANCH   7   9
ENDBRANCH   6   7
ENDBRANCH   5   6
ENDBRANCH   2   5
BRANCH   3  17
ATOM     17  C   UNL     1       8.436   8.179  18.991  0.00  0.00    +0.000 C 
BRANCH  17  18
ATOM     18  C   UNL     1       8.655   9.537  18.319  0.00  0.00    +0.000 C 
BRANCH  18  19
ATOM     19  C   UNL     1       9.415  10.504  19.181  0.00  0.00    +0.000 A 
ATOM     20  C   UNL     1       9.310  10.632  20.551  0.00  0.00    +0.000 A 
ATOM     21  N   UNL     1      10.156  11.626  20.961  0.00  0.00    +0.000 N 
ATOM     22  C   UNL     1      10.836  12.142  19.883  0.00  0.00    +0.000 A 
ATOM     23  C   UNL     1      11.809  13.148  19.833  0.00  0.00    +0.000 A 
ATOM     24  C   UNL     1      12.333  13.479  18.580  0.00  0.00    +0.000 A 
ATOM     25  C   UNL     1      11.886  12.841  17.425  0.00  0.00    +0.000 A 
ATOM     26  C   UNL     1      10.918  11.833  17.496  0.00  0.00    +0.000 A 
ATOM     27  C   UNL     1      10.384  11.467  18.750  0.00  0.00    +0.000 A 
ATOM     28  H   UNL     1      10.275  11.935  21.916  0.00  0.00    +0.000 HD
ENDBRANCH  18  19
ENDBRANCH  17  18
ENDBRANCH   3  17
TORSDOF 8
ENDMDL
MODEL 3
REMARK VINA RESULT:      -7.8      3.154     10.112
REMARK  Name = 
REMARK  8 active torsions:
REMARK  status: ('A' for Active; 'I' for Inactive)
REMARK    1  A    between atoms: C_2  and  C_3
REMARK    2  A    between atoms: C_3  and  O_4
REMARK    3  A    between atoms: O_4  and  C_5
REMARK    4  A    between atoms: C_5  and  C_7
REMARK    5  A    between atoms: C_10  and  O_11
REMARK    6  A    between atoms: N_14  and  C_15
REMARK    7  A    between atoms: C_15  and  C_16
REMARK    8  A    between atoms: C_16  and  C_17
REMARK                            x       y       z     vdW  Elec       q    Type
REMARK                         _______ _______ _______ _____ _____    ______ ____
ROOT
ATOM      1  O   UNL     1       6.382   7.337  16.420  0.00  0.00    +0.000 OA
ATOM      2  C   UNL     1       7.149   6.754  17.180  0.00  0.00    +0.000 C 
ATOM      3  N   UNL     1       7.977   7.406  18.072  0.00  0.00    +0.000 N 
ATOM      4  H   UNL     1       8.699   6.849  18.516  0.00  0.00    +0.000 HD
ENDROOT
BRANCH   2   5
ATOM      5  C   UNL     1       7.206   5.232  17.297  0.00  0.00    +0.000 C 
BRANCH   5   6
ATOM      6  O   UNL     1       5.902   4.636  17.313  0.00  0.00    +0.000 OA
BRANCH   6   7
ATOM      7  C   UNL     1       5.427   4.367  18.555  0.00  0.00    +0.000 C 
ATOM      8  O   UNL     1       6.018   4.542  19.605  0.00  0.00    +0.000 OA
BRANCH   7   9
ATOM      9  C   UNL     1       4.070   3.773  18.471  0.00  0.00    +0.000 A 
ATOM     10  C   UNL     1       2.975   4.492  17.980  0.00  0.00    +0.000 A 
ATOM     11  C   UNL     1       1.714   3.892  17.927  0.00  0.00    +0.000 A 
ATOM     12  C   UNL     1       1.549   2.591  18.387  0.00  0.00    +0.000 A 
ATOM     13  C   UNL     1       2.629   1.866  18.874  0.00  0.00    +0.000 A 
ATOM     14  C   UNL     1       3.892   2.458  18.919  0.00  0.00    +0.000 A 
BRANCH  12  15
ATOM     15  O   UNL     1       0.326   1.991  18.385  0.00  0.00    +0.000 OA
ATOM     16  H   UNL     1       0.263   1.411  19.161  0.00  0.00    +0.000 HD
ENDBRANCH  12  15
ENDBRANCH   7   9
ENDBRANCH   6   7
ENDBRANCH   5   6
ENDBRANCH   2   5
BRANCH   3  17
ATOM     17  C   UNL     1       8.151   8.844  18.017  0.00  0.00    +0.000 C 
BRANCH  17  18
ATOM     18  C   UNL     1       9.000   9.378  19.173  0.00  0.00    +0.000 C 
BRANCH  18  19
ATOM     19  C   UNL     1       9.461  10.791  18.961  0.00  0.00    +0.000 A 
ATOM     20  C   UNL     1       9.871  11.345  17.765  0.00  0.00    +0.000 A 
ATOM     21  N   UNL     1      10.221  12.649  17.986  0.00  0.00    +0.000 N 
ATOM     22  C   UNL     1      10.025  12.972  19.308  0.00  0.00    +0.000 A 
ATOM     23  C   UNL     1      10.226  14.187  19.975  0.00  0.00    +0.000 A 
ATOM     24  C   UNL     1       9.948  14.228  21.344  0.00  0.00    +0.000 A 
ATOM     25  C   UNL     1       9.506  13.092  22.019  0.00  0.00    +0.000 A 
ATOM     26  C   UNL     1       9.304  11.888  21.334  0.00  0.00    +0.000 A 
ATOM     27  C   UNL     1       9.562  11.824  19.948  0.00  0.00    +0.000 A 
ATOM     28  H   UNL     1      10.564  13.289  17.284  0.00  0.00    +0.000 HD
ENDBRANCH  18  19
ENDBRANCH  17  18
ENDBRANCH   3  17
TORSDOF 8
ENDMDL
MODEL 4
REMARK VINA RESULT:      -7.6      1.685      2.337
REMARK  Name = 
REMARK  8 active torsions:
REMARK  status: ('A' for Active; 'I' for Inactive)
REMARK    1  A    between atoms: C_2  and  C_3
REMARK    2  A    between atoms: C_3  and  O_4
REMARK    3  A    between atoms: O_4  and  C_5
REMARK    4  A    between atoms: C_5  and  C_7
REMARK    5  A    between atoms: C_10  and  O_11
REMARK    6  A    between atoms: N_14  and  C_15
REMARK    7  A    between atoms: C_15  and  C_16
REMARK    8  A    between atoms: C_16  and  C_17
REMARK                            x       y       z     vdW  Elec       q    Type
REMARK                         _______ _______ _______ _____ _____    ______ ____
ROOT
ATOM      1  O   UNL     1       7.657   8.380  17.103  0.00  0.00    +0.000 OA
ATOM      2  C   UNL     1       8.123   8.081  18.198  0.00  0.00    +0.000 C 
ATOM      3  N   UNL     1       8.000   6.826  18.759  0.00  0.00    +0.000 N 
ATOM      4  H   UNL     1       8.255   6.736  19.737  0.00  0.00    +0.000 HD
ENDROOT
BRANCH   2   5
ATOM      5  C   UNL     1       8.981   9.037  19.024  0.00  0.00    +0.000 C 
BRANCH   5   6
ATOM      6  O   UNL     1       8.915  10.386  18.544  0.00  0.00    +0.000 OA
BRANCH   6   7
ATOM      7  C   UNL     1       9.523  11.294  19.348  0.00  0.00    +0.000 C 
ATOM      8  O   UNL     1       9.666  11.207  20.554  0.00  0.00    +0.000 OA
BRANCH   7   9
ATOM      9  C   UNL     1       9.970  12.466  18.556  0.00  0.00    +0.000 A 
ATOM     10  C   UNL     1       9.510  13.761  18.822  0.00  0.00    +0.000 A 
ATOM     11  C   UNL     1       9.955  14.832  18.043  0.00  0.00    +0.000 A 
ATOM     12  C   UNL     1      10.832  14.603  16.989  0.00  0.00    +0.000 A 
ATOM     13  C   UNL     1      11.298  13.322  16.718  0.00  0.00    +0.000 A 
ATOM     14  C   UNL     1      10.864  12.251  17.500  0.00  0.00    +0.000 A 
BRANCH  12  15
ATOM     15  O   UNL     1      11.254  15.620  16.187  0.00  0.00    +0.000 OA
ATOM     16  H   UNL     1      10.475  16.068  15.819  0.00  0.00    +0.000 HD
ENDBRANCH  12  15
ENDBRANCH   7   9
ENDBRANCH   6   7
ENDBRANCH   5   6
ENDBRANCH   2   5
BRANCH   3  17
ATOM     17  C   UNL     1       7.117   5.831  18.181  0.00  0.00    +0.000 C 
BRANCH  17  18
ATOM     18  C   UNL     1       6.090   5.303  19.186  0.00  0.00    +0.000 C 
BRANCH  18  19
ATOM     19  C   UNL     1       4.904   4.658  18.529  0.00  0.00    +0.000 A 
ATOM     20  C   UNL     1       4.848   4.175  17.237  0.00  0.00    +0.000 A 
ATOM     21  N   UNL     1       3.596   3.673  17.013  0.00  0.00    +0.000 N 
ATOM     22  C   UNL     1       2.828   3.795  18.148  0.00  0.00    +0.000 A 
ATOM     23  C   UNL     1       1.506   3.401  18.384  0.00  0.00    +0.000 A 
ATOM     24  C   UNL     1       0.970   3.660  19.649  0.00  0.00    +0.000 A 
ATOM     25  C   UNL     1       1.723   4.305  20.628  0.00  0.00    +0.000 A 
ATOM     26  C   UNL     1       3.045   4.685  20.375  0.00  0.00    +0.000 A 
ATOM     27  C   UNL     1       3.617   4.421  19.112  0.00  0.00    +0.000 A 
ATOM     28  H   UNL     1       3.277   3.262  16.147  0.00  0.00    +0.000 HD
ENDBRANCH  18  19
ENDBRANCH  17  18
ENDBRANCH   3  17
TORSDOF 8
ENDMDL
MODEL 5
REMARK VINA RESULT:      -7.5      2.969     10.081
REMARK  Name = 
REMARK  8 active torsions:
REMARK  status: ('A' for Active; 'I' for Inactive)
REMARK    1  A    between atoms: C_2  and  C_3
REMARK    2  A    between atoms: C_3  and  O_4
REMARK    3  A    between atoms: O_4  and  C_5
REMARK    4  A    between atoms: C_5  and  C_7
REMARK    5  A    between atoms: C_10  and  O_11
REMARK    6  A    between atoms: N_14  and  C_15
REMARK    7  A    between atoms: C_15  and  C_16
REMARK    8  A    between atoms: C_16  and  C_17
REMARK                            x       y       z     vdW  Elec       q    Type
REMARK                         _______ _______ _______ _____ _____    ______ ____
ROOT
ATOM      1  O   UNL     1       6.275   6.176  18.779  0.00  0.00    +0.000 OA
ATOM      2  C   UNL     1       6.212   6.670  17.657  0.00  0.00    +0.000 C 
ATOM      3  N   UNL     1       7.136   7.573  17.171  0.00  0.00    +0.000 N 
ATOM      4  H   UNL     1       6.894   8.058  16.313  0.00  0.00    +0.000 HD
ENDROOT
BRANCH   2   5
ATOM      5  C   UNL     1       5.158   6.264  16.629  0.00  0.00    +0.000 C 
BRANCH   5   6
ATOM      6  O   UNL     1       4.176   5.373  17.175  0.00  0.00    +0.000 OA
BRANCH   6   7
ATOM      7  C   UNL     1       3.124   5.996  17.763  0.00  0.00    +0.000 C 
ATOM      8  O   UNL     1       2.712   7.112  17.505  0.00  0.00    +0.000 OA
BRANCH   7   9
ATOM      9  C   UNL     1       2.545   5.137  18.825  0.00  0.00    +0.000 A 
ATOM     10  C   UNL     1       3.022   5.159  20.140  0.00  0.00    +0.000 A 
ATOM     11  C   UNL     1       2.449   4.325  21.104  0.00  0.00    +0.000 A 
ATOM     12  C   UNL     1       1.423   3.459  20.745  0.00  0.00    +0.000 A 
ATOM     13  C   UNL     1       0.938   3.430  19.444  0.00  0.00    +0.000 A 
ATOM     14  C   UNL     1       1.501   4.269  18.480  0.00  0.00    +0.000 A 
BRANCH  12  15
ATOM     15  O   UNL     1       0.869   2.606  21.653  0.00  0.00    +0.000 OA
ATOM     16  H   UNL     1       1.583   2.120  22.097  0.00  0.00    +0.000 HD
ENDBRANCH  12  15
ENDBRANCH   7   9
ENDBRANCH   6   7
ENDBRANCH   5   6
ENDBRANCH   2   5
BRANCH   3  17
ATOM     17  C   UNL     1       8.131   8.168  18.042  0.00  0.00    +0.000 C 
BRANCH  17  18
ATOM     18  C   UNL     1       8.353   9.654  17.751  0.00  0.00    +0.000 C 
BRANCH  18  19
ATOM     19  C   UNL     1       9.143  10.351  18.821  0.00  0.00    +0.000 A 
ATOM     20  C   UNL     1       8.975  10.208  20.184  0.00  0.00    +0.000 A 
ATOM     21  N   UNL     1       9.876  11.016  20.821  0.00  0.00    +0.000 N 
ATOM     22  C   UNL     1      10.655  11.674  19.898  0.00  0.00    +0.000 A 
ATOM     23  C   UNL     1      11.709  12.575  20.092  0.00  0.00    +0.000 A 
ATOM     24  C   UNL     1      12.327  13.103  18.955  0.00  0.00    +0.000 A 
ATOM     25  C   UNL     1      11.892  12.757  17.677  0.00  0.00    +0.000 A 
ATOM     26  C   UNL     1      10.841  11.849  17.503  0.00  0.00    +0.000 A 
ATOM     27  C   UNL     1      10.211  11.288  18.634  0.00  0.00    +0.000 A 
ATOM     28  H   UNL     1       9.969  11.113  21.823  0.00  0.00    +0.000 HD
ENDBRANCH  18  19
ENDBRANCH  17  18
ENDBRANCH   3  17
TORSDOF 8
ENDMDL
MODEL 6
REMARK VINA RESULT:      -7.5      5.102      7.914
REMARK  Name = 
REMARK  8 active torsions:
REMARK  status: ('A' for Active; 'I' for Inactive)
REMARK    1  A    between atoms: C_2  and  C_3
REMARK    2  A    between atoms: C_3  and  O_4
REMARK    3  A    between atoms: O_4  and  C_5
REMARK    4  A    between atoms: C_5  and  C_7
REMARK    5  A    between atoms: C_10  and  O_11
REMARK    6  A    between atoms: N_14  and  C_15
REMARK    7  A    between atoms: C_15  and  C_16
REMARK    8  A    between atoms: C_16  and  C_17
REMARK                            x       y       z     vdW  Elec       q    Type
REMARK                         _______ _______ _______ _____ _____    ______ ____
ROOT
ATOM      1  O   UNL     1       0.709   4.420  20.175  0.00  0.00    +0.000 OA
ATOM      2  C   UNL     1       1.905   4.442  20.451  0.00  0.00    +0.000 C 
ATOM      3  N   UNL     1       2.649   5.602  20.512  0.00  0.00    +0.000 N 
ATOM      4  H   UNL     1       3.657   5.497  20.563  0.00  0.00    +0.000 HD
ENDROOT
BRANCH   2   5
ATOM      5  C   UNL     1       2.686   3.194  20.858  0.00  0.00    +0.000 C 
BRANCH   5   6
ATOM      6  O   UNL     1       3.887   3.028  20.094  0.00  0.00    +0.000 OA
BRANCH   6   7
ATOM      7  C   UNL     1       3.683   2.879  18.760  0.00  0.00    +0.000 C 
ATOM      8  O   UNL     1       2.881   2.130  18.234  0.00  0.00    +0.000 OA
BRANCH   7   9
ATOM      9  C   UNL     1       4.620   3.740  17.997  0.00  0.00    +0.000 A 
ATOM     10  C   UNL     1       4.513   3.907  16.612  0.00  0.00    +0.000 A 
ATOM     11  C   UNL     1       5.425   4.723  15.936  0.00  0.00    +0.000 A 
ATOM     12  C   UNL     1       6.450   5.344  16.640  0.00  0.00    +0.000 A 
ATOM     13  C   UNL     1       6.565   5.187  18.015  0.00  0.00    +0.000 A 
ATOM     14  C   UNL     1       5.650   4.382  18.696  0.00  0.00    +0.000 A 
BRANCH  12  15
ATOM     15  O   UNL     1       7.377   6.114  16.004  0.00  0.00    +0.000 OA
ATOM     16  H   UNL     1       7.480   6.944  16.496  0.00  0.00    +0.000 HD
ENDBRANCH  12  15
ENDBRANCH   7   9
ENDBRANCH   6   7
ENDBRANCH   5   6
ENDBRANCH   2   5
BRANCH   3  17
ATOM     17  C   UNL     1       2.111   6.862  20.038  0.00  0.00    +0.000 C 
BRANCH  17  18
ATOM     18  C   UNL     1       1.480   7.690  21.159  0.00  0.00    +0.000 C 
BRANCH  18  19
ATOM     19  C   UNL     1       0.860   8.968  20.669  0.00  0.00    +0.000 A 
ATOM     20  C   UNL     1       0.985   9.503  19.403  0.00  0.00    +0.000 A 
ATOM     21  N   UNL     1       0.283  10.676  19.355  0.00  0.00    +0.000 N 
ATOM     22  C   UNL     1      -0.326  10.912  20.565  0.00  0.00    +0.000 A 
ATOM     23  C   UNL     1      -1.154  11.969  20.963  0.00  0.00    +0.000 A 
ATOM     24  C   UNL     1      -1.633  11.957  22.276  0.00  0.00    +0.000 A 
ATOM     25  C   UNL     1      -1.279  10.938  23.158  0.00  0.00    +0.000 A 
ATOM     26  C   UNL     1      -0.456   9.887  22.740  0.00  0.00    +0.000 A 
ATOM     27  C   UNL     1       0.028   9.865  21.415  0.00  0.00    +0.000 A 
ATOM     28  H   UNL     1       0.209  11.280  18.548  0.00  0.00    +0.000 HD
ENDBRANCH  18  19
ENDBRANCH  17  18
ENDBRANCH   3  17
TORSDOF 8
ENDMDL
MODEL 7
REMARK VINA RESULT:      -7.5      5.051      7.506
REMARK  Name = 
REMARK  8 active torsions:
REMARK  status: ('A' for Active; 'I' for Inactive)
REMARK    1  A    between atoms: C_2  and  C_3
REMARK    2  A    between atoms: C_3  and  O_4
REMARK    3  A    between atoms: O_4  and  C_5
REMARK    4  A    between atoms: C_5  and  C_7
REMARK    5  A    between atoms: C_10  and  O_11
REMARK    6  A    between atoms: N_14  and  C_15
REMARK    7  A    between atoms: C_15  and  C_16
REMARK    8  A    between atoms: C_16  and  C_17
REMARK                            x       y       z     vdW  Elec       q    Type
REMARK                         _______ _______ _______ _____ _____    ______ ____
ROOT
ATOM      1  O   UNL     1       1.114   4.117  18.370  0.00  0.00    +0.000 OA
ATOM      2  C   UNL     1       1.609   3.695  19.411  0.00  0.00    +0.000 C 
ATOM      3  N   UNL     1       1.731   4.454  20.557  0.00  0.00    +0.000 N 
ATOM      4  H   UNL     1       2.317   4.077  21.295  0.00  0.00    +0.000 HD
ENDROOT
BRANCH   2   5
ATOM      5  C   UNL     1       2.056   2.245  19.590  0.00  0.00    +0.000 C 
BRANCH   5   6
ATOM      6  O   UNL     1       3.241   1.942  18.843  0.00  0.00    +0.000 OA
BRANCH   6   7
ATOM      7  C   UNL     1       4.374   2.489  19.352  0.00  0.00    +0.000 C 
ATOM      8  O   UNL     1       4.959   2.130  20.357  0.00  0.00    +0.000 OA
BRANCH   7   9
ATOM      9  C   UNL     1       4.804   3.644  18.526  0.00  0.00    +0.000 A 
ATOM     10  C   UNL     1       5.512   4.722  19.069  0.00  0.00    +0.000 A 
ATOM     11  C   UNL     1       5.889   5.791  18.251  0.00  0.00    +0.000 A 
ATOM     12  C   UNL     1       5.536   5.790  16.907  0.00  0.00    +0.000 A 
ATOM     13  C   UNL     1       4.836   4.724  16.356  0.00  0.00    +0.000 A 
ATOM     14  C   UNL     1       4.467   3.649  17.166  0.00  0.00    +0.000 A 
BRANCH  12  15
ATOM     15  O   UNL     1       5.854   6.835  16.093  0.00  0.00    +0.000 OA
ATOM     16  H   UNL     1       6.178   6.483  15.248  0.00  0.00    +0.000 HD
ENDBRANCH  12  15
ENDBRANCH   7   9
ENDBRANCH   6   7
ENDBRANCH   5   6
ENDBRANCH   2   5
BRANCH   3  17
ATOM     17  C   UNL     1       1.478   5.882  20.539  0.00  0.00    +0.000 C 
BRANCH  17  18
ATOM     18  C   UNL     1       2.572   6.663  19.808  0.00  0.00    +0.000 C 
BRANCH  18  19
ATOM     19  C   UNL     1       2.066   7.924  19.168  0.00  0.00    +0.000 A 
ATOM     20  C   UNL     1       2.300   8.331  17.870  0.00  0.00    +0.000 A 
ATOM     21  N   UNL     1       1.680   9.534  17.672  0.00  0.00    +0.000 N 
ATOM     22  C   UNL     1       1.018   9.918  18.815  0.00  0.00    +0.000 A 
ATOM     23  C   UNL     1       0.239  11.054  19.063  0.00  0.00    +0.000 A 
ATOM     24  C   UNL     1      -0.316  11.193  20.339  0.00  0.00    +0.000 A 
ATOM     25  C   UNL     1      -0.082  10.241  21.329  0.00  0.00    +0.000 A 
ATOM     26  C   UNL     1       0.694   9.108  21.060  0.00  0.00    +0.000 A 
ATOM     27  C   UNL     1       1.253   8.935  19.775  0.00  0.00    +0.000 A 
ATOM     28  H   UNL     1       1.693  10.064  16.812  0.00  0.00    +0.000 HD
ENDBRANCH  18  19
ENDBRANCH  17  18
ENDBRANCH   3  17
TORSDOF 8
ENDMDL
MODEL 8
REMARK VINA RESULT:      -7.5      5.299      7.651
REMARK  Name = 
REMARK  8 active torsions:
REMARK  status: ('A' for Active; 'I' for Inactive)
REMARK    1  A    between atoms: C_2  and  C_3
REMARK    2  A    between atoms: C_3  and  O_4
REMARK    3  A    between atoms: O_4  and  C_5
REMARK    4  A    between atoms: C_5  and  C_7
REMARK    5  A    between atoms: C_10  and  O_11
REMARK    6  A    between atoms: N_14  and  C_15
REMARK    7  A    between atoms: C_15  and  C_16
REMARK    8  A    between atoms: C_16  and  C_17
REMARK                            x       y       z     vdW  Elec       q    Type
REMARK                         _______ _______ _______ _____ _____    ______ ____
ROOT
ATOM      1  O   UNL     1       3.716   7.308  17.584  0.00  0.00    +0.000 OA
ATOM      2  C   UNL     1       3.110   7.102  18.631  0.00  0.00    +0.000 C 
ATOM      3  N   UNL     1       2.127   7.940  19.117  0.00  0.00    +0.000 N 
ATOM      4  H   UNL     1       1.823   7.783  20.072  0.00  0.00    +0.000 HD
ENDROOT
BRANCH   2   5
ATOM      5  C   UNL     1       3.303   5.840  19.469  0.00  0.00    +0.000 C 
BRANCH   5   6
ATOM      6  O   UNL     1       3.053   4.643  18.720  0.00  0.00    +0.000 OA
BRANCH   6   7
ATOM      7  C   UNL     1       4.086   3.763  18.714  0.00  0.00    +0.000 C 
ATOM      8  O   UNL     1       4.217   2.801  19.447  0.00  0.00    +0.000 OA
BRANCH   7   9
ATOM      9  C   UNL     1       5.092   4.158  17.697  0.00  0.00    +0.000 A 
ATOM     10  C   UNL     1       6.383   4.568  18.050  0.00  0.00    +0.000 A 
ATOM     11  C   UNL     1       7.293   4.936  17.056  0.00  0.00    +0.000 A 
ATOM     12  C   UNL     1       6.903   4.919  15.722  0.00  0.00    +0.000 A 
ATOM     13  C   UNL     1       5.626   4.511  15.359  0.00  0.00    +0.000 A 
ATOM     14  C   UNL     1       4.717   4.132  16.348  0.00  0.00    +0.000 A 
BRANCH  12  15
ATOM     15  O   UNL     1       7.755   5.310  14.732  0.00  0.00    +0.000 OA
ATOM     16  H   UNL     1       7.893   4.562  14.128  0.00  0.00    +0.000 HD
ENDBRANCH  12  15
ENDBRANCH   7   9
ENDBRANCH   6   7
ENDBRANCH   5   6
ENDBRANCH   2   5
BRANCH   3  17
ATOM     17  C   UNL     1       1.895   9.244  18.526  0.00  0.00    +0.000 C 
BRANCH  17  18
ATOM     18  C   UNL     1       0.636   9.280  17.658  0.00  0.00    +0.000 C 
BRANCH  18  19
ATOM     19  C   UNL     1      -0.464  10.113  18.250  0.00  0.00    +0.000 A 
ATOM     20  C   UNL     1      -0.438  10.746  19.477  0.00  0.00    +0.000 A 
ATOM     21  N   UNL     1      -1.630  11.393  19.658  0.00  0.00    +0.000 N 
ATOM     22  C   UNL     1      -2.435  11.216  18.557  0.00  0.00    +0.000 A 
ATOM     23  C   UNL     1      -3.719  11.710  18.295  0.00  0.00    +0.000 A 
ATOM     24  C   UNL     1      -4.312  11.359  17.079  0.00  0.00    +0.000 A 
ATOM     25  C   UNL     1      -3.651  10.532  16.172  0.00  0.00    +0.000 A 
ATOM     26  C   UNL     1      -2.365  10.055  16.449  0.00  0.00    +0.000 A 
ATOM     27  C   UNL     1      -1.737  10.407  17.662  0.00  0.00    +0.000 A 
ATOM     28  H   UNL     1      -1.884  11.932  20.474  0.00  0.00    +0.000 HD
ENDBRANCH  18  19
ENDBRANCH  17  18
ENDBRANCH   3  17
TORSDOF 8
ENDMDL
MODEL 9
REMARK VINA RESULT:      -7.4      5.136      7.570
REMARK  Name = 
REMARK  8 active torsions:
REMARK  status: ('A' for Active; 'I' for Inactive)
REMARK    1  A    between atoms: C_2  and  C_3
REMARK    2  A    between atoms: C_3  and  O_4
REMARK    3  A    between atoms: O_4  and  C_5
REMARK    4  A    between atoms: C_5  and  C_7
REMARK    5  A    between atoms: C_10  and  O_11
REMARK    6  A    between atoms: N_14  and  C_15
REMARK    7  A    between atoms: C_15  and  C_16
REMARK    8  A    between atoms: C_16  and  C_17
REMARK                            x       y       z     vdW  Elec       q    Type
REMARK                         _______ _______ _______ _____ _____    ______ ____
ROOT
ATOM      1  O   UNL     1       1.928   7.198  20.602  0.00  0.00    +0.000 OA
ATOM      2  C   UNL     1       2.391   6.532  19.681  0.00  0.00    +0.000 C 
ATOM      3  N   UNL     1       2.868   7.084  18.510  0.00  0.00    +0.000 N 
ATOM      4  H   UNL     1       3.055   6.444  17.745  0.00  0.00    +0.000 HD
ENDROOT
BRANCH   2   5
ATOM      5  C   UNL     1       2.586   5.020  19.766  0.00  0.00    +0.000 C 
BRANCH   5   6
ATOM      6  O   UNL     1       2.728   4.413  18.475  0.00  0.00    +0.000 OA
BRANCH   6   7
ATOM      7  C   UNL     1       3.750   3.524  18.387  0.00  0.00    +0.000 C 
ATOM      8  O   UNL     1       3.814   2.443  18.941  0.00  0.00    +0.000 OA
BRANCH   7   9
ATOM      9  C   UNL     1       4.835   4.071  17.535  0.00  0.00    +0.000 A 
ATOM     10  C   UNL     1       6.015   4.590  18.079  0.00  0.00    +0.000 A 
ATOM     11  C   UNL     1       7.006   5.101  17.236  0.00  0.00    +0.000 A 
ATOM     12  C   UNL     1       6.803   5.113  15.861  0.00  0.00    +0.000 A 
ATOM     13  C   UNL     1       5.637   4.597  15.309  0.00  0.00    +0.000 A 
ATOM     14  C   UNL     1       4.650   4.077  16.147  0.00  0.00    +0.000 A 
BRANCH  12  15
ATOM     15  O   UNL     1       7.733   5.639  15.015  0.00  0.00    +0.000 OA
ATOM     16  H   UNL     1       7.668   6.607  15.046  0.00  0.00    +0.000 HD
ENDBRANCH  12  15
ENDBRANCH   7   9
ENDBRANCH   6   7
ENDBRANCH   5   6
ENDBRANCH   2   5
BRANCH   3  17
ATOM     17  C   UNL     1       2.652   8.484  18.199  0.00  0.00    +0.000 C 
BRANCH  17  18
ATOM     18  C   UNL     1       1.275   8.743  17.585  0.00  0.00    +0.000 C 
BRANCH  18  19
ATOM     19  C   UNL     1       0.481   9.775  18.334  0.00  0.00    +0.000 A 
ATOM     20  C   UNL     1       0.913  10.502  19.425  0.00  0.00    +0.000 A 
ATOM     21  N   UNL     1      -0.101  11.328  19.826  0.00  0.00    +0.000 N 
ATOM     22  C   UNL     1      -1.189  11.176  19.000  0.00  0.00    +0.000 A 
ATOM     23  C   UNL     1      -2.429  11.826  19.018  0.00  0.00    +0.000 A 
ATOM     24  C   UNL     1      -3.366  11.461  18.046  0.00  0.00    +0.000 A 
ATOM     25  C   UNL     1      -3.077  10.472  17.109  0.00  0.00    +0.000 A 
ATOM     26  C   UNL     1      -1.830   9.838  17.102  0.00  0.00    +0.000 A 
ATOM     27  C   UNL     1      -0.860  10.199  18.061  0.00  0.00    +0.000 A 
ATOM     28  H   UNL     1      -0.060  11.967  20.608  0.00  0.00    +0.000 HD
ENDBRANCH  18  19
ENDBRANCH  17  18
ENDBRANCH   3  17
TORSDOF 8
ENDMDL
