MODEL 1
REMARK VINA RESULT:      -6.2      0.000      0.000
REMARK  Name = 
REMARK  18 active torsions:
REMARK  status: ('A' for Active; 'I' for Inactive)
REMARK    1  A    between atoms: C_1  and  C_2
REMARK    2  A    between atoms: C_2  and  C_3
REMARK    3  A    between atoms: C_3  and  C_4
REMARK    4  A    between atoms: C_4  and  C_5
REMARK    5  A    between atoms: C_5  and  C_6
REMARK    6  A    between atoms: C_6  and  C_7
REMARK    7  A    between atoms: C_7  and  C_8
REMARK    8  A    between atoms: C_8  and  C_9
REMARK    9  A    between atoms: C_9  and  C_10
REMARK   10  A    between atoms: C_10  and  C_11
REMARK   11  A    between atoms: C_11  and  C_12
REMARK   12  A    between atoms: C_12  and  C_13
REMARK   13  A    between atoms: C_13  and  C_14
REMARK   14  A    between atoms: C_14  and  C_15
REMARK   15  A    between atoms: C_15  and  C_16
REMARK   16  A    between atoms: C_16  and  N_17
REMARK   17  A    between atoms: N_17  and  C_18
REMARK   18  A    between atoms: C_21  and  C_22
REMARK                            x       y       z     vdW  Elec       q    Type
REMARK                         _______ _______ _______ _____ _____    ______ ____
ROOT
ATOM      1  C   UNL     1       2.005   9.188  17.988  0.00  0.00    +0.000 C 
ENDROOT
BRANCH   1   2
ATOM      2  C   UNL     1       1.026   9.609  19.079  0.00  0.00    +0.000 C 
BRANCH   2   3
ATOM      3  N   UNL     1       0.408  10.872  18.722  0.00  0.00    +0.000 N 
ATOM      4  H   UNL     1       0.873  11.729  18.984  0.00  0.00    +0.000 HD
BRANCH   3   5
ATOM      5  C   UNL     1      -0.942  10.970  18.431  0.00  0.00    +0.000 A 
ATOM      6  C   UNL     1      -1.478  10.182  17.406  0.00  0.00    +0.000 A 
ATOM      7  C   UNL     1      -2.831  10.244  17.083  0.00  0.00    +0.000 A 
ATOM      8  C   UNL     1      -3.702  11.053  17.836  0.00  0.00    +0.000 A 
ATOM      9  C   UNL     1      -3.170  11.857  18.831  0.00  0.00    +0.000 A 
ATOM     10  C   UNL     1      -1.809  11.832  19.124  0.00  0.00    +0.000 A 
BRANCH   8  11
ATOM     11  C   UNL     1      -5.177  11.027  17.561  0.00  0.00    +0.000 C 
ATOM     12  O   UNL     1      -5.869  10.559  18.723  0.00  0.00    +0.000 OA
ATOM     13  C   UNL     1      -7.081  11.304  18.724  0.00  0.00    +0.000 C 
ATOM     14  C   UNL     1      -6.660  12.640  18.177  0.00  0.00    +0.000 C 
ATOM     15  O   UNL     1      -5.646  12.340  17.220  0.00  0.00    +0.000 OA
ENDBRANCH   8  11
ENDBRANCH   3   5
ENDBRANCH   2   3
ENDBRANCH   1   2
BRANCH   1  16
ATOM     16  C   UNL     1       2.038   7.667  17.885  0.00  0.00    +0.000 C 
BRANCH  16  17
ATOM     17  C   UNL     1       2.895   7.071  18.988  0.00  0.00    +0.000 C 
BRANCH  17  18
ATOM     18  C   UNL     1       2.023   6.650  20.159  0.00  0.00    +0.000 C 
BRANCH  18  19
ATOM     19  C   UNL     1       2.243   5.179  20.470  0.00  0.00    +0.000 C 
BRANCH  19  20
ATOM     20  C   UNL     1       0.914   4.448  20.498  0.00  0.00    +0.000 C 
BRANCH  20  21
ATOM     21  C   UNL     1       1.143   2.962  20.710  0.00  0.00    +0.000 C 
BRANCH  21  22
ATOM     22  C   UNL     1       2.465   2.548  20.087  0.00  0.00    +0.000 C 
BRANCH  22  23
ATOM     23  C   UNL     1       2.236   2.047  18.672  0.00  0.00    +0.000 C 
BRANCH  23  24
ATOM     24  C   UNL     1       3.553   2.003  17.916  0.00  0.00    +0.000 C 
BRANCH  24  25
ATOM     25  C   UNL     1       4.276   3.333  18.052  0.00  0.00    +0.000 C 
BRANCH  25  26
ATOM     26  C   UNL     1       3.870   4.269  16.924  0.00  0.00    +0.000 C 
BRANCH  26  27
ATOM     27  C   UNL     1       5.102   4.784  16.195  0.00  0.00    +0.000 C 
BRANCH  27  29
ATOM     28  C   UNL     1       6.161   6.832  17.152  0.00  0.00    +0.000 C 
ATOM     29  C   UNL     1       5.121   6.306  16.182  0.00  0.00    +0.000 C 
ENDBRANCH  27  29
ENDBRANCH  26  27
ENDBRANCH  25  26
ENDBRANCH  24  25
ENDBRANCH  23  24
ENDBRANCH  22  23
ENDBRANCH  21  22
ENDBRANCH  20  21
ENDBRANCH  19  20
ENDBRANCH  18  19
ENDBRANCH  17  18
ENDBRANCH  16  17
ENDBRANCH   1  16
TORSDOF 17
ENDMDL
MODEL 2
REMARK VINA RESULT:      -6.1      4.308      9.511
REMARK  Name = 
REMARK  18 active torsions:
REMARK  status: ('A' for Active; 'I' for Inactive)
REMARK    1  A    between atoms: C_1  and  C_2
REMARK    2  A    between atoms: C_2  and  C_3
REMARK    3  A    between atoms: C_3  and  C_4
REMARK    4  A    between atoms: C_4  and  C_5
REMARK    5  A    between atoms: C_5  and  C_6
REMARK    6  A    between atoms: C_6  and  C_7
REMARK    7  A    between atoms: C_7  and  C_8
REMARK    8  A    between atoms: C_8  and  C_9
REMARK    9  A    between atoms: C_9  and  C_10
REMARK   10  A    between atoms: C_10  and  C_11
REMARK   11  A    between atoms: C_11  and  C_12
REMARK   12  A    between atoms: C_12  and  C_13
REMARK   13  A    between atoms: C_13  and  C_14
REMARK   14  A    between atoms: C_14  and  C_15
REMARK   15  A    between atoms: C_15  and  C_16
REMARK   16  A    between atoms: C_16  and  N_17
REMARK   17  A    between atoms: N_17  and  C_18
REMARK   18  A    between atoms: C_21  and  C_22
REMARK                            x       y       z     vdW  Elec       q    Type
REMARK                         _______ _______ _______ _____ _____    ______ ____
ROOT
ATOM      1  C   UNL     1       1.591   2.620  21.455  0.00  0.00    +0.000 C 
ENDROOT
BRANCH   1   2
ATOM      2  C   UNL     1       0.912   2.439  20.101  0.00  0.00    +0.000 C 
BRANCH   2   3
ATOM      3  N   UNL     1       1.828   1.801  19.174  0.00  0.00    +0.000 N 
ATOM      4  H   UNL     1       2.044   0.823  19.305  0.00  0.00    +0.000 HD
BRANCH   3   5
ATOM      5  C   UNL     1       2.721   2.530  18.407  0.00  0.00    +0.000 A 
ATOM      6  C   UNL     1       2.247   3.235  17.296  0.00  0.00    +0.000 A 
ATOM      7  C   UNL     1       3.107   3.986  16.500  0.00  0.00    +0.000 A 
ATOM      8  C   UNL     1       4.466   4.107  16.844  0.00  0.00    +0.000 A 
ATOM      9  C   UNL     1       4.944   3.386  17.926  0.00  0.00    +0.000 A 
ATOM     10  C   UNL     1       4.094   2.596  18.695  0.00  0.00    +0.000 A 
BRANCH   8  11
ATOM     11  C   UNL     1       5.364   5.011  16.052  0.00  0.00    +0.000 C 
ATOM     12  O   UNL     1       6.721   4.809  16.459  0.00  0.00    +0.000 OA
ATOM     13  C   UNL     1       7.467   4.970  15.258  0.00  0.00    +0.000 C 
ATOM     14  C   UNL     1       6.553   4.401  14.209  0.00  0.00    +0.000 C 
ATOM     15  O   UNL     1       5.239   4.738  14.649  0.00  0.00    +0.000 OA
ENDBRANCH   8  11
ENDBRANCH   3   5
ENDBRANCH   2   3
ENDBRANCH   1   2
BRANCH   1  16
ATOM     16  C   UNL     1       2.238   3.998  21.526  0.00  0.00    +0.000 C 
BRANCH  16  17
ATOM     17  C   UNL     1       1.570   4.956  20.554  0.00  0.00    +0.000 C 
BRANCH  17  18
ATOM     18  C   UNL     1       1.589   6.369  21.116  0.00  0.00    +0.000 C 
BRANCH  18  19
ATOM     19  C   UNL     1       1.822   7.370  19.997  0.00  0.00    +0.000 C 
BRANCH  19  20
ATOM     20  C   UNL     1       2.770   6.788  18.966  0.00  0.00    +0.000 C 
BRANCH  20  21
ATOM     21  C   UNL     1       2.960   7.768  17.823  0.00  0.00    +0.000 C 
BRANCH  21  22
ATOM     22  C   UNL     1       1.733   8.652  17.690  0.00  0.00    +0.000 C 
BRANCH  22  23
ATOM     23  C   UNL     1       2.070  10.073  18.107  0.00  0.00    +0.000 C 
BRANCH  23  24
ATOM     24  C   UNL     1       0.804  10.815  18.501  0.00  0.00    +0.000 C 
BRANCH  24  25
ATOM     25  C   UNL     1      -0.413   9.939  18.249  0.00  0.00    +0.000 C 
BRANCH  25  26
ATOM     26  C   UNL     1      -1.626  10.803  17.943  0.00  0.00    +0.000 C 
BRANCH  26  27
ATOM     27  C   UNL     1      -2.837   9.929  17.654  0.00  0.00    +0.000 C 
BRANCH  27  29
ATOM     28  C   UNL     1      -3.020  10.933  15.375  0.00  0.00    +0.000 C 
ATOM     29  C   UNL     1      -2.947   9.639  16.164  0.00  0.00    +0.000 C 
ENDBRANCH  27  29
ENDBRANCH  26  27
ENDBRANCH  25  26
ENDBRANCH  24  25
ENDBRANCH  23  24
ENDBRANCH  22  23
ENDBRANCH  21  22
ENDBRANCH  20  21
ENDBRANCH  19  20
ENDBRANCH  18  19
ENDBRANCH  17  18
ENDBRANCH  16  17
ENDBRANCH   1  16
TORSDOF 17
ENDMDL
MODEL 3
REMARK VINA RESULT:      -6.1      1.954      2.918
REMARK  Name = 
REMARK  18 active torsions:
REMARK  status: ('A' for Active; 'I' for Inactive)
REMARK    1  A    between atoms: C_1  and  C_2
REMARK    2  A    between atoms: C_2  and  C_3
REMARK    3  A    between atoms: C_3  and  C_4
REMARK    4  A    between atoms: C_4  and  C_5
REMARK    5  A    between atoms: C_5  and  C_6
REMARK    6  A    between atoms: C_6  and  C_7
REMARK    7  A    between atoms: C_7  and  C_8
REMARK    8  A    between atoms: C_8  and  C_9
REMARK    9  A    between atoms: C_9  and  C_10
REMARK   10  A    between atoms: C_10  and  C_11
REMARK   11  A    between atoms: C_11  and  C_12
REMARK   12  A    between atoms: C_12  and  C_13
REMARK   13  A    between atoms: C_13  and  C_14
REMARK   14  A    between atoms: C_14  and  C_15
REMARK   15  A    between atoms: C_15  and  C_16
REMARK   16  A    between atoms: C_16  and  N_17
REMARK   17  A    between atoms: N_17  and  C_18
REMARK   18  A    between atoms: C_21  and  C_22
REMARK                            x       y       z     vdW  Elec       q    Type
REMARK                         _______ _______ _______ _____ _____    ______ ____
ROOT
ATOM      1  C   UNL     1       2.872   7.441  18.376  0.00  0.00    +0.000 C 
ENDROOT
BRANCH   1   2
ATOM      2  C   UNL     1       2.474   8.852  17.955  0.00  0.00    +0.000 C 
BRANCH   2   3
ATOM      3  N   UNL     1       1.049   8.900  17.688  0.00  0.00    +0.000 N 
ATOM      4  H   UNL     1       0.707   8.516  16.818  0.00  0.00    +0.000 HD
BRANCH   3   5
ATOM      5  C   UNL     1       0.211   9.791  18.336  0.00  0.00    +0.000 A 
ATOM      6  C   UNL     1       0.580  10.282  19.593  0.00  0.00    +0.000 A 
ATOM      7  C   UNL     1      -0.228  11.184  20.280  0.00  0.00    +0.000 A 
ATOM      8  C   UNL     1      -1.404  11.676  19.684  0.00  0.00    +0.000 A 
ATOM      9  C   UNL     1      -1.788  11.169  18.453  0.00  0.00    +0.000 A 
ATOM     10  C   UNL     1      -1.005  10.230  17.787  0.00  0.00    +0.000 A 
BRANCH   8  11
ATOM     11  C   UNL     1      -2.210  12.736  20.375  0.00  0.00    +0.000 C 
ATOM     12  O   UNL     1      -3.604  12.456  20.212  0.00  0.00    +0.000 OA
ATOM     13  C   UNL     1      -4.185  12.880  21.440  0.00  0.00    +0.000 C 
ATOM     14  C   UNL     1      -3.124  12.550  22.452  0.00  0.00    +0.000 C 
ATOM     15  O   UNL     1      -1.890  12.776  21.774  0.00  0.00    +0.000 OA
ENDBRANCH   8  11
ENDBRANCH   3   5
ENDBRANCH   2   3
ENDBRANCH   1   2
BRANCH   1  16
ATOM     16  C   UNL     1       2.210   7.095  19.705  0.00  0.00    +0.000 C 
BRANCH  16  17
ATOM     17  C   UNL     1       2.602   5.697  20.154  0.00  0.00    +0.000 C 
BRANCH  17  18
ATOM     18  C   UNL     1       1.359   4.861  20.411  0.00  0.00    +0.000 C 
BRANCH  18  19
ATOM     19  C   UNL     1       1.723   3.618  21.205  0.00  0.00    +0.000 C 
BRANCH  19  20
ATOM     20  C   UNL     1       1.870   2.430  20.272  0.00  0.00    +0.000 C 
BRANCH  20  21
ATOM     21  C   UNL     1       1.231   2.741  18.931  0.00  0.00    +0.000 C 
BRANCH  21  22
ATOM     22  C   UNL     1       2.181   2.369  17.806  0.00  0.00    +0.000 C 
BRANCH  22  23
ATOM     23  C   UNL     1       2.860   3.616  17.268  0.00  0.00    +0.000 C 
BRANCH  23  24
ATOM     24  C   UNL     1       4.356   3.379  17.138  0.00  0.00    +0.000 C 
BRANCH  24  25
ATOM     25  C   UNL     1       5.120   4.615  17.584  0.00  0.00    +0.000 C 
BRANCH  25  26
ATOM     26  C   UNL     1       6.551   4.559  17.075  0.00  0.00    +0.000 C 
BRANCH  26  27
ATOM     27  C   UNL     1       7.041   5.955  16.721  0.00  0.00    +0.000 C 
BRANCH  27  29
ATOM     28  C   UNL     1       7.815   8.148  17.630  0.00  0.00    +0.000 C 
ATOM     29  C   UNL     1       7.435   6.721  17.976  0.00  0.00    +0.000 C 
ENDBRANCH  27  29
ENDBRANCH  26  27
ENDBRANCH  25  26
ENDBRANCH  24  25
ENDBRANCH  23  24
ENDBRANCH  22  23
ENDBRANCH  21  22
ENDBRANCH  20  21
ENDBRANCH  19  20
ENDBRANCH  18  19
ENDBRANCH  17  18
ENDBRANCH  16  17
ENDBRANCH   1  16
TORSDOF 17
ENDMDL
MODEL 4
REMARK VINA RESULT:      -6.1      4.423      9.815
REMARK  Name = 
REMARK  18 active torsions:
REMARK  status: ('A' for Active; 'I' for Inactive)
REMARK    1  A    between atoms: C_1  and  C_2
REMARK    2  A    between atoms: C_2  and  C_3
REMARK    3  A    between atoms: C_3  and  C_4
REMARK    4  A    between atoms: C_4  and  C_5
REMARK    5  A    between atoms: C_5  and  C_6
REMARK    6  A    between atoms: C_6  and  C_7
REMARK    7  A    between atoms: C_7  and  C_8
REMARK    8  A    between atoms: C_8  and  C_9
REMARK    9  A    between atoms: C_9  and  C_10
REMARK   10  A    between atoms: C_10  and  C_11
REMARK   11  A    between atoms: C_11  and  C_12
REMARK   12  A    between atoms: C_12  and  C_13
REMARK   13  A    between atoms: C_13  and  C_14
REMARK   14  A    between atoms: C_14  and  C_15
REMARK   15  A    between atoms: C_15  and  C_16
REMARK   16  A    between atoms: C_16  and  N_17
REMARK   17  A    between atoms: N_17  and  C_18
REMARK   18  A    between atoms: C_21  and  C_22
REMARK                            x       y       z     vdW  Elec       q    Type
REMARK                         _______ _______ _______ _____ _____    ______ ____
ROOT
ATOM      1  C   UNL     1       1.194   3.176  20.370  0.00  0.00    +0.000 C 
ENDROOT
BRANCH   1   2
ATOM      2  C   UNL     1       0.757   2.236  19.251  0.00  0.00    +0.000 C 
BRANCH   2   3
ATOM      3  N   UNL     1       1.925   1.713  18.566  0.00  0.00    +0.000 N 
ATOM      4  H   UNL     1       2.095   0.717  18.592  0.00  0.00    +0.000 HD
BRANCH   3   5
ATOM      5  C   UNL     1       3.011   2.513  18.254  0.00  0.00    +0.000 A 
ATOM      6  C   UNL     1       4.119   2.523  19.109  0.00  0.00    +0.000 A 
ATOM      7  C   UNL     1       5.235   3.307  18.832  0.00  0.00    +0.000 A 
ATOM      8  C   UNL     1       5.298   4.052  17.640  0.00  0.00    +0.000 A 
ATOM      9  C   UNL     1       4.192   4.068  16.806  0.00  0.00    +0.000 A 
ATOM     10  C   UNL     1       3.055   3.322  17.106  0.00  0.00    +0.000 A 
BRANCH   8  11
ATOM     11  C   UNL     1       6.549   4.802  17.288  0.00  0.00    +0.000 C 
ATOM     12  O   UNL     1       6.229   6.176  17.048  0.00  0.00    +0.000 OA
ATOM     13  C   UNL     1       7.358   6.884  17.548  0.00  0.00    +0.000 C 
ATOM     14  C   UNL     1       7.781   6.059  18.731  0.00  0.00    +0.000 C 
ATOM     15  O   UNL     1       7.504   4.711  18.355  0.00  0.00    +0.000 OA
ENDBRANCH   8  11
ENDBRANCH   3   5
ENDBRANCH   2   3
ENDBRANCH   1   2
BRANCH   1  16
ATOM     16  C   UNL     1       0.631   4.570  20.119  0.00  0.00    +0.000 C 
BRANCH  16  17
ATOM     17  C   UNL     1       1.488   5.626  20.796  0.00  0.00    +0.000 C 
BRANCH  17  18
ATOM     18  C   UNL     1       2.924   5.527  20.307  0.00  0.00    +0.000 C 
BRANCH  18  19
ATOM     19  C   UNL     1       3.154   6.502  19.166  0.00  0.00    +0.000 C 
BRANCH  19  20
ATOM     20  C   UNL     1       2.164   7.650  19.254  0.00  0.00    +0.000 C 
BRANCH  20  21
ATOM     21  C   UNL     1       2.109   8.391  17.930  0.00  0.00    +0.000 C 
BRANCH  21  22
ATOM     22  C   UNL     1       1.062   9.488  17.994  0.00  0.00    +0.000 C 
BRANCH  22  23
ATOM     23  C   UNL     1       0.758   9.830  19.442  0.00  0.00    +0.000 C 
BRANCH  23  24
ATOM     24  C   UNL     1      -0.717  10.160  19.600  0.00  0.00    +0.000 C 
BRANCH  24  25
ATOM     25  C   UNL     1      -1.225  10.885  18.365  0.00  0.00    +0.000 C 
BRANCH  25  26
ATOM     26  C   UNL     1      -1.211  12.388  18.596  0.00  0.00    +0.000 C 
BRANCH  26  27
ATOM     27  C   UNL     1      -1.672  12.709  20.010  0.00  0.00    +0.000 C 
BRANCH  27  29
ATOM     28  C   UNL     1      -0.548  13.200  22.185  0.00  0.00    +0.000 C 
ATOM     29  C   UNL     1      -0.652  13.587  20.721  0.00  0.00    +0.000 C 
ENDBRANCH  27  29
ENDBRANCH  26  27
ENDBRANCH  25  26
ENDBRANCH  24  25
ENDBRANCH  23  24
ENDBRANCH  22  23
ENDBRANCH  21  22
ENDBRANCH  20  21
ENDBRANCH  19  20
ENDBRANCH  18  19
ENDBRANCH  17  18
ENDBRANCH  16  17
ENDBRANCH   1  16
TORSDOF 17
ENDMDL
MODEL 5
REMARK VINA RESULT:      -6.0      2.455      3.486
REMARK  Name = 
REMARK  18 active torsions:
REMARK  status: ('A' for Active; 'I' for Inactive)
REMARK    1  A    between atoms: C_1  and  C_2
REMARK    2  A    between atoms: C_2  and  C_3
REMARK    3  A    between atoms: C_3  and  C_4
REMARK    4  A    between atoms: C_4  and  C_5
REMARK    5  A    between atoms: C_5  and  C_6
REMARK    6  A    between atoms: C_6  and  C_7
REMARK    7  A    between atoms: C_7  and  C_8
REMARK    8  A    between atoms: C_8  and  C_9
REMARK    9  A    between atoms: C_9  and  C_10
REMARK   10  A    between atoms: C_10  and  C_11
REMARK   11  A    between atoms: C_11  and  C_12
REMARK   12  A    between atoms: C_12  and  C_13
REMARK   13  A    between atoms: C_13  and  C_14
REMARK   14  A    between atoms: C_14  and  C_15
REMARK   15  A    between atoms: C_15  and  C_16
REMARK   16  A    between atoms: C_16  and  N_17
REMARK   17  A    between atoms: N_17  and  C_18
REMARK   18  A    between atoms: C_21  and  C_22
REMARK                            x       y       z     vdW  Elec       q    Type
REMARK                         _______ _______ _______ _____ _____    ______ ____
ROOT
ATOM      1  C   UNL     1       2.019   7.391  18.339  0.00  0.00    +0.000 C 
ENDROOT
BRANCH   1   2
ATOM      2  C   UNL     1       2.413   8.811  17.947  0.00  0.00    +0.000 C 
BRANCH   2   3
ATOM      3  N   UNL     1       1.224   9.581  17.632  0.00  0.00    +0.000 N 
ATOM      4  H   UNL     1       1.068   9.859  16.673  0.00  0.00    +0.000 HD
BRANCH   3   5
ATOM      5  C   UNL     1       0.537  10.296  18.598  0.00  0.00    +0.000 A 
ATOM      6  C   UNL     1      -0.852  10.430  18.487  0.00  0.00    +0.000 A 
ATOM      7  C   UNL     1      -1.585  11.135  19.437  0.00  0.00    +0.000 A 
ATOM      8  C   UNL     1      -0.946  11.666  20.573  0.00  0.00    +0.000 A 
ATOM      9  C   UNL     1       0.432  11.561  20.670  0.00  0.00    +0.000 A 
ATOM     10  C   UNL     1       1.173  10.898  19.696  0.00  0.00    +0.000 A 
BRANCH   8  11
ATOM     11  C   UNL     1      -1.756  12.322  21.653  0.00  0.00    +0.000 C 
ATOM     12  O   UNL     1      -0.954  12.461  22.830  0.00  0.00    +0.000 OA
ATOM     13  C   UNL     1      -1.385  13.694  23.395  0.00  0.00    +0.000 C 
ATOM     14  C   UNL     1      -1.693  14.534  22.187  0.00  0.00    +0.000 C 
ATOM     15  O   UNL     1      -2.207  13.616  21.225  0.00  0.00    +0.000 OA
ENDBRANCH   8  11
ENDBRANCH   3   5
ENDBRANCH   2   3
ENDBRANCH   1   2
BRANCH   1  16
ATOM     16  C   UNL     1       2.654   7.033  19.678  0.00  0.00    +0.000 C 
BRANCH  16  17
ATOM     17  C   UNL     1       1.682   6.247  20.541  0.00  0.00    +0.000 C 
BRANCH  17  18
ATOM     18  C   UNL     1       2.164   4.815  20.703  0.00  0.00    +0.000 C 
BRANCH  18  19
ATOM     19  C   UNL     1       1.013   3.849  20.481  0.00  0.00    +0.000 C 
BRANCH  19  20
ATOM     20  C   UNL     1       1.526   2.558  19.872  0.00  0.00    +0.000 C 
BRANCH  20  21
ATOM     21  C   UNL     1       1.852   2.770  18.404  0.00  0.00    +0.000 C 
BRANCH  21  22
ATOM     22  C   UNL     1       3.087   1.972  18.027  0.00  0.00    +0.000 C 
BRANCH  22  23
ATOM     23  C   UNL     1       4.188   2.909  17.565  0.00  0.00    +0.000 C 
BRANCH  23  24
ATOM     24  C   UNL     1       3.616   4.290  17.290  0.00  0.00    +0.000 C 
BRANCH  24  25
ATOM     25  C   UNL     1       4.714   5.222  16.806  0.00  0.00    +0.000 C 
BRANCH  25  26
ATOM     26  C   UNL     1       5.975   4.431  16.499  0.00  0.00    +0.000 C 
BRANCH  26  27
ATOM     27  C   UNL     1       7.045   4.717  17.541  0.00  0.00    +0.000 C 
BRANCH  27  29
ATOM     28  C   UNL     1       7.544   7.163  17.470  0.00  0.00    +0.000 C 
ATOM     29  C   UNL     1       6.801   6.065  18.207  0.00  0.00    +0.000 C 
ENDBRANCH  27  29
ENDBRANCH  26  27
ENDBRANCH  25  26
ENDBRANCH  24  25
ENDBRANCH  23  24
ENDBRANCH  22  23
ENDBRANCH  21  22
ENDBRANCH  20  21
ENDBRANCH  19  20
ENDBRANCH  18  19
ENDBRANCH  17  18
ENDBRANCH  16  17
ENDBRANCH   1  16
TORSDOF 17
ENDMDL
MODEL 6
REMARK VINA RESULT:      -6.0      3.569      5.220
REMARK  Name = 
REMARK  18 active torsions:
REMARK  status: ('A' for Active; 'I' for Inactive)
REMARK    1  A    between atoms: C_1  and  C_2
REMARK    2  A    between atoms: C_2  and  C_3
REMARK    3  A    between atoms: C_3  and  C_4
REMARK    4  A    between atoms: C_4  and  C_5
REMARK    5  A    between atoms: C_5  and  C_6
REMARK    6  A    between atoms: C_6  and  C_7
REMARK    7  A    between atoms: C_7  and  C_8
REMARK    8  A    between atoms: C_8  and  C_9
REMARK    9  A    between atoms: C_9  and  C_10
REMARK   10  A    between atoms: C_10  and  C_11
REMARK   11  A    between atoms: C_11  and  C_12
REMARK   12  A    between atoms: C_12  and  C_13
REMARK   13  A    between atoms: C_13  and  C_14
REMARK   14  A    between atoms: C_14  and  C_15
REMARK   15  A    between atoms: C_15  and  C_16
REMARK   16  A    between atoms: C_16  and  N_17
REMARK   17  A    between atoms: N_17  and  C_18
REMARK   18  A    between atoms: C_21  and  C_22
REMARK                            x       y       z     vdW  Elec       q    Type
REMARK                         _______ _______ _______ _____ _____    ______ ____
ROOT
ATOM      1  C   UNL     1       2.450   4.482  21.064  0.00  0.00    +0.000 C 
ENDROOT
BRANCH   1   2
ATOM      2  C   UNL     1       1.483   5.626  20.778  0.00  0.00    +0.000 C 
BRANCH   2   3
ATOM      3  N   UNL     1       2.199   6.734  20.173  0.00  0.00    +0.000 N 
ATOM      4  H   UNL     1       3.192   6.636  20.011  0.00  0.00    +0.000 HD
BRANCH   3   5
ATOM      5  C   UNL     1       1.705   8.027  20.197  0.00  0.00    +0.000 A 
ATOM      6  C   UNL     1       1.302   8.580  21.418  0.00  0.00    +0.000 A 
ATOM      7  C   UNL     1       0.805   9.878  21.490  0.00  0.00    +0.000 A 
ATOM      8  C   UNL     1       0.768  10.687  20.340  0.00  0.00    +0.000 A 
ATOM      9  C   UNL     1       1.139  10.134  19.125  0.00  0.00    +0.000 A 
ATOM     10  C   UNL     1       1.591   8.819  19.043  0.00  0.00    +0.000 A 
BRANCH   8  11
ATOM     11  C   UNL     1       0.344  12.123  20.444  0.00  0.00    +0.000 C 
ATOM     12  O   UNL     1       1.257  12.829  21.290  0.00  0.00    +0.000 OA
ATOM     13  C   UNL     1       1.333  14.125  20.708  0.00  0.00    +0.000 C 
ATOM     14  C   UNL     1       1.213  13.845  19.235  0.00  0.00    +0.000 C 
ATOM     15  O   UNL     1       0.322  12.735  19.146  0.00  0.00    +0.000 OA
ENDBRANCH   8  11
ENDBRANCH   3   5
ENDBRANCH   2   3
ENDBRANCH   1   2
BRANCH   1  16
ATOM     16  C   UNL     1       1.719   3.149  20.944  0.00  0.00    +0.000 C 
BRANCH  16  17
ATOM     17  C   UNL     1       0.701   3.194  19.817  0.00  0.00    +0.000 C 
BRANCH  17  18
ATOM     18  C   UNL     1       1.274   2.545  18.568  0.00  0.00    +0.000 C 
BRANCH  18  19
ATOM     19  C   UNL     1       2.589   1.858  18.894  0.00  0.00    +0.000 C 
BRANCH  19  20
ATOM     20  C   UNL     1       3.592   2.098  17.781  0.00  0.00    +0.000 C 
BRANCH  20  21
ATOM     21  C   UNL     1       4.380   3.366  18.057  0.00  0.00    +0.000 C 
BRANCH  21  22
ATOM     22  C   UNL     1       4.043   4.422  17.019  0.00  0.00    +0.000 C 
BRANCH  22  23
ATOM     23  C   UNL     1       4.926   4.248  15.797  0.00  0.00    +0.000 C 
BRANCH  23  24
ATOM     24  C   UNL     1       5.482   5.593  15.360  0.00  0.00    +0.000 C 
BRANCH  24  25
ATOM     25  C   UNL     1       6.786   5.879  16.088  0.00  0.00    +0.000 C 
BRANCH  25  26
ATOM     26  C   UNL     1       6.628   7.094  16.988  0.00  0.00    +0.000 C 
BRANCH  26  27
ATOM     27  C   UNL     1       7.659   7.060  18.106  0.00  0.00    +0.000 C 
BRANCH  27  29
ATOM     28  C   UNL     1       7.472   5.399  19.962  0.00  0.00    +0.000 C 
ATOM     29  C   UNL     1       7.939   5.627  18.536  0.00  0.00    +0.000 C 
ENDBRANCH  27  29
ENDBRANCH  26  27
ENDBRANCH  25  26
ENDBRANCH  24  25
ENDBRANCH  23  24
ENDBRANCH  22  23
ENDBRANCH  21  22
ENDBRANCH  20  21
ENDBRANCH  19  20
ENDBRANCH  18  19
ENDBRANCH  17  18
ENDBRANCH  16  17
ENDBRANCH   1  16
TORSDOF 17
ENDMDL
MODEL 7
REMARK VINA RESULT:      -5.9      6.813     10.370
REMARK  Name = 
REMARK  18 active torsions:
REMARK  status: ('A' for Active; 'I' for Inactive)
REMARK    1  A    between atoms: C_1  and  C_2
REMARK    2  A    between atoms: C_2  and  C_3
REMARK    3  A    between atoms: C_3  and  C_4
REMARK    4  A    between atoms: C_4  and  C_5
REMARK    5  A    between atoms: C_5  and  C_6
REMARK    6  A    between atoms: C_6  and  C_7
REMARK    7  A    between atoms: C_7  and  C_8
REMARK    8  A    between atoms: C_8  and  C_9
REMARK    9  A    between atoms: C_9  and  C_10
REMARK   10  A    between atoms: C_10  and  C_11
REMARK   11  A    between atoms: C_11  and  C_12
REMARK   12  A    between atoms: C_12  and  C_13
REMARK   13  A    between atoms: C_13  and  C_14
REMARK   14  A    between atoms: C_14  and  C_15
REMARK   15  A    between atoms: C_15  and  C_16
REMARK   16  A    between atoms: C_16  and  N_17
REMARK   17  A    between atoms: N_17  and  C_18
REMARK   18  A    between atoms: C_21  and  C_22
REMARK                            x       y       z     vdW  Elec       q    Type
REMARK                         _______ _______ _______ _____ _____    ______ ____
ROOT
ATOM      1  C   UNL     1       7.946   7.286  18.134  0.00  0.00    +0.000 C 
ENDROOT
BRANCH   1   2
ATOM      2  C   UNL     1       8.294   8.761  17.963  0.00  0.00    +0.000 C 
BRANCH   2   3
ATOM      3  N   UNL     1       8.821   9.288  19.208  0.00  0.00    +0.000 N 
ATOM      4  H   UNL     1       8.402   8.987  20.076  0.00  0.00    +0.000 HD
BRANCH   3   5
ATOM      5  C   UNL     1       9.554  10.462  19.256  0.00  0.00    +0.000 A 
ATOM      6  C   UNL     1       9.950  11.067  18.058  0.00  0.00    +0.000 A 
ATOM      7  C   UNL     1      10.683  12.250  18.057  0.00  0.00    +0.000 A 
ATOM      8  C   UNL     1      10.976  12.902  19.269  0.00  0.00    +0.000 A 
ATOM      9  C   UNL     1      10.611  12.291  20.457  0.00  0.00    +0.000 A 
ATOM     10  C   UNL     1       9.920  11.083  20.461  0.00  0.00    +0.000 A 
BRANCH   8  11
ATOM     11  C   UNL     1      11.662  14.237  19.258  0.00  0.00    +0.000 C 
ATOM     12  O   UNL     1      11.482  14.853  17.979  0.00  0.00    +0.000 OA
ATOM     13  C   UNL     1      11.367  16.239  18.279  0.00  0.00    +0.000 C 
ATOM     14  C   UNL     1      10.643  16.244  19.597  0.00  0.00    +0.000 C 
ATOM     15  O   UNL     1      11.121  15.087  20.280  0.00  0.00    +0.000 OA
ENDBRANCH   8  11
ENDBRANCH   3   5
ENDBRANCH   2   3
ENDBRANCH   1   2
BRANCH   1  16
ATOM     16  C   UNL     1       6.774   6.926  17.229  0.00  0.00    +0.000 C 
BRANCH  16  17
ATOM     17  C   UNL     1       7.182   5.871  16.216  0.00  0.00    +0.000 C 
BRANCH  17  18
ATOM     18  C   UNL     1       6.169   4.737  16.203  0.00  0.00    +0.000 C 
BRANCH  18  19
ATOM     19  C   UNL     1       5.078   5.003  17.226  0.00  0.00    +0.000 C 
BRANCH  19  20
ATOM     20  C   UNL     1       4.566   3.692  17.795  0.00  0.00    +0.000 C 
BRANCH  20  21
ATOM     21  C   UNL     1       3.371   3.210  16.992  0.00  0.00    +0.000 C 
BRANCH  21  22
ATOM     22  C   UNL     1       2.442   2.403  17.882  0.00  0.00    +0.000 C 
BRANCH  22  23
ATOM     23  C   UNL     1       2.901   2.492  19.326  0.00  0.00    +0.000 C 
BRANCH  23  24
ATOM     24  C   UNL     1       1.776   2.069  20.257  0.00  0.00    +0.000 C 
BRANCH  24  25
ATOM     25  C   UNL     1       1.174   3.289  20.935  0.00  0.00    +0.000 C 
BRANCH  25  26
ATOM     26  C   UNL     1       1.231   4.488  20.002  0.00  0.00    +0.000 C 
BRANCH  26  27
ATOM     27  C   UNL     1       1.852   5.681  20.713  0.00  0.00    +0.000 C 
BRANCH  27  29
ATOM     28  C   UNL     1       2.021   6.274  18.293  0.00  0.00    +0.000 C 
ATOM     29  C   UNL     1       2.398   6.683  19.705  0.00  0.00    +0.000 C 
ENDBRANCH  27  29
ENDBRANCH  26  27
ENDBRANCH  25  26
ENDBRANCH  24  25
ENDBRANCH  23  24
ENDBRANCH  22  23
ENDBRANCH  21  22
ENDBRANCH  20  21
ENDBRANCH  19  20
ENDBRANCH  18  19
ENDBRANCH  17  18
ENDBRANCH  16  17
ENDBRANCH   1  16
TORSDOF 17
ENDMDL
MODEL 8
REMARK VINA RESULT:      -5.9      4.225      9.781
REMARK  Name = 
REMARK  18 active torsions:
REMARK  status: ('A' for Active; 'I' for Inactive)
REMARK    1  A    between atoms: C_1  and  C_2
REMARK    2  A    between atoms: C_2  and  C_3
REMARK    3  A    between atoms: C_3  and  C_4
REMARK    4  A    between atoms: C_4  and  C_5
REMARK    5  A    between atoms: C_5  and  C_6
REMARK    6  A    between atoms: C_6  and  C_7
REMARK    7  A    between atoms: C_7  and  C_8
REMARK    8  A    between atoms: C_8  and  C_9
REMARK    9  A    between atoms: C_9  and  C_10
REMARK   10  A    between atoms: C_10  and  C_11
REMARK   11  A    between atoms: C_11  and  C_12
REMARK   12  A    between atoms: C_12  and  C_13
REMARK   13  A    between atoms: C_13  and  C_14
REMARK   14  A    between atoms: C_14  and  C_15
REMARK   15  A    between atoms: C_15  and  C_16
REMARK   16  A    between atoms: C_16  and  N_17
REMARK   17  A    between atoms: N_17  and  C_18
REMARK   18  A    between atoms: C_21  and  C_22
REMARK                            x       y       z     vdW  Elec       q    Type
REMARK                         _______ _______ _______ _____ _____    ______ ____
ROOT
ATOM      1  C   UNL     1       1.309   2.639  20.001  0.00  0.00    +0.000 C 
ENDROOT
BRANCH   1   2
ATOM      2  C   UNL     1       1.485   2.630  18.486  0.00  0.00    +0.000 C 
BRANCH   2   3
ATOM      3  N   UNL     1       2.813   2.151  18.150  0.00  0.00    +0.000 N 
ATOM      4  H   UNL     1       3.069   1.211  18.417  0.00  0.00    +0.000 HD
BRANCH   3   5
ATOM      5  C   UNL     1       3.857   3.018  17.876  0.00  0.00    +0.000 A 
ATOM      6  C   UNL     1       4.001   3.523  16.579  0.00  0.00    +0.000 A 
ATOM      7  C   UNL     1       5.032   4.401  16.259  0.00  0.00    +0.000 A 
ATOM      8  C   UNL     1       5.910   4.857  17.260  0.00  0.00    +0.000 A 
ATOM      9  C   UNL     1       5.789   4.336  18.537  0.00  0.00    +0.000 A 
ATOM     10  C   UNL     1       4.788   3.420  18.848  0.00  0.00    +0.000 A 
BRANCH   8  11
ATOM     11  C   UNL     1       6.946   5.894  16.935  0.00  0.00    +0.000 C 
ATOM     12  O   UNL     1       6.339   7.190  16.941  0.00  0.00    +0.000 OA
ATOM     13  C   UNL     1       7.354   8.042  17.458  0.00  0.00    +0.000 C 
ATOM     14  C   UNL     1       8.055   7.168  18.461  0.00  0.00    +0.000 C 
ATOM     15  O   UNL     1       8.009   5.858  17.899  0.00  0.00    +0.000 OA
ENDBRANCH   8  11
ENDBRANCH   3   5
ENDBRANCH   2   3
ENDBRANCH   1   2
BRANCH   1  16
ATOM     16  C   UNL     1       0.953   4.045  20.469  0.00  0.00    +0.000 C 
BRANCH  16  17
ATOM     17  C   UNL     1       1.558   5.089  19.546  0.00  0.00    +0.000 C 
BRANCH  17  18
ATOM     18  C   UNL     1       2.201   6.199  20.360  0.00  0.00    +0.000 C 
BRANCH  18  19
ATOM     19  C   UNL     1       1.148   6.914  21.190  0.00  0.00    +0.000 C 
BRANCH  19  20
ATOM     20  C   UNL     1       1.490   8.388  21.308  0.00  0.00    +0.000 C 
BRANCH  20  21
ATOM     21  C   UNL     1       0.506   9.215  20.502  0.00  0.00    +0.000 C 
BRANCH  21  22
ATOM     22  C   UNL     1       1.081   9.512  19.129  0.00  0.00    +0.000 C 
BRANCH  22  23
ATOM     23  C   UNL     1       0.061  10.264  18.292  0.00  0.00    +0.000 C 
BRANCH  23  24
ATOM     24  C   UNL     1       0.062  11.737  18.669  0.00  0.00    +0.000 C 
BRANCH  24  25
ATOM     25  C   UNL     1      -1.253  12.380  18.261  0.00  0.00    +0.000 C 
BRANCH  25  26
ATOM     26  C   UNL     1      -2.413  11.455  18.589  0.00  0.00    +0.000 C 
BRANCH  26  27
ATOM     27  C   UNL     1      -3.406  11.423  17.437  0.00  0.00    +0.000 C 
BRANCH  27  29
ATOM     28  C   UNL     1      -2.829  10.193  15.342  0.00  0.00    +0.000 C 
ATOM     29  C   UNL     1      -3.385  10.066  16.748  0.00  0.00    +0.000 C 
ENDBRANCH  27  29
ENDBRANCH  26  27
ENDBRANCH  25  26
ENDBRANCH  24  25
ENDBRANCH  23  24
ENDBRANCH  22  23
ENDBRANCH  21  22
ENDBRANCH  20  21
ENDBRANCH  19  20
ENDBRANCH  18  19
ENDBRANCH  17  18
ENDBRANCH  16  17
ENDBRANCH   1  16
TORSDOF 17
ENDMDL
MODEL 9
REMARK VINA RESULT:      -5.9      6.254     10.478
REMARK  Name = 
REMARK  18 active torsions:
REMARK  status: ('A' for Active; 'I' for Inactive)
REMARK    1  A    between atoms: C_1  and  C_2
REMARK    2  A    between atoms: C_2  and  C_3
REMARK    3  A    between atoms: C_3  and  C_4
REMARK    4  A    between atoms: C_4  and  C_5
REMARK    5  A    between atoms: C_5  and  C_6
REMARK    6  A    between atoms: C_6  and  C_7
REMARK    7  A    between atoms: C_7  and  C_8
REMARK    8  A    between atoms: C_8  and  C_9
REMARK    9  A    between atoms: C_9  and  C_10
REMARK   10  A    between atoms: C_10  and  C_11
REMARK   11  A    between atoms: C_11  and  C_12
REMARK   12  A    between atoms: C_12  and  C_13
REMARK   13  A    between atoms: C_13  and  C_14
REMARK   14  A    between atoms: C_14  and  C_15
REMARK   15  A    between atoms: C_15  and  C_16
REMARK   16  A    between atoms: C_16  and  N_17
REMARK   17  A    between atoms: N_17  and  C_18
REMARK   18  A    between atoms: C_21  and  C_22
REMARK                            x       y       z     vdW  Elec       q    Type
REMARK                         _______ _______ _______ _____ _____    ______ ____
ROOT
ATOM      1  C   UNL     1       8.004   7.760  18.079  0.00  0.00    +0.000 C 
ENDROOT
BRANCH   1   2
ATOM      2  C   UNL     1       7.385   7.024  16.896  0.00  0.00    +0.000 C 
BRANCH   2   3
ATOM      3  N   UNL     1       6.994   5.686  17.301  0.00  0.00    +0.000 N 
ATOM      4  H   UNL     1       7.654   4.931  17.174  0.00  0.00    +0.000 HD
BRANCH   3   5
ATOM      5  C   UNL     1       5.666   5.323  17.448  0.00  0.00    +0.000 A 
ATOM      6  C   UNL     1       5.246   4.073  16.979  0.00  0.00    +0.000 A 
ATOM      7  C   UNL     1       3.922   3.663  17.111  0.00  0.00    +0.000 A 
ATOM      8  C   UNL     1       2.994   4.476  17.789  0.00  0.00    +0.000 A 
ATOM      9  C   UNL     1       3.399   5.725  18.227  0.00  0.00    +0.000 A 
ATOM     10  C   UNL     1       4.711   6.157  18.053  0.00  0.00    +0.000 A 
BRANCH   8  11
ATOM     11  C   UNL     1       1.599   3.979  18.032  0.00  0.00    +0.000 C 
ATOM     12  O   UNL     1       1.568   2.556  17.885  0.00  0.00    +0.000 OA
ATOM     13  C   UNL     1       0.623   2.131  18.860  0.00  0.00    +0.000 C 
ATOM     14  C   UNL     1       0.837   3.100  19.989  0.00  0.00    +0.000 C 
ATOM     15  O   UNL     1       1.164   4.334  19.353  0.00  0.00    +0.000 OA
ENDBRANCH   8  11
ENDBRANCH   3   5
ENDBRANCH   2   3
ENDBRANCH   1   2
BRANCH   1  16
ATOM     16  C   UNL     1       7.952   9.264  17.834  0.00  0.00    +0.000 C 
BRANCH  16  17
ATOM     17  C   UNL     1       9.024   9.977  18.639  0.00  0.00    +0.000 C 
BRANCH  17  18
ATOM     18  C   UNL     1       9.264  11.368  18.074  0.00  0.00    +0.000 C 
BRANCH  18  19
ATOM     19  C   UNL     1      10.726  11.531  17.694  0.00  0.00    +0.000 C 
BRANCH  19  20
ATOM     20  C   UNL     1      11.383  12.569  18.585  0.00  0.00    +0.000 C 
BRANCH  20  21
ATOM     21  C   UNL     1      11.824  11.929  19.889  0.00  0.00    +0.000 C 
BRANCH  21  22
ATOM     22  C   UNL     1      10.818  12.238  20.983  0.00  0.00    +0.000 C 
BRANCH  22  23
ATOM     23  C   UNL     1      10.409  13.699  20.913  0.00  0.00    +0.000 C 
BRANCH  23  24
ATOM     24  C   UNL     1       8.899  13.823  21.032  0.00  0.00    +0.000 C 
BRANCH  24  25
ATOM     25  C   UNL     1       8.355  12.725  21.932  0.00  0.00    +0.000 C 
BRANCH  25  26
ATOM     26  C   UNL     1       8.027  13.287  23.306  0.00  0.00    +0.000 C 
BRANCH  26  27
ATOM     27  C   UNL     1       6.523  13.459  23.461  0.00  0.00    +0.000 C 
BRANCH  27  29
ATOM     28  C   UNL     1       6.578  11.400  24.871  0.00  0.00    +0.000 C 
ATOM     29  C   UNL     1       6.038  12.813  24.751  0.00  0.00    +0.000 C 
ENDBRANCH  27  29
ENDBRANCH  26  27
ENDBRANCH  25  26
ENDBRANCH  24  25
ENDBRANCH  23  24
ENDBRANCH  22  23
ENDBRANCH  21  22
ENDBRANCH  20  21
ENDBRANCH  19  20
ENDBRANCH  18  19
ENDBRANCH  17  18
ENDBRANCH  16  17
ENDBRANCH   1  16
TORSDOF 17
ENDMDL
