MODEL 1
REMARK VINA RESULT:      -9.1      0.000      0.000
REMARK  Name = 
REMARK  5 active torsions:
REMARK  status: ('A' for Active; 'I' for Inactive)
REMARK    1  A    between atoms: C_2  and  C_3
REMARK    2  A    between atoms: C_8  and  N_9
REMARK    3  A    between atoms: C_11  and  C_12
REMARK    4  A    between atoms: C_15  and  O_16
REMARK    5  A    between atoms: O_16  and  C_17
REMARK                            x       y       z     vdW  Elec       q    Type
REMARK                         _______ _______ _______ _____ _____    ______ ____
ROOT
ATOM      1  N   UNL     1       4.937   4.883  18.415  0.00  0.00    +0.000 N 
ATOM      2  N   UNL     1       4.405   6.088  18.136  0.00  0.00    +0.000 NA
ATOM      3  C   UNL     1       3.269   6.128  18.858  0.00  0.00    +0.000 A 
ATOM      4  C   UNL     1       3.036   4.887  19.529  0.00  0.00    +0.000 A 
ATOM      5  C   UNL     1       2.073   4.295  20.364  0.00  0.00    +0.000 A 
ATOM      6  N   UNL     1       0.883   4.882  20.763  0.00  0.00    +0.000 N 
ATOM      7  N   UNL     1       2.314   3.057  20.846  0.00  0.00    +0.000 NA
ATOM      8  C   UNL     1       3.461   2.439  20.506  0.00  0.00    +0.000 A 
ATOM      9  N   UNL     1       4.435   2.892  19.701  0.00  0.00    +0.000 NA
ATOM     10  C   UNL     1       4.156   4.124  19.243  0.00  0.00    +0.000 A 
ATOM     11  H   UNL     1       0.469   5.560  20.138  0.00  0.00    +0.000 HD
ATOM     12  H   UNL     1       0.253   4.218  21.199  0.00  0.00    +0.000 HD
ENDROOT
BRANCH   1  18
ATOM     13  C   UNL     1       6.981   4.616  14.274  0.00  0.00    +0.000 C 
ATOM     14  O   UNL     1       6.670   3.537  13.785  0.00  0.00    +0.000 OA
ATOM     15  N   UNL     1       6.807   4.894  15.615  0.00  0.00    +0.000 N 
ATOM     16  C   UNL     1       7.112   6.118  16.333  0.00  0.00    +0.000 C 
ATOM     17  C   UNL     1       7.241   5.673  17.780  0.00  0.00    +0.000 C 
ATOM     18  C   UNL     1       6.246   4.509  17.906  0.00  0.00    +0.000 C 
ATOM     19  C   UNL     1       6.174   3.921  16.493  0.00  0.00    +0.000 C 
BRANCH  13  21
ATOM     20  C   UNL     1       7.843   5.492  12.141  0.00  0.00    +0.000 C 
ATOM     21  C   UNL     1       7.594   5.689  13.442  0.00  0.00    +0.000 C 
ENDBRANCH  13  21
ENDBRANCH   1  18
BRANCH   3  22
ATOM     22  C   UNL     1       2.487   7.363  18.899  0.00  0.00    +0.000 A 
ATOM     23  C   UNL     1       2.400   8.188  17.768  0.00  0.00    +0.000 A 
ATOM     24  C   UNL     1       1.675   9.381  17.816  0.00  0.00    +0.000 A 
ATOM     25  C   UNL     1       1.016   9.755  18.988  0.00  0.00    +0.000 A 
ATOM     26  C   UNL     1       1.141   8.968  20.132  0.00  0.00    +0.000 A 
ATOM     27  C   UNL     1       1.873   7.782  20.086  0.00  0.00    +0.000 A 
BRANCH  25  28
ATOM     28  O   UNL     1       0.343  10.954  18.947  0.00  0.00    +0.000 OA
BRANCH  28  29
ATOM     29  C   UNL     1      -0.989  10.976  18.604  0.00  0.00    +0.000 A 
ATOM     30  C   UNL     1      -1.393  10.023  17.668  0.00  0.00    +0.000 A 
ATOM     31  C   UNL     1      -2.731   9.947  17.280  0.00  0.00    +0.000 A 
ATOM     32  C   UNL     1      -3.667  10.824  17.827  0.00  0.00    +0.000 A 
ATOM     33  C   UNL     1      -3.270  11.764  18.778  0.00  0.00    +0.000 A 
ATOM     34  C   UNL     1      -1.937  11.823  19.185  0.00  0.00    +0.000 A 
ENDBRANCH  28  29
ENDBRANCH  25  28
ENDBRANCH   3  22
TORSDOF 5
ENDMDL
MODEL 2
REMARK VINA RESULT:      -9.0      0.451      1.287
REMARK  Name = 
REMARK  5 active torsions:
REMARK  status: ('A' for Active; 'I' for Inactive)
REMARK    1  A    between atoms: C_2  and  C_3
REMARK    2  A    between atoms: C_8  and  N_9
REMARK    3  A    between atoms: C_11  and  C_12
REMARK    4  A    between atoms: C_15  and  O_16
REMARK    5  A    between atoms: O_16  and  C_17
REMARK                            x       y       z     vdW  Elec       q    Type
REMARK                         _______ _______ _______ _____ _____    ______ ____
ROOT
ATOM      1  N   UNL     1       4.666   4.595  18.285  0.00  0.00    +0.000 N 
ATOM      2  N   UNL     1       4.271   5.869  18.104  0.00  0.00    +0.000 NA
ATOM      3  C   UNL     1       3.112   5.960  18.783  0.00  0.00    +0.000 A 
ATOM      4  C   UNL     1       2.724   4.693  19.321  0.00  0.00    +0.000 A 
ATOM      5  C   UNL     1       1.668   4.130  20.059  0.00  0.00    +0.000 A 
ATOM      6  N   UNL     1       0.525   4.797  20.467  0.00  0.00    +0.000 N 
ATOM      7  N   UNL     1       1.761   2.834  20.428  0.00  0.00    +0.000 NA
ATOM      8  C   UNL     1       2.856   2.135  20.073  0.00  0.00    +0.000 A 
ATOM      9  N   UNL     1       3.907   2.556  19.352  0.00  0.00    +0.000 NA
ATOM     10  C   UNL     1       3.774   3.848  19.006  0.00  0.00    +0.000 A 
ATOM     11  H   UNL     1       0.211   5.570  19.895  0.00  0.00    +0.000 HD
ATOM     12  H   UNL     1      -0.188   4.165  20.812  0.00  0.00    +0.000 HD
ENDROOT
BRANCH   1  18
ATOM     13  C   UNL     1       6.862   4.488  14.216  0.00  0.00    +0.000 C 
ATOM     14  O   UNL     1       6.469   3.495  13.618  0.00  0.00    +0.000 OA
ATOM     15  N   UNL     1       6.655   4.663  15.569  0.00  0.00    +0.000 N 
ATOM     16  C   UNL     1       7.046   5.780  16.409  0.00  0.00    +0.000 C 
ATOM     17  C   UNL     1       7.064   5.198  17.812  0.00  0.00    +0.000 C 
ATOM     18  C   UNL     1       5.954   4.136  17.793  0.00  0.00    +0.000 C 
ATOM     19  C   UNL     1       5.890   3.686  16.329  0.00  0.00    +0.000 C 
BRANCH  13  21
ATOM     20  C   UNL     1       7.878   5.472  12.200  0.00  0.00    +0.000 C 
ATOM     21  C   UNL     1       7.616   5.563  13.510  0.00  0.00    +0.000 C 
ENDBRANCH  13  21
ENDBRANCH   1  18
BRANCH   3  22
ATOM     22  C   UNL     1       2.455   7.260  18.914  0.00  0.00    +0.000 A 
ATOM     23  C   UNL     1       1.874   7.644  20.132  0.00  0.00    +0.000 A 
ATOM     24  C   UNL     1       1.224   8.874  20.250  0.00  0.00    +0.000 A 
ATOM     25  C   UNL     1       1.160   9.741  19.158  0.00  0.00    +0.000 A 
ATOM     26  C   UNL     1       1.688   9.346  17.930  0.00  0.00    +0.000 A 
ATOM     27  C   UNL     1       2.329   8.113  17.811  0.00  0.00    +0.000 A 
BRANCH  25  28
ATOM     28  O   UNL     1       0.483  10.921  19.362  0.00  0.00    +0.000 OA
BRANCH  28  29
ATOM     29  C   UNL     1      -0.844  11.016  19.011  0.00  0.00    +0.000 A 
ATOM     30  C   UNL     1      -1.594  11.958  19.716  0.00  0.00    +0.000 A 
ATOM     31  C   UNL     1      -2.942  12.150  19.410  0.00  0.00    +0.000 A 
ATOM     32  C   UNL     1      -3.542  11.398  18.400  0.00  0.00    +0.000 A 
ATOM     33  C   UNL     1      -2.789  10.471  17.680  0.00  0.00    +0.000 A 
ATOM     34  C   UNL     1      -1.435  10.298  17.968  0.00  0.00    +0.000 A 
ENDBRANCH  28  29
ENDBRANCH  25  28
ENDBRANCH   3  22
TORSDOF 5
ENDMDL
MODEL 3
REMARK VINA RESULT:      -8.6      1.755      2.552
REMARK  Name = 
REMARK  5 active torsions:
REMARK  status: ('A' for Active; 'I' for Inactive)
REMARK    1  A    between atoms: C_2  and  C_3
REMARK    2  A    between atoms: C_8  and  N_9
REMARK    3  A    between atoms: C_11  and  C_12
REMARK    4  A    between atoms: C_15  and  O_16
REMARK    5  A    between atoms: O_16  and  C_17
REMARK                            x       y       z     vdW  Elec       q    Type
REMARK                         _______ _______ _______ _____ _____    ______ ____
ROOT
ATOM      1  N   UNL     1       4.696   4.649  18.274  0.00  0.00    +0.000 N 
ATOM      2  N   UNL     1       4.277   5.912  18.068  0.00  0.00    +0.000 NA
ATOM      3  C   UNL     1       3.122   5.998  18.755  0.00  0.00    +0.000 A 
ATOM      4  C   UNL     1       2.760   4.737  19.324  0.00  0.00    +0.000 A 
ATOM      5  C   UNL     1       1.720   4.172  20.082  0.00  0.00    +0.000 A 
ATOM      6  N   UNL     1       0.569   4.829  20.485  0.00  0.00    +0.000 N 
ATOM      7  N   UNL     1       1.839   2.887  20.479  0.00  0.00    +0.000 NA
ATOM      8  C   UNL     1       2.942   2.198  20.131  0.00  0.00    +0.000 A 
ATOM      9  N   UNL     1       3.980   2.622  19.393  0.00  0.00    +0.000 NA
ATOM     10  C   UNL     1       3.823   3.903  19.019  0.00  0.00    +0.000 A 
ATOM     11  H   UNL     1       0.237   5.582  19.899  0.00  0.00    +0.000 HD
ATOM     12  H   UNL     1      -0.130   4.192  20.850  0.00  0.00    +0.000 HD
ENDROOT
BRANCH   1  18
ATOM     13  C   UNL     1       6.862   4.490  14.191  0.00  0.00    +0.000 C 
ATOM     14  O   UNL     1       6.482   3.477  13.618  0.00  0.00    +0.000 OA
ATOM     15  N   UNL     1       6.662   4.691  15.542  0.00  0.00    +0.000 N 
ATOM     16  C   UNL     1       7.041   5.833  16.354  0.00  0.00    +0.000 C 
ATOM     17  C   UNL     1       7.079   5.282  17.769  0.00  0.00    +0.000 C 
ATOM     18  C   UNL     1       5.987   4.201  17.782  0.00  0.00    +0.000 C 
ATOM     19  C   UNL     1       5.920   3.718  16.329  0.00  0.00    +0.000 C 
BRANCH  13  21
ATOM     20  C   UNL     1       7.792   5.475  12.135  0.00  0.00    +0.000 C 
ATOM     21  C   UNL     1       7.591   5.562  13.456  0.00  0.00    +0.000 C 
ENDBRANCH  13  21
ENDBRANCH   1  18
BRANCH   3  22
ATOM     22  C   UNL     1       2.444   7.289  18.862  0.00  0.00    +0.000 A 
ATOM     23  C   UNL     1       2.349   8.137  17.749  0.00  0.00    +0.000 A 
ATOM     24  C   UNL     1       1.725   9.382  17.858  0.00  0.00    +0.000 A 
ATOM     25  C   UNL     1       1.176   9.787  19.075  0.00  0.00    +0.000 A 
ATOM     26  C   UNL     1       1.312   8.973  20.200  0.00  0.00    +0.000 A 
ATOM     27  C   UNL     1       1.944   7.735  20.092  0.00  0.00    +0.000 A 
BRANCH  25  28
ATOM     28  O   UNL     1       0.599  11.035  19.093  0.00  0.00    +0.000 OA
BRANCH  28  29
ATOM     29  C   UNL     1       1.389  12.149  19.261  0.00  0.00    +0.000 A 
ATOM     30  C   UNL     1       1.435  12.674  20.553  0.00  0.00    +0.000 A 
ATOM     31  C   UNL     1       2.233  13.784  20.829  0.00  0.00    +0.000 A 
ATOM     32  C   UNL     1       2.985  14.373  19.813  0.00  0.00    +0.000 A 
ATOM     33  C   UNL     1       2.957  13.838  18.525  0.00  0.00    +0.000 A 
ATOM     34  C   UNL     1       2.179  12.712  18.255  0.00  0.00    +0.000 A 
ENDBRANCH  28  29
ENDBRANCH  25  28
ENDBRANCH   3  22
TORSDOF 5
ENDMDL
MODEL 4
REMARK VINA RESULT:      -8.6      4.026      9.540
REMARK  Name = 
REMARK  5 active torsions:
REMARK  status: ('A' for Active; 'I' for Inactive)
REMARK    1  A    between atoms: C_2  and  C_3
REMARK    2  A    between atoms: C_8  and  N_9
REMARK    3  A    between atoms: C_11  and  C_12
REMARK    4  A    between atoms: C_15  and  O_16
REMARK    5  A    between atoms: O_16  and  C_17
REMARK                            x       y       z     vdW  Elec       q    Type
REMARK                         _______ _______ _______ _____ _____    ______ ____
ROOT
ATOM      1  N   UNL     1      -0.628  11.421  19.475  0.00  0.00    +0.000 N 
ATOM      2  N   UNL     1       0.196  10.641  18.748  0.00  0.00    +0.000 NA
ATOM      3  C   UNL     1       0.769   9.825  19.652  0.00  0.00    +0.000 A 
ATOM      4  C   UNL     1       0.370  10.161  20.983  0.00  0.00    +0.000 A 
ATOM      5  C   UNL     1       0.616   9.747  22.303  0.00  0.00    +0.000 A 
ATOM      6  N   UNL     1       1.510   8.759  22.684  0.00  0.00    +0.000 N 
ATOM      7  N   UNL     1      -0.078  10.334  23.302  0.00  0.00    +0.000 NA
ATOM      8  C   UNL     1      -0.974  11.292  22.995  0.00  0.00    +0.000 A 
ATOM      9  N   UNL     1      -1.272  11.784  21.782  0.00  0.00    +0.000 NA
ATOM     10  C   UNL     1      -0.560  11.174  20.819  0.00  0.00    +0.000 A 
ATOM     11  H   UNL     1       2.313   8.608  22.088  0.00  0.00    +0.000 HD
ATOM     12  H   UNL     1       1.675   8.753  23.684  0.00  0.00    +0.000 HD
ENDROOT
BRANCH   1  18
ATOM     13  C   UNL     1      -4.726  11.251  17.337  0.00  0.00    +0.000 C 
ATOM     14  O   UNL     1      -4.516  10.918  16.177  0.00  0.00    +0.000 OA
ATOM     15  N   UNL     1      -3.718  11.698  18.168  0.00  0.00    +0.000 N 
ATOM     16  C   UNL     1      -3.806  12.113  19.556  0.00  0.00    +0.000 C 
ATOM     17  C   UNL     1      -2.578  12.986  19.757  0.00  0.00    +0.000 C 
ATOM     18  C   UNL     1      -1.521  12.368  18.830  0.00  0.00    +0.000 C 
ATOM     19  C   UNL     1      -2.339  11.722  17.705  0.00  0.00    +0.000 C 
BRANCH  13  21
ATOM     20  C   UNL     1      -6.963  12.216  17.692  0.00  0.00    +0.000 C 
ATOM     21  C   UNL     1      -6.100  11.215  17.911  0.00  0.00    +0.000 C 
ENDBRANCH  13  21
ENDBRANCH   1  18
BRANCH   3  22
ATOM     22  C   UNL     1       1.639   8.742  19.193  0.00  0.00    +0.000 A 
ATOM     23  C   UNL     1       2.274   8.821  17.945  0.00  0.00    +0.000 A 
ATOM     24  C   UNL     1       3.083   7.775  17.495  0.00  0.00    +0.000 A 
ATOM     25  C   UNL     1       3.279   6.647  18.292  0.00  0.00    +0.000 A 
ATOM     26  C   UNL     1       2.609   6.537  19.510  0.00  0.00    +0.000 A 
ATOM     27  C   UNL     1       1.794   7.577  19.955  0.00  0.00    +0.000 A 
BRANCH  25  28
ATOM     28  O   UNL     1       4.075   5.660  17.760  0.00  0.00    +0.000 OA
BRANCH  28  29
ATOM     29  C   UNL     1       3.772   4.338  17.993  0.00  0.00    +0.000 A 
ATOM     30  C   UNL     1       4.489   3.722  19.020  0.00  0.00    +0.000 A 
ATOM     31  C   UNL     1       4.230   2.392  19.353  0.00  0.00    +0.000 A 
ATOM     32  C   UNL     1       3.256   1.676  18.658  0.00  0.00    +0.000 A 
ATOM     33  C   UNL     1       2.524   2.296  17.646  0.00  0.00    +0.000 A 
ATOM     34  C   UNL     1       2.764   3.634  17.330  0.00  0.00    +0.000 A 
ENDBRANCH  28  29
ENDBRANCH  25  28
ENDBRANCH   3  22
TORSDOF 5
ENDMDL
MODEL 5
REMARK VINA RESULT:      -8.5      3.952      9.489
REMARK  Name = 
REMARK  5 active torsions:
REMARK  status: ('A' for Active; 'I' for Inactive)
REMARK    1  A    between atoms: C_2  and  C_3
REMARK    2  A    between atoms: C_8  and  N_9
REMARK    3  A    between atoms: C_11  and  C_12
REMARK    4  A    between atoms: C_15  and  O_16
REMARK    5  A    between atoms: O_16  and  C_17
REMARK                            x       y       z     vdW  Elec       q    Type
REMARK                         _______ _______ _______ _____ _____    ______ ____
ROOT
ATOM      1  N   UNL     1      -0.486  11.351  19.364  0.00  0.00    +0.000 N 
ATOM      2  N   UNL     1       0.327  10.579  18.618  0.00  0.00    +0.000 NA
ATOM      3  C   UNL     1       0.894   9.737  19.502  0.00  0.00    +0.000 A 
ATOM      4  C   UNL     1       0.503  10.048  20.842  0.00  0.00    +0.000 A 
ATOM      5  C   UNL     1       0.749   9.603  22.152  0.00  0.00    +0.000 A 
ATOM      6  N   UNL     1       1.633   8.597  22.507  0.00  0.00    +0.000 N 
ATOM      7  N   UNL     1       0.064  10.175  23.165  0.00  0.00    +0.000 NA
ATOM      8  C   UNL     1      -0.822  11.149  22.882  0.00  0.00    +0.000 A 
ATOM      9  N   UNL     1      -1.119  11.670  21.681  0.00  0.00    +0.000 NA
ATOM     10  C   UNL     1      -0.417  11.074  20.703  0.00  0.00    +0.000 A 
ATOM     11  H   UNL     1       2.433   8.451  21.906  0.00  0.00    +0.000 HD
ATOM     12  H   UNL     1       1.802   8.568  23.506  0.00  0.00    +0.000 HD
ENDROOT
BRANCH   1  18
ATOM     13  C   UNL     1      -4.597  11.274  17.248  0.00  0.00    +0.000 C 
ATOM     14  O   UNL     1      -4.398  10.961  16.080  0.00  0.00    +0.000 OA
ATOM     15  N   UNL     1      -3.580  11.692  18.082  0.00  0.00    +0.000 N 
ATOM     16  C   UNL     1      -3.655  12.081  19.478  0.00  0.00    +0.000 C 
ATOM     17  C   UNL     1      -2.415  12.934  19.689  0.00  0.00    +0.000 C 
ATOM     18  C   UNL     1      -1.371  12.321  18.743  0.00  0.00    +0.000 C 
ATOM     19  C   UNL     1      -2.202  11.708  17.611  0.00  0.00    +0.000 C 
BRANCH  13  21
ATOM     20  C   UNL     1      -6.836  12.238  17.597  0.00  0.00    +0.000 C 
ATOM     21  C   UNL     1      -5.969  11.244  17.829  0.00  0.00    +0.000 C 
ENDBRANCH  13  21
ENDBRANCH   1  18
BRANCH   3  22
ATOM     22  C   UNL     1       1.751   8.655  19.017  0.00  0.00    +0.000 A 
ATOM     23  C   UNL     1       1.894   7.474  19.760  0.00  0.00    +0.000 A 
ATOM     24  C   UNL     1       2.733   6.452  19.310  0.00  0.00    +0.000 A 
ATOM     25  C   UNL     1       3.426   6.592  18.107  0.00  0.00    +0.000 A 
ATOM     26  C   UNL     1       3.330   7.783  17.388  0.00  0.00    +0.000 A 
ATOM     27  C   UNL     1       2.500   8.807  17.843  0.00  0.00    +0.000 A 
BRANCH  25  28
ATOM     28  O   UNL     1       4.242   5.543  17.753  0.00  0.00    +0.000 OA
BRANCH  28  29
ATOM     29  C   UNL     1       3.925   4.266  18.157  0.00  0.00    +0.000 A 
ATOM     30  C   UNL     1       2.985   3.596  17.372  0.00  0.00    +0.000 A 
ATOM     31  C   UNL     1       2.622   2.285  17.683  0.00  0.00    +0.000 A 
ATOM     32  C   UNL     1       3.196   1.643  18.779  0.00  0.00    +0.000 A 
ATOM     33  C   UNL     1       4.151   2.303  19.552  0.00  0.00    +0.000 A 
ATOM     34  C   UNL     1       4.534   3.604  19.226  0.00  0.00    +0.000 A 
ENDBRANCH  28  29
ENDBRANCH  25  28
ENDBRANCH   3  22
TORSDOF 5
ENDMDL
MODEL 6
REMARK VINA RESULT:      -8.5      1.549      2.412
REMARK  Name = 
REMARK  5 active torsions:
REMARK  status: ('A' for Active; 'I' for Inactive)
REMARK    1  A    between atoms: C_2  and  C_3
REMARK    2  A    between atoms: C_8  and  N_9
REMARK    3  A    between atoms: C_11  and  C_12
REMARK    4  A    between atoms: C_15  and  O_16
REMARK    5  A    between atoms: O_16  and  C_17
REMARK                            x       y       z     vdW  Elec       q    Type
REMARK                         _______ _______ _______ _____ _____    ______ ____
ROOT
ATOM      1  N   UNL     1       4.679   4.704  18.344  0.00  0.00    +0.000 N 
ATOM      2  N   UNL     1       4.242   5.962  18.145  0.00  0.00    +0.000 NA
ATOM      3  C   UNL     1       3.069   6.017  18.804  0.00  0.00    +0.000 A 
ATOM      4  C   UNL     1       2.718   4.742  19.349  0.00  0.00    +0.000 A 
ATOM      5  C   UNL     1       1.671   4.148  20.074  0.00  0.00    +0.000 A 
ATOM      6  N   UNL     1       0.499   4.778  20.458  0.00  0.00    +0.000 N 
ATOM      7  N   UNL     1       1.804   2.860  20.457  0.00  0.00    +0.000 NA
ATOM      8  C   UNL     1       2.929   2.197  20.127  0.00  0.00    +0.000 A 
ATOM      9  N   UNL     1       3.976   2.650  19.419  0.00  0.00    +0.000 NA
ATOM     10  C   UNL     1       3.803   3.933  19.058  0.00  0.00    +0.000 A 
ATOM     11  H   UNL     1       0.167   5.533  19.874  0.00  0.00    +0.000 HD
ATOM     12  H   UNL     1      -0.197   4.124  20.798  0.00  0.00    +0.000 HD
ENDROOT
BRANCH   1  18
ATOM     13  C   UNL     1       6.904   4.535  14.293  0.00  0.00    +0.000 C 
ATOM     14  O   UNL     1       6.562   3.500  13.734  0.00  0.00    +0.000 OA
ATOM     15  N   UNL     1       6.680   4.756  15.637  0.00  0.00    +0.000 N 
ATOM     16  C   UNL     1       7.013   5.923  16.431  0.00  0.00    +0.000 C 
ATOM     17  C   UNL     1       7.049   5.400  17.858  0.00  0.00    +0.000 C 
ATOM     18  C   UNL     1       5.990   4.287  17.877  0.00  0.00    +0.000 C 
ATOM     19  C   UNL     1       5.957   3.775  16.433  0.00  0.00    +0.000 C 
BRANCH  13  21
ATOM     20  C   UNL     1       7.959   5.450  12.264  0.00  0.00    +0.000 C 
ATOM     21  C   UNL     1       7.610   5.615  13.547  0.00  0.00    +0.000 C 
ENDBRANCH  13  21
ENDBRANCH   1  18
BRANCH   3  22
ATOM     22  C   UNL     1       2.365   7.294  18.913  0.00  0.00    +0.000 A 
ATOM     23  C   UNL     1       1.911   7.752  20.158  0.00  0.00    +0.000 A 
ATOM     24  C   UNL     1       1.214   8.959  20.258  0.00  0.00    +0.000 A 
ATOM     25  C   UNL     1       0.977   9.728  19.118  0.00  0.00    +0.000 A 
ATOM     26  C   UNL     1       1.379   9.256  17.869  0.00  0.00    +0.000 A 
ATOM     27  C   UNL     1       2.066   8.046  17.769  0.00  0.00    +0.000 A 
BRANCH  25  28
ATOM     28  O   UNL     1       0.268  10.891  19.309  0.00  0.00    +0.000 OA
BRANCH  28  29
ATOM     29  C   UNL     1       0.866  12.104  19.055  0.00  0.00    +0.000 A 
ATOM     30  C   UNL     1       0.144  13.232  19.446  0.00  0.00    +0.000 A 
ATOM     31  C   UNL     1       0.681  14.506  19.258  0.00  0.00    +0.000 A 
ATOM     32  C   UNL     1       1.940  14.654  18.678  0.00  0.00    +0.000 A 
ATOM     33  C   UNL     1       2.673  13.528  18.305  0.00  0.00    +0.000 A 
ATOM     34  C   UNL     1       2.147  12.253  18.517  0.00  0.00    +0.000 A 
ENDBRANCH  28  29
ENDBRANCH  25  28
ENDBRANCH   3  22
TORSDOF 5
ENDMDL
MODEL 7
REMARK VINA RESULT:      -8.3      1.546      2.025
REMARK  Name = 
REMARK  5 active torsions:
REMARK  status: ('A' for Active; 'I' for Inactive)
REMARK    1  A    between atoms: C_2  and  C_3
REMARK    2  A    between atoms: C_8  and  N_9
REMARK    3  A    between atoms: C_11  and  C_12
REMARK    4  A    between atoms: C_15  and  O_16
REMARK    5  A    between atoms: O_16  and  C_17
REMARK                            x       y       z     vdW  Elec       q    Type
REMARK                         _______ _______ _______ _____ _____    ______ ____
ROOT
ATOM      1  N   UNL     1       4.544   4.510  18.256  0.00  0.00    +0.000 N 
ATOM      2  N   UNL     1       4.152   5.786  18.073  0.00  0.00    +0.000 NA
ATOM      3  C   UNL     1       2.995   5.882  18.755  0.00  0.00    +0.000 A 
ATOM      4  C   UNL     1       2.604   4.618  19.297  0.00  0.00    +0.000 A 
ATOM      5  C   UNL     1       1.548   4.059  20.038  0.00  0.00    +0.000 A 
ATOM      6  N   UNL     1       0.408   4.732  20.447  0.00  0.00    +0.000 N 
ATOM      7  N   UNL     1       1.638   2.765  20.410  0.00  0.00    +0.000 NA
ATOM      8  C   UNL     1       2.729   2.060  20.055  0.00  0.00    +0.000 A 
ATOM      9  N   UNL     1       3.780   2.477  19.331  0.00  0.00    +0.000 NA
ATOM     10  C   UNL     1       3.651   3.768  18.981  0.00  0.00    +0.000 A 
ATOM     11  H   UNL     1       0.096   5.504  19.874  0.00  0.00    +0.000 HD
ATOM     12  H   UNL     1      -0.306   4.103  20.796  0.00  0.00    +0.000 HD
ENDROOT
BRANCH   1  18
ATOM     13  C   UNL     1       6.750   4.432  14.192  0.00  0.00    +0.000 C 
ATOM     14  O   UNL     1       6.350   3.449  13.582  0.00  0.00    +0.000 OA
ATOM     15  N   UNL     1       6.541   4.593  15.547  0.00  0.00    +0.000 N 
ATOM     16  C   UNL     1       6.939   5.697  16.401  0.00  0.00    +0.000 C 
ATOM     17  C   UNL     1       6.947   5.097  17.798  0.00  0.00    +0.000 C 
ATOM     18  C   UNL     1       5.829   4.046  17.762  0.00  0.00    +0.000 C 
ATOM     19  C   UNL     1       5.764   3.613  16.293  0.00  0.00    +0.000 C 
BRANCH  13  21
ATOM     20  C   UNL     1       7.824   5.406  12.202  0.00  0.00    +0.000 C 
ATOM     21  C   UNL     1       7.515   5.508  13.502  0.00  0.00    +0.000 C 
ENDBRANCH  13  21
ENDBRANCH   1  18
BRANCH   3  22
ATOM     22  C   UNL     1       2.343   7.185  18.884  0.00  0.00    +0.000 A 
ATOM     23  C   UNL     1       2.149   7.997  17.757  0.00  0.00    +0.000 A 
ATOM     24  C   UNL     1       1.551   9.253  17.884  0.00  0.00    +0.000 A 
ATOM     25  C   UNL     1       1.126   9.704  19.135  0.00  0.00    +0.000 A 
ATOM     26  C   UNL     1       1.362   8.925  20.267  0.00  0.00    +0.000 A 
ATOM     27  C   UNL     1       1.968   7.676  20.140  0.00  0.00    +0.000 A 
BRANCH  25  28
ATOM     28  O   UNL     1       0.565  10.959  19.166  0.00  0.00    +0.000 OA
BRANCH  28  29
ATOM     29  C   UNL     1       0.102  11.469  20.358  0.00  0.00    +0.000 A 
ATOM     30  C   UNL     1       0.514  12.766  20.666  0.00  0.00    +0.000 A 
ATOM     31  C   UNL     1       0.071  13.382  21.837  0.00  0.00    +0.000 A 
ATOM     32  C   UNL     1      -0.783  12.700  22.703  0.00  0.00    +0.000 A 
ATOM     33  C   UNL     1      -1.214  11.412  22.387  0.00  0.00    +0.000 A 
ATOM     34  C   UNL     1      -0.792  10.806  21.203  0.00  0.00    +0.000 A 
ENDBRANCH  28  29
ENDBRANCH  25  28
ENDBRANCH   3  22
TORSDOF 5
ENDMDL
MODEL 8
REMARK VINA RESULT:      -8.2      1.249      1.688
REMARK  Name = 
REMARK  5 active torsions:
REMARK  status: ('A' for Active; 'I' for Inactive)
REMARK    1  A    between atoms: C_2  and  C_3
REMARK    2  A    between atoms: C_8  and  N_9
REMARK    3  A    between atoms: C_11  and  C_12
REMARK    4  A    between atoms: C_15  and  O_16
REMARK    5  A    between atoms: O_16  and  C_17
REMARK                            x       y       z     vdW  Elec       q    Type
REMARK                         _______ _______ _______ _____ _____    ______ ____
ROOT
ATOM      1  N   UNL     1       4.655   4.485  18.128  0.00  0.00    +0.000 N 
ATOM      2  N   UNL     1       4.238   5.747  18.346  0.00  0.00    +0.000 NA
ATOM      3  C   UNL     1       3.044   5.606  18.952  0.00  0.00    +0.000 A 
ATOM      4  C   UNL     1       2.660   4.230  19.031  0.00  0.00    +0.000 A 
ATOM      5  C   UNL     1       1.583   3.452  19.486  0.00  0.00    +0.000 A 
ATOM      6  N   UNL     1       0.404   3.944  20.024  0.00  0.00    +0.000 N 
ATOM      7  N   UNL     1       1.689   2.107  19.423  0.00  0.00    +0.000 NA
ATOM      8  C   UNL     1       2.817   1.567  18.924  0.00  0.00    +0.000 A 
ATOM      9  N   UNL     1       3.893   2.206  18.438  0.00  0.00    +0.000 NA
ATOM     10  C   UNL     1       3.746   3.540  18.519  0.00  0.00    +0.000 A 
ATOM     11  H   UNL     1       0.101   4.857  19.714  0.00  0.00    +0.000 HD
ATOM     12  H   UNL     1      -0.310   3.229  20.106  0.00  0.00    +0.000 HD
ENDROOT
BRANCH   1  18
ATOM     13  C   UNL     1       6.621   4.422  13.943  0.00  0.00    +0.000 C 
ATOM     14  O   UNL     1       6.383   3.328  13.446  0.00  0.00    +0.000 OA
ATOM     15  N   UNL     1       6.456   4.671  15.290  0.00  0.00    +0.000 N 
ATOM     16  C   UNL     1       6.683   5.906  16.017  0.00  0.00    +0.000 C 
ATOM     17  C   UNL     1       6.878   5.456  17.456  0.00  0.00    +0.000 C 
ATOM     18  C   UNL     1       5.977   4.218  17.587  0.00  0.00    +0.000 C 
ATOM     19  C   UNL     1       5.919   3.643  16.168  0.00  0.00    +0.000 C 
BRANCH  13  21
ATOM     20  C   UNL     1       8.421   5.608  12.753  0.00  0.00    +0.000 C 
ATOM     21  C   UNL     1       7.132   5.548  13.112  0.00  0.00    +0.000 C 
ENDBRANCH  13  21
ENDBRANCH   1  18
BRANCH   3  22
ATOM     22  C   UNL     1       2.350   6.790  19.458  0.00  0.00    +0.000 A 
ATOM     23  C   UNL     1       2.233   7.939  18.662  0.00  0.00    +0.000 A 
ATOM     24  C   UNL     1       1.595   9.079  19.155  0.00  0.00    +0.000 A 
ATOM     25  C   UNL     1       1.052   9.078  20.441  0.00  0.00    +0.000 A 
ATOM     26  C   UNL     1       1.209   7.959  21.257  0.00  0.00    +0.000 A 
ATOM     27  C   UNL     1       1.856   6.824  20.767  0.00  0.00    +0.000 A 
BRANCH  25  28
ATOM     28  O   UNL     1       0.458  10.250  20.847  0.00  0.00    +0.000 OA
BRANCH  28  29
ATOM     29  C   UNL     1       0.009  11.150  19.907  0.00  0.00    +0.000 A 
ATOM     30  C   UNL     1       0.792  12.292  19.735  0.00  0.00    +0.000 A 
ATOM     31  C   UNL     1       0.436  13.247  18.782  0.00  0.00    +0.000 A 
ATOM     32  C   UNL     1      -0.705  13.063  18.002  0.00  0.00    +0.000 A 
ATOM     33  C   UNL     1      -1.478  11.912  18.158  0.00  0.00    +0.000 A 
ATOM     34  C   UNL     1      -1.107  10.944  19.092  0.00  0.00    +0.000 A 
ENDBRANCH  28  29
ENDBRANCH  25  28
ENDBRANCH   3  22
TORSDOF 5
ENDMDL
MODEL 9
REMARK VINA RESULT:      -8.2      3.414      9.510
REMARK  Name = 
REMARK  5 active torsions:
REMARK  status: ('A' for Active; 'I' for Inactive)
REMARK    1  A    between atoms: C_2  and  C_3
REMARK    2  A    between atoms: C_8  and  N_9
REMARK    3  A    between atoms: C_11  and  C_12
REMARK    4  A    between atoms: C_15  and  O_16
REMARK    5  A    between atoms: O_16  and  C_17
REMARK                            x       y       z     vdW  Elec       q    Type
REMARK                         _______ _______ _______ _____ _____    ______ ____
ROOT
ATOM      1  N   UNL     1      -0.234  11.115  19.156  0.00  0.00    +0.000 N 
ATOM      2  N   UNL     1       0.529  10.204  18.522  0.00  0.00    +0.000 NA
ATOM      3  C   UNL     1       1.021   9.433  19.510  0.00  0.00    +0.000 A 
ATOM      4  C   UNL     1       0.635   9.926  20.796  0.00  0.00    +0.000 A 
ATOM      5  C   UNL     1       0.830   9.622  22.154  0.00  0.00    +0.000 A 
ATOM      6  N   UNL     1       1.633   8.604  22.643  0.00  0.00    +0.000 N 
ATOM      7  N   UNL     1       0.176  10.356  23.078  0.00  0.00    +0.000 NA
ATOM      8  C   UNL     1      -0.632  11.352  22.665  0.00  0.00    +0.000 A 
ATOM      9  N   UNL     1      -0.873  11.749  21.406  0.00  0.00    +0.000 NA
ATOM     10  C   UNL     1      -0.204  10.993  20.518  0.00  0.00    +0.000 A 
ATOM     11  H   UNL     1       2.427   8.331  22.081  0.00  0.00    +0.000 HD
ATOM     12  H   UNL     1       1.785   8.680  23.642  0.00  0.00    +0.000 HD
ENDROOT
BRANCH   1  18
ATOM     13  C   UNL     1      -4.375  11.129  17.096  0.00  0.00    +0.000 C 
ATOM     14  O   UNL     1      -4.229  10.635  15.984  0.00  0.00    +0.000 OA
ATOM     15  N   UNL     1      -3.307  11.562  17.855  0.00  0.00    +0.000 N 
ATOM     16  C   UNL     1      -3.319  12.151  19.181  0.00  0.00    +0.000 C 
ATOM     17  C   UNL     1      -2.001  12.904  19.261  0.00  0.00    +0.000 C 
ATOM     18  C   UNL     1      -1.037  12.067  18.407  0.00  0.00    +0.000 C 
ATOM     19  C   UNL     1      -1.944  11.381  17.380  0.00  0.00    +0.000 C 
BRANCH  13  21
ATOM     20  C   UNL     1      -6.479  12.379  17.369  0.00  0.00    +0.000 C 
ATOM     21  C   UNL     1      -5.732  11.312  17.683  0.00  0.00    +0.000 C 
ENDBRANCH  13  21
ENDBRANCH   1  18
BRANCH   3  22
ATOM     22  C   UNL     1       1.801   8.243  19.173  0.00  0.00    +0.000 A 
ATOM     23  C   UNL     1       1.801   7.128  20.023  0.00  0.00    +0.000 A 
ATOM     24  C   UNL     1       2.567   6.002  19.715  0.00  0.00    +0.000 A 
ATOM     25  C   UNL     1       3.330   5.971  18.547  0.00  0.00    +0.000 A 
ATOM     26  C   UNL     1       3.378   7.095  17.723  0.00  0.00    +0.000 A 
ATOM     27  C   UNL     1       2.620   8.223  18.036  0.00  0.00    +0.000 A 
BRANCH  25  28
ATOM     28  O   UNL     1       4.067   4.829  18.335  0.00  0.00    +0.000 OA
BRANCH  28  29
ATOM     29  C   UNL     1       5.007   4.801  17.330  0.00  0.00    +0.000 A 
ATOM     30  C   UNL     1       6.308   5.139  17.704  0.00  0.00    +0.000 A 
ATOM     31  C   UNL     1       7.337   5.108  16.762  0.00  0.00    +0.000 A 
ATOM     32  C   UNL     1       7.065   4.742  15.444  0.00  0.00    +0.000 A 
ATOM     33  C   UNL     1       5.770   4.383  15.073  0.00  0.00    +0.000 A 
ATOM     34  C   UNL     1       4.746   4.388  16.021  0.00  0.00    +0.000 A 
ENDBRANCH  28  29
ENDBRANCH  25  28
ENDBRANCH   3  22
TORSDOF 5
ENDMDL
