MODEL 1
REMARK VINA RESULT:      -8.1      0.000      0.000
REMARK  Name = 
REMARK  8 active torsions:
REMARK  status: ('A' for Active; 'I' for Inactive)
REMARK    1  A    between atoms: C_1  and  N_2
REMARK    2  A    between atoms: N_2  and  C_3
REMARK    3  A    between atoms: N_2  and  C_4
REMARK    4  A    between atoms: C_7  and  C_8
REMARK    5  A    between atoms: C_9  and  C_10
REMARK    6  A    between atoms: C_10  and  C_12
REMARK    7  A    between atoms: C_13  and  C_14
REMARK    8  A    between atoms: C_18  and  N_19
REMARK                            x       y       z     vdW  Elec       q    Type
REMARK                         _______ _______ _______ _____ _____    ______ ____
ROOT
ATOM      1  C   UNL     1       7.409   6.807  17.292  0.00  0.00    +0.000 C 
ATOM      2  O   UNL     1       7.733   6.640  16.121  0.00  0.00    +0.000 OA
ENDROOT
BRANCH   1   4
ATOM      3  C   UNL     1       8.157   9.138  17.576  0.00  0.00    +0.000 C 
ATOM      4  C   UNL     1       7.912   7.936  18.122  0.00  0.00    +0.000 C 
BRANCH   3   8
ATOM      5  C   UNL     1       9.891  12.541  19.633  0.00  0.00    +0.000 A 
ATOM      6  C   UNL     1       9.236  12.658  18.402  0.00  0.00    +0.000 A 
ATOM      7  C   UNL     1       8.664  11.555  17.749  0.00  0.00    +0.000 A 
ATOM      8  C   UNL     1       8.727  10.277  18.312  0.00  0.00    +0.000 A 
ATOM      9  C   UNL     1       9.327  10.151  19.568  0.00  0.00    +0.000 A 
ATOM     10  C   UNL     1       9.898  11.261  20.208  0.00  0.00    +0.000 A 
BRANCH   5  12
ATOM     11  C   UNL     1      10.044  14.061  21.578  0.00  0.00    +0.000 C 
ATOM     12  N   UNL     1      10.494  13.632  20.258  0.00  0.00    +0.000 N 
ATOM     13  C   UNL     1      11.206  14.605  19.437  0.00  0.00    +0.000 C 
ENDBRANCH   5  12
ENDBRANCH   3   8
ENDBRANCH   1   4
BRANCH   1  14
ATOM     14  C   UNL     1       6.469   5.898  18.007  0.00  0.00    +0.000 C 
ATOM     15  C   UNL     1       5.334   5.500  17.407  0.00  0.00    +0.000 C 
BRANCH  15  16
ATOM     16  C   UNL     1       4.293   4.684  18.051  0.00  0.00    +0.000 A 
ATOM     17  C   UNL     1       2.966   4.799  17.610  0.00  0.00    +0.000 A 
ATOM     18  C   UNL     1       1.928   4.132  18.269  0.00  0.00    +0.000 A 
ATOM     19  C   UNL     1       2.200   3.344  19.385  0.00  0.00    +0.000 A 
ATOM     20  C   UNL     1       3.523   3.219  19.828  0.00  0.00    +0.000 A 
ATOM     21  C   UNL     1       4.567   3.883  19.168  0.00  0.00    +0.000 A 
BRANCH  20  22
ATOM     22  N   UNL     1       3.819   2.406  21.014  0.00  0.00    +0.000 N 
ATOM     23  O   UNL     1       4.915   1.827  21.058  0.00  0.00    +0.000 OA
ATOM     24  O   UNL     1       2.958   2.346  21.903  0.00  0.00    +0.000 OA
ENDBRANCH  20  22
ENDBRANCH  15  16
ENDBRANCH   1  14
TORSDOF 6
ENDMDL
MODEL 2
REMARK VINA RESULT:      -7.9      6.284      8.018
REMARK  Name = 
REMARK  8 active torsions:
REMARK  status: ('A' for Active; 'I' for Inactive)
REMARK    1  A    between atoms: C_1  and  N_2
REMARK    2  A    between atoms: N_2  and  C_3
REMARK    3  A    between atoms: N_2  and  C_4
REMARK    4  A    between atoms: C_7  and  C_8
REMARK    5  A    between atoms: C_9  and  C_10
REMARK    6  A    between atoms: C_10  and  C_12
REMARK    7  A    between atoms: C_13  and  C_14
REMARK    8  A    between atoms: C_18  and  N_19
REMARK                            x       y       z     vdW  Elec       q    Type
REMARK                         _______ _______ _______ _____ _____    ______ ____
ROOT
ATOM      1  C   UNL     1       4.369   4.401  18.044  0.00  0.00    +0.000 C 
ATOM      2  O   UNL     1       4.555   3.798  19.096  0.00  0.00    +0.000 OA
ENDROOT
BRANCH   1   4
ATOM      3  C   UNL     1       3.238   6.342  19.057  0.00  0.00    +0.000 C 
ATOM      4  C   UNL     1       3.564   5.649  17.953  0.00  0.00    +0.000 C 
BRANCH   3   8
ATOM      5  C   UNL     1       0.625   9.804  19.134  0.00  0.00    +0.000 A 
ATOM      6  C   UNL     1       0.931   9.065  20.282  0.00  0.00    +0.000 A 
ATOM      7  C   UNL     1       1.789   7.954  20.253  0.00  0.00    +0.000 A 
ATOM      8  C   UNL     1       2.382   7.538  19.056  0.00  0.00    +0.000 A 
ATOM      9  C   UNL     1       2.134   8.299  17.911  0.00  0.00    +0.000 A 
ATOM     10  C   UNL     1       1.271   9.405  17.954  0.00  0.00    +0.000 A 
BRANCH   5  12
ATOM     11  C   UNL     1      -1.523  10.811  18.434  0.00  0.00    +0.000 C 
ATOM     12  N   UNL     1      -0.260  10.882  19.160  0.00  0.00    +0.000 N 
ATOM     13  C   UNL     1       0.259  12.205  19.490  0.00  0.00    +0.000 C 
ENDBRANCH   5  12
ENDBRANCH   3   8
ENDBRANCH   1   4
BRANCH   1  14
ATOM     14  C   UNL     1       4.940   3.949  16.744  0.00  0.00    +0.000 C 
ATOM     15  C   UNL     1       5.624   4.813  15.975  0.00  0.00    +0.000 C 
BRANCH  15  16
ATOM     16  C   UNL     1       6.147   4.502  14.635  0.00  0.00    +0.000 A 
ATOM     17  C   UNL     1       7.274   5.193  14.166  0.00  0.00    +0.000 A 
ATOM     18  C   UNL     1       7.734   5.015  12.856  0.00  0.00    +0.000 A 
ATOM     19  C   UNL     1       7.069   4.146  11.993  0.00  0.00    +0.000 A 
ATOM     20  C   UNL     1       5.948   3.448  12.456  0.00  0.00    +0.000 A 
ATOM     21  C   UNL     1       5.486   3.621  13.769  0.00  0.00    +0.000 A 
BRANCH  20  22
ATOM     22  N   UNL     1       5.228   2.544  11.551  0.00  0.00    +0.000 N 
ATOM     23  O   UNL     1       4.145   2.930  11.088  0.00  0.00    +0.000 OA
ATOM     24  O   UNL     1       5.747   1.446  11.299  0.00  0.00    +0.000 OA
ENDBRANCH  20  22
ENDBRANCH  15  16
ENDBRANCH   1  14
TORSDOF 6
ENDMDL
MODEL 3
REMARK VINA RESULT:      -7.8      6.062      7.747
REMARK  Name = 
REMARK  8 active torsions:
REMARK  status: ('A' for Active; 'I' for Inactive)
REMARK    1  A    between atoms: C_1  and  N_2
REMARK    2  A    between atoms: N_2  and  C_3
REMARK    3  A    between atoms: N_2  and  C_4
REMARK    4  A    between atoms: C_7  and  C_8
REMARK    5  A    between atoms: C_9  and  C_10
REMARK    6  A    between atoms: C_10  and  C_12
REMARK    7  A    between atoms: C_13  and  C_14
REMARK    8  A    between atoms: C_18  and  N_19
REMARK                            x       y       z     vdW  Elec       q    Type
REMARK                         _______ _______ _______ _____ _____    ______ ____
ROOT
ATOM      1  C   UNL     1       4.387   4.377  18.191  0.00  0.00    +0.000 C 
ATOM      2  O   UNL     1       4.370   3.680  19.201  0.00  0.00    +0.000 OA
ENDROOT
BRANCH   1   4
ATOM      3  C   UNL     1       3.013   6.192  19.134  0.00  0.00    +0.000 C 
ATOM      4  C   UNL     1       3.771   5.730  18.126  0.00  0.00    +0.000 C 
BRANCH   3   8
ATOM      5  C   UNL     1       1.036  10.051  18.994  0.00  0.00    +0.000 A 
ATOM      6  C   UNL     1       1.658   9.482  17.877  0.00  0.00    +0.000 A 
ATOM      7  C   UNL     1       2.283   8.226  17.926  0.00  0.00    +0.000 A 
ATOM      8  C   UNL     1       2.308   7.483  19.110  0.00  0.00    +0.000 A 
ATOM      9  C   UNL     1       1.642   8.010  20.220  0.00  0.00    +0.000 A 
ATOM     10  C   UNL     1       1.024   9.269  20.159  0.00  0.00    +0.000 A 
BRANCH   5  12
ATOM     11  C   UNL     1       1.281  12.502  18.759  0.00  0.00    +0.000 C 
ATOM     12  N   UNL     1       0.452  11.317  18.952  0.00  0.00    +0.000 N 
ATOM     13  C   UNL     1      -0.862  11.501  19.559  0.00  0.00    +0.000 C 
ENDBRANCH   5  12
ENDBRANCH   3   8
ENDBRANCH   1   4
BRANCH   1  14
ATOM     14  C   UNL     1       5.036   3.942  16.922  0.00  0.00    +0.000 C 
ATOM     15  C   UNL     1       5.457   4.859  16.035  0.00  0.00    +0.000 C 
BRANCH  15  16
ATOM     16  C   UNL     1       6.023   4.543  14.714  0.00  0.00    +0.000 A 
ATOM     17  C   UNL     1       7.181   5.210  14.291  0.00  0.00    +0.000 A 
ATOM     18  C   UNL     1       7.686   5.027  12.998  0.00  0.00    +0.000 A 
ATOM     19  C   UNL     1       7.034   4.178  12.106  0.00  0.00    +0.000 A 
ATOM     20  C   UNL     1       5.880   3.503  12.523  0.00  0.00    +0.000 A 
ATOM     21  C   UNL     1       5.374   3.681  13.819  0.00  0.00    +0.000 A 
BRANCH  20  22
ATOM     22  N   UNL     1       5.174   2.620  11.587  0.00  0.00    +0.000 N 
ATOM     23  O   UNL     1       5.682   1.517  11.339  0.00  0.00    +0.000 OA
ATOM     24  O   UNL     1       4.111   3.029  11.099  0.00  0.00    +0.000 OA
ENDBRANCH  20  22
ENDBRANCH  15  16
ENDBRANCH   1  14
TORSDOF 6
ENDMDL
MODEL 4
REMARK VINA RESULT:      -7.8      5.973      7.771
REMARK  Name = 
REMARK  8 active torsions:
REMARK  status: ('A' for Active; 'I' for Inactive)
REMARK    1  A    between atoms: C_1  and  N_2
REMARK    2  A    between atoms: N_2  and  C_3
REMARK    3  A    between atoms: N_2  and  C_4
REMARK    4  A    between atoms: C_7  and  C_8
REMARK    5  A    between atoms: C_9  and  C_10
REMARK    6  A    between atoms: C_10  and  C_12
REMARK    7  A    between atoms: C_13  and  C_14
REMARK    8  A    between atoms: C_18  and  N_19
REMARK                            x       y       z     vdW  Elec       q    Type
REMARK                         _______ _______ _______ _____ _____    ______ ____
ROOT
ATOM      1  C   UNL     1       5.338   4.615  18.205  0.00  0.00    +0.000 C 
ATOM      2  O   UNL     1       5.802   3.867  19.059  0.00  0.00    +0.000 OA
ENDROOT
BRANCH   1   4
ATOM      3  C   UNL     1       3.304   5.877  18.790  0.00  0.00    +0.000 C 
ATOM      4  C   UNL     1       4.622   5.879  18.532  0.00  0.00    +0.000 C 
BRANCH   3   8
ATOM      5  C   UNL     1       1.060   9.528  19.465  0.00  0.00    +0.000 A 
ATOM      6  C   UNL     1       1.575   9.181  18.212  0.00  0.00    +0.000 A 
ATOM      7  C   UNL     1       2.288   7.991  17.996  0.00  0.00    +0.000 A 
ATOM      8  C   UNL     1       2.513   7.092  19.043  0.00  0.00    +0.000 A 
ATOM      9  C   UNL     1       1.956   7.394  20.288  0.00  0.00    +0.000 A 
ATOM     10  C   UNL     1       1.249   8.589  20.491  0.00  0.00    +0.000 A 
BRANCH   5  12
ATOM     11  C   UNL     1      -0.376  11.351  18.606  0.00  0.00    +0.000 C 
ATOM     12  N   UNL     1       0.388  10.731  19.684  0.00  0.00    +0.000 N 
ATOM     13  C   UNL     1       0.822  11.585  20.784  0.00  0.00    +0.000 C 
ENDBRANCH   5  12
ENDBRANCH   3   8
ENDBRANCH   1   4
BRANCH   1  14
ATOM     14  C   UNL     1       5.451   4.341  16.744  0.00  0.00    +0.000 C 
ATOM     15  C   UNL     1       6.597   4.612  16.097  0.00  0.00    +0.000 C 
BRANCH  15  16
ATOM     16  C   UNL     1       6.788   4.471  14.645  0.00  0.00    +0.000 A 
ATOM     17  C   UNL     1       7.719   5.294  13.996  0.00  0.00    +0.000 A 
ATOM     18  C   UNL     1       7.849   5.276  12.603  0.00  0.00    +0.000 A 
ATOM     19  C   UNL     1       7.043   4.437  11.836  0.00  0.00    +0.000 A 
ATOM     20  C   UNL     1       6.116   3.607  12.477  0.00  0.00    +0.000 A 
ATOM     21  C   UNL     1       5.985   3.619  13.873  0.00  0.00    +0.000 A 
BRANCH  20  22
ATOM     22  N   UNL     1       5.249   2.732  11.679  0.00  0.00    +0.000 N 
ATOM     23  O   UNL     1       4.118   3.147  11.389  0.00  0.00    +0.000 OA
ATOM     24  O   UNL     1       5.699   1.628  11.338  0.00  0.00    +0.000 OA
ENDBRANCH  20  22
ENDBRANCH  15  16
ENDBRANCH   1  14
TORSDOF 6
ENDMDL
MODEL 5
REMARK VINA RESULT:      -7.7      1.617      2.020
REMARK  Name = 
REMARK  8 active torsions:
REMARK  status: ('A' for Active; 'I' for Inactive)
REMARK    1  A    between atoms: C_1  and  N_2
REMARK    2  A    between atoms: N_2  and  C_3
REMARK    3  A    between atoms: N_2  and  C_4
REMARK    4  A    between atoms: C_7  and  C_8
REMARK    5  A    between atoms: C_9  and  C_10
REMARK    6  A    between atoms: C_10  and  C_12
REMARK    7  A    between atoms: C_13  and  C_14
REMARK    8  A    between atoms: C_18  and  N_19
REMARK                            x       y       z     vdW  Elec       q    Type
REMARK                         _______ _______ _______ _____ _____    ______ ____
ROOT
ATOM      1  C   UNL     1       7.061   7.027  17.200  0.00  0.00    +0.000 C 
ATOM      2  O   UNL     1       7.662   6.470  16.287  0.00  0.00    +0.000 OA
ENDROOT
BRANCH   1   4
ATOM      3  C   UNL     1       8.511   8.838  18.031  0.00  0.00    +0.000 C 
ATOM      4  C   UNL     1       7.305   8.443  17.589  0.00  0.00    +0.000 C 
BRANCH   3   8
ATOM      5  C   UNL     1       9.329  12.818  19.552  0.00  0.00    +0.000 A 
ATOM      6  C   UNL     1       9.540  11.662  20.312  0.00  0.00    +0.000 A 
ATOM      7  C   UNL     1       9.287  10.376  19.809  0.00  0.00    +0.000 A 
ATOM      8  C   UNL     1       8.808  10.198  18.507  0.00  0.00    +0.000 A 
ATOM      9  C   UNL     1       8.647  11.337  17.714  0.00  0.00    +0.000 A 
ATOM     10  C   UNL     1       8.900  12.617  18.231  0.00  0.00    +0.000 A 
BRANCH   5  12
ATOM     11  C   UNL     1       9.390  15.268  19.216  0.00  0.00    +0.000 C 
ATOM     12  N   UNL     1       9.543  14.095  20.070  0.00  0.00    +0.000 N 
ATOM     13  C   UNL     1      10.355  14.235  21.274  0.00  0.00    +0.000 C 
ENDBRANCH   5  12
ENDBRANCH   3   8
ENDBRANCH   1   4
BRANCH   1  14
ATOM     14  C   UNL     1       6.015   6.344  18.012  0.00  0.00    +0.000 C 
ATOM     15  C   UNL     1       4.763   6.234  17.539  0.00  0.00    +0.000 C 
BRANCH  15  16
ATOM     16  C   UNL     1       3.633   5.667  18.292  0.00  0.00    +0.000 A 
ATOM     17  C   UNL     1       3.051   6.422  19.321  0.00  0.00    +0.000 A 
ATOM     18  C   UNL     1       2.055   5.878  20.138  0.00  0.00    +0.000 A 
ATOM     19  C   UNL     1       1.628   4.566  19.942  0.00  0.00    +0.000 A 
ATOM     20  C   UNL     1       2.198   3.808  18.912  0.00  0.00    +0.000 A 
ATOM     21  C   UNL     1       3.195   4.351  18.088  0.00  0.00    +0.000 A 
BRANCH  20  22
ATOM     22  N   UNL     1       1.770   2.419  18.707  0.00  0.00    +0.000 N 
ATOM     23  O   UNL     1       2.650   1.561  18.547  0.00  0.00    +0.000 OA
ATOM     24  O   UNL     1       0.553   2.184  18.708  0.00  0.00    +0.000 OA
ENDBRANCH  20  22
ENDBRANCH  15  16
ENDBRANCH   1  14
TORSDOF 6
ENDMDL
MODEL 6
REMARK VINA RESULT:      -7.7      1.401      1.935
REMARK  Name = 
REMARK  8 active torsions:
REMARK  status: ('A' for Active; 'I' for Inactive)
REMARK    1  A    between atoms: C_1  and  N_2
REMARK    2  A    between atoms: N_2  and  C_3
REMARK    3  A    between atoms: N_2  and  C_4
REMARK    4  A    between atoms: C_7  and  C_8
REMARK    5  A    between atoms: C_9  and  C_10
REMARK    6  A    between atoms: C_10  and  C_12
REMARK    7  A    between atoms: C_13  and  C_14
REMARK    8  A    between atoms: C_18  and  N_19
REMARK                            x       y       z     vdW  Elec       q    Type
REMARK                         _______ _______ _______ _____ _____    ______ ____
ROOT
ATOM      1  C   UNL     1       7.101   6.139  17.308  0.00  0.00    +0.000 C 
ATOM      2  O   UNL     1       7.638   5.394  16.494  0.00  0.00    +0.000 OA
ENDROOT
BRANCH   1   4
ATOM      3  C   UNL     1       7.656   8.525  17.570  0.00  0.00    +0.000 C 
ATOM      4  C   UNL     1       7.815   7.257  17.983  0.00  0.00    +0.000 C 
BRANCH   3   8
ATOM      5  C   UNL     1       9.767  11.871  19.352  0.00  0.00    +0.000 A 
ATOM      6  C   UNL     1       9.799  10.582  19.897  0.00  0.00    +0.000 A 
ATOM      7  C   UNL     1       9.126   9.501  19.307  0.00  0.00    +0.000 A 
ATOM      8  C   UNL     1       8.386   9.672  18.133  0.00  0.00    +0.000 A 
ATOM      9  C   UNL     1       8.391  10.938  17.543  0.00  0.00    +0.000 A 
ATOM     10  C   UNL     1       9.065  12.012  18.145  0.00  0.00    +0.000 A 
BRANCH   5  12
ATOM     11  C   UNL     1      11.742  13.348  19.540  0.00  0.00    +0.000 C 
ATOM     12  N   UNL     1      10.404  12.950  19.963  0.00  0.00    +0.000 N 
ATOM     13  C   UNL     1       9.964  13.361  21.292  0.00  0.00    +0.000 C 
ENDBRANCH   5  12
ENDBRANCH   3   8
ENDBRANCH   1   4
BRANCH   1  14
ATOM     14  C   UNL     1       5.670   6.006  17.702  0.00  0.00    +0.000 C 
ATOM     15  C   UNL     1       5.350   5.600  18.942  0.00  0.00    +0.000 C 
BRANCH  15  16
ATOM     16  C   UNL     1       3.977   5.343  19.407  0.00  0.00    +0.000 A 
ATOM     17  C   UNL     1       3.102   6.425  19.580  0.00  0.00    +0.000 A 
ATOM     18  C   UNL     1       1.829   6.240  20.131  0.00  0.00    +0.000 A 
ATOM     19  C   UNL     1       1.414   4.969  20.524  0.00  0.00    +0.000 A 
ATOM     20  C   UNL     1       2.280   3.883  20.348  0.00  0.00    +0.000 A 
ATOM     21  C   UNL     1       3.555   4.063  19.792  0.00  0.00    +0.000 A 
BRANCH  20  22
ATOM     22  N   UNL     1       1.860   2.542  20.774  0.00  0.00    +0.000 N 
ATOM     23  O   UNL     1       1.569   1.721  19.893  0.00  0.00    +0.000 OA
ATOM     24  O   UNL     1       1.824   2.309  21.991  0.00  0.00    +0.000 OA
ENDBRANCH  20  22
ENDBRANCH  15  16
ENDBRANCH   1  14
TORSDOF 6
ENDMDL
MODEL 7
REMARK VINA RESULT:      -7.7      6.003      7.710
REMARK  Name = 
REMARK  8 active torsions:
REMARK  status: ('A' for Active; 'I' for Inactive)
REMARK    1  A    between atoms: C_1  and  N_2
REMARK    2  A    between atoms: N_2  and  C_3
REMARK    3  A    between atoms: N_2  and  C_4
REMARK    4  A    between atoms: C_7  and  C_8
REMARK    5  A    between atoms: C_9  and  C_10
REMARK    6  A    between atoms: C_10  and  C_12
REMARK    7  A    between atoms: C_13  and  C_14
REMARK    8  A    between atoms: C_18  and  N_19
REMARK                            x       y       z     vdW  Elec       q    Type
REMARK                         _______ _______ _______ _____ _____    ______ ____
ROOT
ATOM      1  C   UNL     1       5.060   4.532  18.750  0.00  0.00    +0.000 C 
ATOM      2  O   UNL     1       4.962   3.603  19.545  0.00  0.00    +0.000 OA
ENDROOT
BRANCH   1   4
ATOM      3  C   UNL     1       3.124   6.057  18.749  0.00  0.00    +0.000 C 
ATOM      4  C   UNL     1       4.434   5.864  18.976  0.00  0.00    +0.000 C 
BRANCH   3   8
ATOM      5  C   UNL     1       1.037   9.837  19.181  0.00  0.00    +0.000 A 
ATOM      6  C   UNL     1       1.163   8.920  20.231  0.00  0.00    +0.000 A 
ATOM      7  C   UNL     1       1.852   7.706  20.089  0.00  0.00    +0.000 A 
ATOM      8  C   UNL     1       2.450   7.359  18.873  0.00  0.00    +0.000 A 
ATOM      9  C   UNL     1       2.385   8.288  17.831  0.00  0.00    +0.000 A 
ATOM     10  C   UNL     1       1.689   9.497  17.986  0.00  0.00    +0.000 A 
BRANCH   5  12
ATOM     11  C   UNL     1       0.894  12.286  18.866  0.00  0.00    +0.000 C 
ATOM     12  N   UNL     1       0.317  11.023  19.314  0.00  0.00    +0.000 N 
ATOM     13  C   UNL     1      -0.758  11.082  20.298  0.00  0.00    +0.000 C 
ENDBRANCH   5  12
ENDBRANCH   3   8
ENDBRANCH   1   4
BRANCH   1  14
ATOM     14  C   UNL     1       5.824   4.428  17.475  0.00  0.00    +0.000 C 
ATOM     15  C   UNL     1       5.184   4.523  16.298  0.00  0.00    +0.000 C 
BRANCH  15  16
ATOM     16  C   UNL     1       5.821   4.340  14.985  0.00  0.00    +0.000 A 
ATOM     17  C   UNL     1       6.992   5.053  14.689  0.00  0.00    +0.000 A 
ATOM     18  C   UNL     1       7.565   4.999  13.414  0.00  0.00    +0.000 A 
ATOM     19  C   UNL     1       6.970   4.236  12.411  0.00  0.00    +0.000 A 
ATOM     20  C   UNL     1       5.805   3.516  12.700  0.00  0.00    +0.000 A 
ATOM     21  C   UNL     1       5.230   3.564  13.979  0.00  0.00    +0.000 A 
BRANCH  20  22
ATOM     22  N   UNL     1       5.160   2.722  11.647  0.00  0.00    +0.000 N 
ATOM     23  O   UNL     1       5.664   1.627  11.358  0.00  0.00    +0.000 OA
ATOM     24  O   UNL     1       4.147   3.192  11.109  0.00  0.00    +0.000 OA
ENDBRANCH  20  22
ENDBRANCH  15  16
ENDBRANCH   1  14
TORSDOF 6
ENDMDL
MODEL 8
REMARK VINA RESULT:      -7.6      2.742     10.304
REMARK  Name = 
REMARK  8 active torsions:
REMARK  status: ('A' for Active; 'I' for Inactive)
REMARK    1  A    between atoms: C_1  and  N_2
REMARK    2  A    between atoms: N_2  and  C_3
REMARK    3  A    between atoms: N_2  and  C_4
REMARK    4  A    between atoms: C_7  and  C_8
REMARK    5  A    between atoms: C_9  and  C_10
REMARK    6  A    between atoms: C_10  and  C_12
REMARK    7  A    between atoms: C_13  and  C_14
REMARK    8  A    between atoms: C_18  and  N_19
REMARK                            x       y       z     vdW  Elec       q    Type
REMARK                         _______ _______ _______ _____ _____    ______ ____
ROOT
ATOM      1  C   UNL     1       7.589   7.309  17.419  0.00  0.00    +0.000 C 
ATOM      2  O   UNL     1       7.982   7.063  16.283  0.00  0.00    +0.000 OA
ENDROOT
BRANCH   1   4
ATOM      3  C   UNL     1       6.174   5.322  17.774  0.00  0.00    +0.000 C 
ATOM      4  C   UNL     1       6.434   6.612  18.048  0.00  0.00    +0.000 C 
BRANCH   3   8
ATOM      5  C   UNL     1       2.672   3.274  19.311  0.00  0.00    +0.000 A 
ATOM      6  C   UNL     1       2.598   4.243  18.305  0.00  0.00    +0.000 A 
ATOM      7  C   UNL     1       3.736   4.892  17.802  0.00  0.00    +0.000 A 
ATOM      8  C   UNL     1       5.010   4.589  18.294  0.00  0.00    +0.000 A 
ATOM      9  C   UNL     1       5.109   3.582  19.258  0.00  0.00    +0.000 A 
ATOM     10  C   UNL     1       3.962   2.944  19.755  0.00  0.00    +0.000 A 
BRANCH   5  12
ATOM     11  C   UNL     1       0.431   2.288  18.959  0.00  0.00    +0.000 C 
ATOM     12  N   UNL     1       1.535   2.662  19.837  0.00  0.00    +0.000 N 
ATOM     13  C   UNL     1       1.245   2.826  21.257  0.00  0.00    +0.000 C 
ENDBRANCH   5  12
ENDBRANCH   3   8
ENDBRANCH   1   4
BRANCH   1  14
ATOM     14  C   UNL     1       8.234   8.329  18.293  0.00  0.00    +0.000 C 
ATOM     15  C   UNL     1       8.491   9.557  17.814  0.00  0.00    +0.000 C 
BRANCH  15  16
ATOM     16  C   UNL     1       9.207  10.608  18.555  0.00  0.00    +0.000 A 
ATOM     17  C   UNL     1       9.329  10.499  19.948  0.00  0.00    +0.000 A 
ATOM     18  C   UNL     1       9.897  11.530  20.704  0.00  0.00    +0.000 A 
ATOM     19  C   UNL     1      10.348  12.690  20.078  0.00  0.00    +0.000 A 
ATOM     20  C   UNL     1      10.237  12.803  18.687  0.00  0.00    +0.000 A 
ATOM     21  C   UNL     1       9.670  11.771  17.925  0.00  0.00    +0.000 A 
BRANCH  20  22
ATOM     22  N   UNL     1      10.691  14.028  18.018  0.00  0.00    +0.000 N 
ATOM     23  O   UNL     1      10.667  15.084  18.667  0.00  0.00    +0.000 OA
ATOM     24  O   UNL     1      11.075  13.936  16.843  0.00  0.00    +0.000 OA
ENDBRANCH  20  22
ENDBRANCH  15  16
ENDBRANCH   1  14
TORSDOF 6
ENDMDL
MODEL 9
REMARK VINA RESULT:      -7.6      6.267      7.713
REMARK  Name = 
REMARK  8 active torsions:
REMARK  status: ('A' for Active; 'I' for Inactive)
REMARK    1  A    between atoms: C_1  and  N_2
REMARK    2  A    between atoms: N_2  and  C_3
REMARK    3  A    between atoms: N_2  and  C_4
REMARK    4  A    between atoms: C_7  and  C_8
REMARK    5  A    between atoms: C_9  and  C_10
REMARK    6  A    between atoms: C_10  and  C_12
REMARK    7  A    between atoms: C_13  and  C_14
REMARK    8  A    between atoms: C_18  and  N_19
REMARK                            x       y       z     vdW  Elec       q    Type
REMARK                         _______ _______ _______ _____ _____    ______ ____
ROOT
ATOM      1  C   UNL     1       2.221   8.478  18.152  0.00  0.00    +0.000 C 
ATOM      2  O   UNL     1       2.782   8.764  17.099  0.00  0.00    +0.000 OA
ENDROOT
BRANCH   1   4
ATOM      3  C   UNL     1       0.881   9.110  20.121  0.00  0.00    +0.000 C 
ATOM      4  C   UNL     1       1.464   9.468  18.965  0.00  0.00    +0.000 C 
BRANCH   3   8
ATOM      5  C   UNL     1      -1.509  11.866  22.470  0.00  0.00    +0.000 A 
ATOM      6  C   UNL     1      -1.331  12.009  21.090  0.00  0.00    +0.000 A 
ATOM      7  C   UNL     1      -0.568  11.106  20.333  0.00  0.00    +0.000 A 
ATOM      8  C   UNL     1       0.052  10.009  20.939  0.00  0.00    +0.000 A 
ATOM      9  C   UNL     1      -0.163   9.817  22.306  0.00  0.00    +0.000 A 
ATOM     10  C   UNL     1      -0.924  10.730  23.052  0.00  0.00    +0.000 A 
BRANCH   5  12
ATOM     11  C   UNL     1      -1.562  13.940  23.817  0.00  0.00    +0.000 C 
ATOM     12  N   UNL     1      -2.233  12.788  23.225  0.00  0.00    +0.000 N 
ATOM     13  C   UNL     1      -3.504  12.371  23.808  0.00  0.00    +0.000 C 
ENDBRANCH   5  12
ENDBRANCH   3   8
ENDBRANCH   1   4
BRANCH   1  14
ATOM     14  C   UNL     1       2.234   7.103  18.725  0.00  0.00    +0.000 C 
ATOM     15  C   UNL     1       2.538   6.053  17.944  0.00  0.00    +0.000 C 
BRANCH  15  16
ATOM     16  C   UNL     1       2.489   4.648  18.379  0.00  0.00    +0.000 A 
ATOM     17  C   UNL     1       2.363   3.639  17.413  0.00  0.00    +0.000 A 
ATOM     18  C   UNL     1       2.195   2.301  17.787  0.00  0.00    +0.000 A 
ATOM     19  C   UNL     1       2.143   1.953  19.135  0.00  0.00    +0.000 A 
ATOM     20  C   UNL     1       2.275   2.953  20.105  0.00  0.00    +0.000 A 
ATOM     21  C   UNL     1       2.447   4.295  19.734  0.00  0.00    +0.000 A 
BRANCH  20  22
ATOM     22  N   UNL     1       2.203   2.601  21.528  0.00  0.00    +0.000 N 
ATOM     23  O   UNL     1       3.234   2.177  22.071  0.00  0.00    +0.000 OA
ATOM     24  O   UNL     1       1.116   2.748  22.106  0.00  0.00    +0.000 OA
ENDBRANCH  20  22
ENDBRANCH  15  16
ENDBRANCH   1  14
TORSDOF 6
ENDMDL
