MODEL 1
REMARK VINA RESULT:      -8.8      0.000      0.000
REMARK  Name = 
REMARK  8 active torsions:
REMARK  status: ('A' for Active; 'I' for Inactive)
REMARK    1  A    between atoms: N_1  and  C_2
REMARK    2  A    between atoms: C_2  and  C_3
REMARK    3  A    between atoms: C_5  and  O_6
REMARK    4  A    between atoms: O_6  and  C_7
REMARK    5  A    between atoms: C_11  and  C_12
REMARK    6  A    between atoms: N_14  and  C_15
REMARK    7  A    between atoms: C_15  and  C_16
REMARK    8  A    between atoms: C_24  and  C_25
REMARK                            x       y       z     vdW  Elec       q    Type
REMARK                         _______ _______ _______ _____ _____    ______ ____
ROOT
ATOM      1  C   UNL     1       2.891   3.887  18.408  0.00  0.00    +0.000 A 
ATOM      2  C   UNL     1       2.214   2.987  19.234  0.00  0.00    +0.000 A 
ATOM      3  C   UNL     1       1.443   3.453  20.299  0.00  0.00    +0.000 A 
ATOM      4  C   UNL     1       1.359   4.823  20.546  0.00  0.00    +0.000 A 
ATOM      5  C   UNL     1       1.999   5.737  19.696  0.00  0.00    +0.000 A 
ATOM      6  C   UNL     1       2.737   5.265  18.602  0.00  0.00    +0.000 A 
ENDROOT
BRANCH   5   7
ATOM      7  C   UNL     1       1.946   7.185  20.048  0.00  0.00    +0.000 C 
ATOM      8  O   UNL     1       2.241   8.029  19.210  0.00  0.00    +0.000 OA
ATOM      9  N   UNL     1       1.554   7.501  21.330  0.00  0.00    +0.000 N 
ATOM     10  H   UNL     1       1.389   6.777  22.015  0.00  0.00    +0.000 HD
BRANCH   9  11
ATOM     11  C   UNL     1       1.476   8.884  21.778  0.00  0.00    +0.000 C 
BRANCH  11  12
ATOM     12  C   UNL     1       0.067   9.469  21.629  0.00  0.00    +0.000 C 
ATOM     13  C   UNL     1       0.008  10.579  20.583  0.00  0.00    +0.000 C 
ATOM     14  C   UNL     1      -1.153  11.456  21.039  0.00  0.00    +0.000 C 
ATOM     15  C   UNL     1      -1.183  11.232  22.529  0.00  0.00    +0.000 C 
ATOM     16  O   UNL     1      -1.838  11.864  23.338  0.00  0.00    +0.000 OA
ATOM     17  N   UNL     1      -0.395  10.139  22.821  0.00  0.00    +0.000 N 
ATOM     18  H   UNL     1      -0.525   9.690  23.724  0.00  0.00    +0.000 HD
ENDBRANCH  11  12
ENDBRANCH   9  11
ENDBRANCH   5   7
BRANCH   1  19
ATOM     19  O   UNL     1       3.661   3.316  17.416  0.00  0.00    +0.000 OA
BRANCH  19  22
ATOM     20  C   UNL     1       6.397   4.621  15.318  0.00  0.00    +0.000 A 
ATOM     21  C   UNL     1       5.141   4.111  15.654  0.00  0.00    +0.000 A 
ATOM     22  C   UNL     1       4.813   3.942  16.992  0.00  0.00    +0.000 A 
ATOM     23  N   UNL     1       5.591   4.404  17.995  0.00  0.00    +0.000 NA
ATOM     24  C   UNL     1       6.776   4.996  17.671  0.00  0.00    +0.000 A 
ATOM     25  C   UNL     1       7.217   5.087  16.347  0.00  0.00    +0.000 A 
BRANCH  24  26
ATOM     26  C   UNL     1       7.648   5.579  18.775  0.00  0.00    +0.000 C 
ATOM     27  F   UNL     1       8.123   6.830  18.519  0.00  0.00    +0.000 F 
ATOM     28  F   UNL     1       6.992   5.667  19.969  0.00  0.00    +0.000 F 
ATOM     29  F   UNL     1       8.750   4.809  19.023  0.00  0.00    +0.000 F 
ENDBRANCH  24  26
BRANCH  20  30
ATOM     30  C   UNL     1       6.862   4.606  13.886  0.00  0.00    +0.000 C 
BRANCH  30  31
ATOM     31  N   UNL     1       7.955   5.559  13.697  0.00  0.00    +0.000 NA
ATOM     32  H   UNL     1       8.121   6.043  14.580  0.00  0.00    +0.000 HD
ATOM     33  H   UNL     1       7.664   6.279  13.040  0.00  0.00    +0.000 HD
ENDBRANCH  30  31
ENDBRANCH  20  30
ENDBRANCH  19  22
ENDBRANCH   1  19
TORSDOF 8
ENDMDL
MODEL 2
REMARK VINA RESULT:      -8.6      2.021      2.825
REMARK  Name = 
REMARK  8 active torsions:
REMARK  status: ('A' for Active; 'I' for Inactive)
REMARK    1  A    between atoms: N_1  and  C_2
REMARK    2  A    between atoms: C_2  and  C_3
REMARK    3  A    between atoms: C_5  and  O_6
REMARK    4  A    between atoms: O_6  and  C_7
REMARK    5  A    between atoms: C_11  and  C_12
REMARK    6  A    between atoms: N_14  and  C_15
REMARK    7  A    between atoms: C_15  and  C_16
REMARK    8  A    between atoms: C_24  and  C_25
REMARK                            x       y       z     vdW  Elec       q    Type
REMARK                         _______ _______ _______ _____ _____    ______ ____
ROOT
ATOM      1  C   UNL     1       2.939   3.830  18.971  0.00  0.00    +0.000 A 
ATOM      2  C   UNL     1       2.139   3.016  19.776  0.00  0.00    +0.000 A 
ATOM      3  C   UNL     1       1.250   3.585  20.687  0.00  0.00    +0.000 A 
ATOM      4  C   UNL     1       1.167   4.973  20.802  0.00  0.00    +0.000 A 
ATOM      5  C   UNL     1       1.934   5.799  19.968  0.00  0.00    +0.000 A 
ATOM      6  C   UNL     1       2.794   5.222  19.024  0.00  0.00    +0.000 A 
ENDROOT
BRANCH   5   7
ATOM      7  C   UNL     1       1.872   7.273  20.184  0.00  0.00    +0.000 C 
ATOM      8  O   UNL     1       2.110   8.037  19.256  0.00  0.00    +0.000 OA
ATOM      9  N   UNL     1       1.537   7.704  21.448  0.00  0.00    +0.000 N 
ATOM     10  H   UNL     1       1.418   7.046  22.205  0.00  0.00    +0.000 HD
BRANCH   9  11
ATOM     11  C   UNL     1       1.455   9.122  21.767  0.00  0.00    +0.000 C 
BRANCH  11  12
ATOM     12  C   UNL     1       0.029   9.670  21.636  0.00  0.00    +0.000 C 
ATOM     13  C   UNL     1      -0.065  10.800  20.614  0.00  0.00    +0.000 C 
ATOM     14  C   UNL     1      -1.248  11.634  21.094  0.00  0.00    +0.000 C 
ATOM     15  C   UNL     1      -1.264  11.379  22.578  0.00  0.00    +0.000 C 
ATOM     16  O   UNL     1      -1.933  11.974  23.404  0.00  0.00    +0.000 OA
ATOM     17  N   UNL     1      -0.445  10.302  22.845  0.00  0.00    +0.000 N 
ATOM     18  H   UNL     1      -0.558   9.831  23.738  0.00  0.00    +0.000 HD
ENDBRANCH  11  12
ENDBRANCH   9  11
ENDBRANCH   5   7
BRANCH   1  19
ATOM     19  O   UNL     1       3.816   3.164  18.141  0.00  0.00    +0.000 OA
BRANCH  19  22
ATOM     20  C   UNL     1       6.925   5.135  17.948  0.00  0.00    +0.000 A 
ATOM     21  C   UNL     1       5.894   4.378  18.509  0.00  0.00    +0.000 A 
ATOM     22  C   UNL     1       4.945   3.803  17.675  0.00  0.00    +0.000 A 
ATOM     23  N   UNL     1       5.064   3.801  16.331  0.00  0.00    +0.000 NA
ATOM     24  C   UNL     1       6.126   4.452  15.777  0.00  0.00    +0.000 A 
ATOM     25  C   UNL     1       7.050   5.153  16.558  0.00  0.00    +0.000 A 
BRANCH  24  26
ATOM     26  C   UNL     1       6.321   4.418  14.266  0.00  0.00    +0.000 C 
ATOM     27  F   UNL     1       6.692   3.204  13.772  0.00  0.00    +0.000 F 
ATOM     28  F   UNL     1       5.191   4.769  13.585  0.00  0.00    +0.000 F 
ATOM     29  F   UNL     1       7.282   5.296  13.851  0.00  0.00    +0.000 F 
ENDBRANCH  24  26
BRANCH  20  30
ATOM     30  C   UNL     1       7.833   5.949  18.831  0.00  0.00    +0.000 C 
BRANCH  30  31
ATOM     31  N   UNL     1       7.808   5.434  20.199  0.00  0.00    +0.000 NA
ATOM     32  H   UNL     1       8.766   5.234  20.489  0.00  0.00    +0.000 HD
ATOM     33  H   UNL     1       7.325   4.538  20.213  0.00  0.00    +0.000 HD
ENDBRANCH  30  31
ENDBRANCH  20  30
ENDBRANCH  19  22
ENDBRANCH   1  19
TORSDOF 8
ENDMDL
MODEL 3
REMARK VINA RESULT:      -8.4      2.900      7.790
REMARK  Name = 
REMARK  8 active torsions:
REMARK  status: ('A' for Active; 'I' for Inactive)
REMARK    1  A    between atoms: N_1  and  C_2
REMARK    2  A    between atoms: C_2  and  C_3
REMARK    3  A    between atoms: C_5  and  O_6
REMARK    4  A    between atoms: O_6  and  C_7
REMARK    5  A    between atoms: C_11  and  C_12
REMARK    6  A    between atoms: N_14  and  C_15
REMARK    7  A    between atoms: C_15  and  C_16
REMARK    8  A    between atoms: C_24  and  C_25
REMARK                            x       y       z     vdW  Elec       q    Type
REMARK                         _______ _______ _______ _____ _____    ______ ____
ROOT
ATOM      1  C   UNL     1       1.899   5.013  20.162  0.00  0.00    +0.000 A 
ATOM      2  C   UNL     1       0.893   4.062  19.973  0.00  0.00    +0.000 A 
ATOM      3  C   UNL     1       0.976   3.151  18.921  0.00  0.00    +0.000 A 
ATOM      4  C   UNL     1       2.063   3.197  18.047  0.00  0.00    +0.000 A 
ATOM      5  C   UNL     1       3.099   4.119  18.255  0.00  0.00    +0.000 A 
ATOM      6  C   UNL     1       3.031   5.004  19.339  0.00  0.00    +0.000 A 
ENDROOT
BRANCH   5   7
ATOM      7  C   UNL     1       4.198   4.184  17.249  0.00  0.00    +0.000 C 
ATOM      8  O   UNL     1       4.578   3.160  16.692  0.00  0.00    +0.000 OA
ATOM      9  N   UNL     1       4.735   5.425  16.992  0.00  0.00    +0.000 N 
ATOM     10  H   UNL     1       4.446   6.235  17.522  0.00  0.00    +0.000 HD
BRANCH   9  11
ATOM     11  C   UNL     1       5.816   5.598  16.032  0.00  0.00    +0.000 C 
BRANCH  11  12
ATOM     12  C   UNL     1       7.126   6.033  16.698  0.00  0.00    +0.000 C 
ATOM     13  C   UNL     1       7.211   5.588  18.156  0.00  0.00    +0.000 C 
ATOM     14  C   UNL     1       8.126   6.620  18.805  0.00  0.00    +0.000 C 
ATOM     15  C   UNL     1       7.916   7.845  17.953  0.00  0.00    +0.000 C 
ATOM     16  O   UNL     1       8.312   8.970  18.199  0.00  0.00    +0.000 OA
ATOM     17  N   UNL     1       7.258   7.467  16.801  0.00  0.00    +0.000 N 
ATOM     18  H   UNL     1       7.286   8.103  16.010  0.00  0.00    +0.000 HD
ENDBRANCH  11  12
ENDBRANCH   9  11
ENDBRANCH   5   7
BRANCH   1  19
ATOM     19  O   UNL     1       1.692   5.895  21.202  0.00  0.00    +0.000 OA
BRANCH  19  22
ATOM     20  C   UNL     1       0.447   9.355  21.470  0.00  0.00    +0.000 A 
ATOM     21  C   UNL     1       0.841   8.076  21.870  0.00  0.00    +0.000 A 
ATOM     22  C   UNL     1       1.407   7.217  20.938  0.00  0.00    +0.000 A 
ATOM     23  N   UNL     1       1.750   7.617  19.695  0.00  0.00    +0.000 NA
ATOM     24  C   UNL     1       1.461   8.899  19.329  0.00  0.00    +0.000 A 
ATOM     25  C   UNL     1       0.783   9.775  20.181  0.00  0.00    +0.000 A 
BRANCH  24  26
ATOM     26  C   UNL     1       1.888   9.399  17.954  0.00  0.00    +0.000 C 
ATOM     27  F   UNL     1       2.501  10.615  17.960  0.00  0.00    +0.000 F 
ATOM     28  F   UNL     1       2.755   8.547  17.333  0.00  0.00    +0.000 F 
ATOM     29  F   UNL     1       0.828   9.523  17.099  0.00  0.00    +0.000 F 
ENDBRANCH  24  26
BRANCH  20  30
ATOM     30  C   UNL     1      -0.365  10.222  22.394  0.00  0.00    +0.000 C 
BRANCH  30  31
ATOM     31  N   UNL     1      -0.116   9.853  23.787  0.00  0.00    +0.000 NA
ATOM     32  H   UNL     1       0.210  10.679  24.289  0.00  0.00    +0.000 HD
ATOM     33  H   UNL     1       0.652   9.187  23.827  0.00  0.00    +0.000 HD
ENDBRANCH  30  31
ENDBRANCH  20  30
ENDBRANCH  19  22
ENDBRANCH   1  19
TORSDOF 8
ENDMDL
MODEL 4
REMARK VINA RESULT:      -8.3      5.785      9.573
REMARK  Name = 
REMARK  8 active torsions:
REMARK  status: ('A' for Active; 'I' for Inactive)
REMARK    1  A    between atoms: N_1  and  C_2
REMARK    2  A    between atoms: C_2  and  C_3
REMARK    3  A    between atoms: C_5  and  O_6
REMARK    4  A    between atoms: O_6  and  C_7
REMARK    5  A    between atoms: C_11  and  C_12
REMARK    6  A    between atoms: N_14  and  C_15
REMARK    7  A    between atoms: C_15  and  C_16
REMARK    8  A    between atoms: C_24  and  C_25
REMARK                            x       y       z     vdW  Elec       q    Type
REMARK                         _______ _______ _______ _____ _____    ______ ____
ROOT
ATOM      1  C   UNL     1       0.118  10.323  19.715  0.00  0.00    +0.000 A 
ATOM      2  C   UNL     1      -0.253  10.148  21.051  0.00  0.00    +0.000 A 
ATOM      3  C   UNL     1       0.257   9.081  21.788  0.00  0.00    +0.000 A 
ATOM      4  C   UNL     1       1.133   8.177  21.186  0.00  0.00    +0.000 A 
ATOM      5  C   UNL     1       1.545   8.369  19.860  0.00  0.00    +0.000 A 
ATOM      6  C   UNL     1       1.063   9.467  19.136  0.00  0.00    +0.000 A 
ENDROOT
BRANCH   5   7
ATOM      7  C   UNL     1       2.417   7.332  19.235  0.00  0.00    +0.000 C 
ATOM      8  O   UNL     1       2.668   7.386  18.037  0.00  0.00    +0.000 OA
ATOM      9  N   UNL     1       2.908   6.349  20.065  0.00  0.00    +0.000 N 
ATOM     10  H   UNL     1       2.621   6.295  21.031  0.00  0.00    +0.000 HD
BRANCH   9  11
ATOM     11  C   UNL     1       3.762   5.286  19.555  0.00  0.00    +0.000 C 
BRANCH  11  12
ATOM     12  C   UNL     1       3.163   3.893  19.781  0.00  0.00    +0.000 C 
ATOM     13  C   UNL     1       1.853   3.697  19.023  0.00  0.00    +0.000 C 
ATOM     14  C   UNL     1       1.100   2.661  19.851  0.00  0.00    +0.000 C 
ATOM     15  C   UNL     1       1.642   2.875  21.240  0.00  0.00    +0.000 C 
ATOM     16  O   UNL     1       1.203   2.389  22.267  0.00  0.00    +0.000 OA
ATOM     17  N   UNL     1       2.770   3.663  21.150  0.00  0.00    +0.000 N 
ATOM     18  H   UNL     1       3.404   3.673  21.944  0.00  0.00    +0.000 HD
ENDBRANCH  11  12
ENDBRANCH   9  11
ENDBRANCH   5   7
BRANCH   1  19
ATOM     19  O   UNL     1      -0.484  11.381  19.067  0.00  0.00    +0.000 OA
BRANCH  19  22
ATOM     20  C   UNL     1      -2.880  10.495  16.409  0.00  0.00    +0.000 A 
ATOM     21  C   UNL     1      -1.686  10.518  17.134  0.00  0.00    +0.000 A 
ATOM     22  C   UNL     1      -1.645  11.182  18.352  0.00  0.00    +0.000 A 
ATOM     23  N   UNL     1      -2.752  11.667  18.953  0.00  0.00    +0.000 NA
ATOM     24  C   UNL     1      -3.942  11.558  18.296  0.00  0.00    +0.000 A 
ATOM     25  C   UNL     1      -4.029  11.008  17.014  0.00  0.00    +0.000 A 
BRANCH  24  26
ATOM     26  C   UNL     1      -5.218  12.043  18.973  0.00  0.00    +0.000 C 
ATOM     27  F   UNL     1      -5.981  12.875  18.211  0.00  0.00    +0.000 F 
ATOM     28  F   UNL     1      -6.040  11.016  19.339  0.00  0.00    +0.000 F 
ATOM     29  F   UNL     1      -4.960  12.729  20.126  0.00  0.00    +0.000 F 
ENDBRANCH  24  26
BRANCH  20  30
ATOM     30  C   UNL     1      -2.897   9.980  14.994  0.00  0.00    +0.000 C 
BRANCH  30  31
ATOM     31  N   UNL     1      -4.243  10.081  14.433  0.00  0.00    +0.000 NA
ATOM     32  H   UNL     1      -4.480   9.191  13.993  0.00  0.00    +0.000 HD
ATOM     33  H   UNL     1      -4.244  10.767  13.682  0.00  0.00    +0.000 HD
ENDBRANCH  30  31
ENDBRANCH  20  30
ENDBRANCH  19  22
ENDBRANCH   1  19
TORSDOF 8
ENDMDL
MODEL 5
REMARK VINA RESULT:      -8.3      3.029      8.122
REMARK  Name = 
REMARK  8 active torsions:
REMARK  status: ('A' for Active; 'I' for Inactive)
REMARK    1  A    between atoms: N_1  and  C_2
REMARK    2  A    between atoms: C_2  and  C_3
REMARK    3  A    between atoms: C_5  and  O_6
REMARK    4  A    between atoms: O_6  and  C_7
REMARK    5  A    between atoms: C_11  and  C_12
REMARK    6  A    between atoms: N_14  and  C_15
REMARK    7  A    between atoms: C_15  and  C_16
REMARK    8  A    between atoms: C_24  and  C_25
REMARK                            x       y       z     vdW  Elec       q    Type
REMARK                         _______ _______ _______ _____ _____    ______ ____
ROOT
ATOM      1  C   UNL     1       1.885   5.564  20.413  0.00  0.00    +0.000 A 
ATOM      2  C   UNL     1       0.985   4.511  20.232  0.00  0.00    +0.000 A 
ATOM      3  C   UNL     1       1.161   3.608  19.184  0.00  0.00    +0.000 A 
ATOM      4  C   UNL     1       2.234   3.765  18.306  0.00  0.00    +0.000 A 
ATOM      5  C   UNL     1       3.167   4.792  18.506  0.00  0.00    +0.000 A 
ATOM      6  C   UNL     1       3.009   5.671  19.586  0.00  0.00    +0.000 A 
ENDROOT
BRANCH   5   7
ATOM      7  C   UNL     1       4.250   4.969  17.495  0.00  0.00    +0.000 C 
ATOM      8  O   UNL     1       4.242   5.946  16.755  0.00  0.00    +0.000 OA
ATOM      9  N   UNL     1       5.227   4.000  17.453  0.00  0.00    +0.000 N 
ATOM     10  H   UNL     1       5.162   3.172  18.029  0.00  0.00    +0.000 HD
BRANCH   9  11
ATOM     11  C   UNL     1       6.325   4.073  16.500  0.00  0.00    +0.000 C 
BRANCH  11  12
ATOM     12  C   UNL     1       7.433   5.029  16.955  0.00  0.00    +0.000 C 
ATOM     13  C   UNL     1       7.484   5.176  18.474  0.00  0.00    +0.000 C 
ATOM     14  C   UNL     1       8.074   6.565  18.691  0.00  0.00    +0.000 C 
ATOM     15  C   UNL     1       7.667   7.306  17.445  0.00  0.00    +0.000 C 
ATOM     16  O   UNL     1       7.769   8.505  17.255  0.00  0.00    +0.000 OA
ATOM     17  N   UNL     1       7.222   6.388  16.517  0.00  0.00    +0.000 N 
ATOM     18  H   UNL     1       7.174   6.682  15.546  0.00  0.00    +0.000 HD
ENDBRANCH  11  12
ENDBRANCH   9  11
ENDBRANCH   5   7
BRANCH   1  19
ATOM     19  O   UNL     1       1.588   6.424  21.449  0.00  0.00    +0.000 OA
BRANCH  19  22
ATOM     20  C   UNL     1       0.065   9.769  21.731  0.00  0.00    +0.000 A 
ATOM     21  C   UNL     1       0.591   8.538  22.130  0.00  0.00    +0.000 A 
ATOM     22  C   UNL     1       1.175   7.711  21.181  0.00  0.00    +0.000 A 
ATOM     23  N   UNL     1       1.411   8.112  19.914  0.00  0.00    +0.000 NA
ATOM     24  C   UNL     1       0.991   9.356  19.543  0.00  0.00    +0.000 A 
ATOM     25  C   UNL     1       0.289  10.189  20.419  0.00  0.00    +0.000 A 
BRANCH  24  26
ATOM     26  C   UNL     1       1.295   9.860  18.138  0.00  0.00    +0.000 C 
ATOM     27  F   UNL     1       2.066   9.022  17.390  0.00  0.00    +0.000 F 
ATOM     28  F   UNL     1       0.165  10.079  17.404  0.00  0.00    +0.000 F 
ATOM     29  F   UNL     1       1.956  11.056  18.151  0.00  0.00    +0.000 F 
ENDBRANCH  24  26
BRANCH  20  30
ATOM     30  C   UNL     1      -0.766  10.583  22.687  0.00  0.00    +0.000 C 
BRANCH  30  31
ATOM     31  N   UNL     1      -0.338  11.981  22.671  0.00  0.00    +0.000 NA
ATOM     32  H   UNL     1      -0.870  12.493  23.375  0.00  0.00    +0.000 HD
ATOM     33  H   UNL     1      -0.590  12.400  21.779  0.00  0.00    +0.000 HD
ENDBRANCH  30  31
ENDBRANCH  20  30
ENDBRANCH  19  22
ENDBRANCH   1  19
TORSDOF 8
ENDMDL
MODEL 6
REMARK VINA RESULT:      -8.3      1.909      2.348
REMARK  Name = 
REMARK  8 active torsions:
REMARK  status: ('A' for Active; 'I' for Inactive)
REMARK    1  A    between atoms: N_1  and  C_2
REMARK    2  A    between atoms: C_2  and  C_3
REMARK    3  A    between atoms: C_5  and  O_6
REMARK    4  A    between atoms: O_6  and  C_7
REMARK    5  A    between atoms: C_11  and  C_12
REMARK    6  A    between atoms: N_14  and  C_15
REMARK    7  A    between atoms: C_15  and  C_16
REMARK    8  A    between atoms: C_24  and  C_25
REMARK                            x       y       z     vdW  Elec       q    Type
REMARK                         _______ _______ _______ _____ _____    ______ ____
ROOT
ATOM      1  C   UNL     1       2.730   4.457  18.302  0.00  0.00    +0.000 A 
ATOM      2  C   UNL     1       2.305   3.542  19.269  0.00  0.00    +0.000 A 
ATOM      3  C   UNL     1       1.722   3.992  20.453  0.00  0.00    +0.000 A 
ATOM      4  C   UNL     1       1.573   5.361  20.677  0.00  0.00    +0.000 A 
ATOM      5  C   UNL     1       1.956   6.284  19.694  0.00  0.00    +0.000 A 
ATOM      6  C   UNL     1       2.502   5.826  18.488  0.00  0.00    +0.000 A 
ENDROOT
BRANCH   5   7
ATOM      7  C   UNL     1       1.853   7.738  20.013  0.00  0.00    +0.000 C 
ATOM      8  O   UNL     1       1.820   8.106  21.181  0.00  0.00    +0.000 OA
ATOM      9  N   UNL     1       1.805   8.608  18.946  0.00  0.00    +0.000 N 
ATOM     10  H   UNL     1       1.762   8.263  17.998  0.00  0.00    +0.000 HD
BRANCH   9  11
ATOM     11  C   UNL     1       1.698  10.045  19.147  0.00  0.00    +0.000 C 
BRANCH  11  12
ATOM     12  C   UNL     1       0.377  10.614  18.617  0.00  0.00    +0.000 C 
ATOM     13  C   UNL     1      -0.768  10.443  19.612  0.00  0.00    +0.000 C 
ATOM     14  C   UNL     1      -2.015  10.389  18.736  0.00  0.00    +0.000 C 
ATOM     15  C   UNL     1      -1.491   9.847  17.432  0.00  0.00    +0.000 C 
ATOM     16  O   UNL     1      -2.161   9.470  16.488  0.00  0.00    +0.000 OA
ATOM     17  N   UNL     1      -0.113   9.913  17.454  0.00  0.00    +0.000 N 
ATOM     18  H   UNL     1       0.378   9.851  16.567  0.00  0.00    +0.000 HD
ENDBRANCH  11  12
ENDBRANCH   9  11
ENDBRANCH   5   7
BRANCH   1  19
ATOM     19  O   UNL     1       3.336   3.906  17.192  0.00  0.00    +0.000 OA
BRANCH  19  22
ATOM     20  C   UNL     1       6.385   4.617  15.246  0.00  0.00    +0.000 A 
ATOM     21  C   UNL     1       5.042   4.340  15.511  0.00  0.00    +0.000 A 
ATOM     22  C   UNL     1       4.602   4.309  16.826  0.00  0.00    +0.000 A 
ATOM     23  N   UNL     1       5.376   4.700  17.861  0.00  0.00    +0.000 NA
ATOM     24  C   UNL     1       6.662   5.071  17.599  0.00  0.00    +0.000 A 
ATOM     25  C   UNL     1       7.200   5.008  16.311  0.00  0.00    +0.000 A 
BRANCH  24  26
ATOM     26  C   UNL     1       7.542   5.573  18.737  0.00  0.00    +0.000 C 
ATOM     27  F   UNL     1       8.032   6.832  18.560  0.00  0.00    +0.000 F 
ATOM     28  F   UNL     1       6.890   5.592  19.935  0.00  0.00    +0.000 F 
ATOM     29  F   UNL     1       8.636   4.776  18.932  0.00  0.00    +0.000 F 
ENDBRANCH  24  26
BRANCH  20  30
ATOM     30  C   UNL     1       6.936   4.439  13.857  0.00  0.00    +0.000 C 
BRANCH  30  31
ATOM     31  N   UNL     1       6.175   3.421  13.135  0.00  0.00    +0.000 NA
ATOM     32  H   UNL     1       6.288   3.579  12.133  0.00  0.00    +0.000 HD
ATOM     33  H   UNL     1       5.183   3.546  13.321  0.00  0.00    +0.000 HD
ENDBRANCH  30  31
ENDBRANCH  20  30
ENDBRANCH  19  22
ENDBRANCH   1  19
TORSDOF 8
ENDMDL
MODEL 7
REMARK VINA RESULT:      -8.2      2.200      2.820
REMARK  Name = 
REMARK  8 active torsions:
REMARK  status: ('A' for Active; 'I' for Inactive)
REMARK    1  A    between atoms: N_1  and  C_2
REMARK    2  A    between atoms: C_2  and  C_3
REMARK    3  A    between atoms: C_5  and  O_6
REMARK    4  A    between atoms: O_6  and  C_7
REMARK    5  A    between atoms: C_11  and  C_12
REMARK    6  A    between atoms: N_14  and  C_15
REMARK    7  A    between atoms: C_15  and  C_16
REMARK    8  A    between atoms: C_24  and  C_25
REMARK                            x       y       z     vdW  Elec       q    Type
REMARK                         _______ _______ _______ _____ _____    ______ ____
ROOT
ATOM      1  C   UNL     1       3.562   4.266  19.341  0.00  0.00    +0.000 A 
ATOM      2  C   UNL     1       2.589   3.358  19.766  0.00  0.00    +0.000 A 
ATOM      3  C   UNL     1       1.406   3.814  20.344  0.00  0.00    +0.000 A 
ATOM      4  C   UNL     1       1.197   5.183  20.508  0.00  0.00    +0.000 A 
ATOM      5  C   UNL     1       2.147   6.105  20.044  0.00  0.00    +0.000 A 
ATOM      6  C   UNL     1       3.316   5.642  19.426  0.00  0.00    +0.000 A 
ENDROOT
BRANCH   5   7
ATOM      7  C   UNL     1       1.916   7.553  20.315  0.00  0.00    +0.000 C 
ATOM      8  O   UNL     1       1.950   8.360  19.394  0.00  0.00    +0.000 OA
ATOM      9  N   UNL     1       1.668   7.911  21.622  0.00  0.00    +0.000 N 
ATOM     10  H   UNL     1       1.719   7.229  22.365  0.00  0.00    +0.000 HD
BRANCH   9  11
ATOM     11  C   UNL     1       1.436   9.298  21.995  0.00  0.00    +0.000 C 
BRANCH  11  12
ATOM     12  C   UNL     1      -0.022   9.725  21.791  0.00  0.00    +0.000 C 
ATOM     13  C   UNL     1      -0.157  10.855  20.773  0.00  0.00    +0.000 C 
ATOM     14  C   UNL     1      -1.432  11.579  21.194  0.00  0.00    +0.000 C 
ATOM     15  C   UNL     1      -1.507  11.305  22.673  0.00  0.00    +0.000 C 
ATOM     16  O   UNL     1      -2.268  11.831  23.465  0.00  0.00    +0.000 OA
ATOM     17  N   UNL     1      -0.613  10.299  22.976  0.00  0.00    +0.000 N 
ATOM     18  H   UNL     1      -0.734   9.809  23.858  0.00  0.00    +0.000 HD
ENDBRANCH  11  12
ENDBRANCH   9  11
ENDBRANCH   5   7
BRANCH   1  19
ATOM     19  O   UNL     1       4.713   3.705  18.829  0.00  0.00    +0.000 OA
BRANCH  19  22
ATOM     20  C   UNL     1       7.019   6.225  17.443  0.00  0.00    +0.000 A 
ATOM     21  C   UNL     1       6.362   5.442  18.395  0.00  0.00    +0.000 A 
ATOM     22  C   UNL     1       5.511   4.431  17.972  0.00  0.00    +0.000 A 
ATOM     23  N   UNL     1       5.415   4.055  16.679  0.00  0.00    +0.000 NA
ATOM     24  C   UNL     1       6.134   4.750  15.751  0.00  0.00    +0.000 A 
ATOM     25  C   UNL     1       6.915   5.856  16.100  0.00  0.00    +0.000 A 
BRANCH  24  26
ATOM     26  C   UNL     1       6.093   4.314  14.292  0.00  0.00    +0.000 C 
ATOM     27  F   UNL     1       4.888   4.494  13.682  0.00  0.00    +0.000 F 
ATOM     28  F   UNL     1       7.004   4.976  13.521  0.00  0.00    +0.000 F 
ATOM     29  F   UNL     1       6.388   2.988  14.142  0.00  0.00    +0.000 F 
ENDBRANCH  24  26
BRANCH  20  30
ATOM     30  C   UNL     1       7.767   7.462  17.864  0.00  0.00    +0.000 C 
BRANCH  30  31
ATOM     31  N   UNL     1       8.517   7.208  19.093  0.00  0.00    +0.000 NA
ATOM     32  H   UNL     1       8.235   6.300  19.465  0.00  0.00    +0.000 HD
ATOM     33  H   UNL     1       8.247   7.889  19.799  0.00  0.00    +0.000 HD
ENDBRANCH  30  31
ENDBRANCH  20  30
ENDBRANCH  19  22
ENDBRANCH   1  19
TORSDOF 8
ENDMDL
MODEL 8
REMARK VINA RESULT:      -8.2      3.650      9.224
REMARK  Name = 
REMARK  8 active torsions:
REMARK  status: ('A' for Active; 'I' for Inactive)
REMARK    1  A    between atoms: N_1  and  C_2
REMARK    2  A    between atoms: C_2  and  C_3
REMARK    3  A    between atoms: C_5  and  O_6
REMARK    4  A    between atoms: O_6  and  C_7
REMARK    5  A    between atoms: C_11  and  C_12
REMARK    6  A    between atoms: N_14  and  C_15
REMARK    7  A    between atoms: C_15  and  C_16
REMARK    8  A    between atoms: C_24  and  C_25
REMARK                            x       y       z     vdW  Elec       q    Type
REMARK                         _______ _______ _______ _____ _____    ______ ____
ROOT
ATOM      1  C   UNL     1       2.489   7.411  18.905  0.00  0.00    +0.000 A 
ATOM      2  C   UNL     1       1.915   6.881  20.063  0.00  0.00    +0.000 A 
ATOM      3  C   UNL     1       1.996   5.514  20.325  0.00  0.00    +0.000 A 
ATOM      4  C   UNL     1       2.643   4.671  19.420  0.00  0.00    +0.000 A 
ATOM      5  C   UNL     1       3.260   5.200  18.277  0.00  0.00    +0.000 A 
ATOM      6  C   UNL     1       3.212   6.580  18.041  0.00  0.00    +0.000 A 
ENDROOT
BRANCH   5   7
ATOM      7  C   UNL     1       3.867   4.251  17.300  0.00  0.00    +0.000 C 
ATOM      8  O   UNL     1       3.361   3.149  17.123  0.00  0.00    +0.000 OA
ATOM      9  N   UNL     1       4.990   4.681  16.630  0.00  0.00    +0.000 N 
ATOM     10  H   UNL     1       5.420   5.567  16.854  0.00  0.00    +0.000 HD
BRANCH   9  11
ATOM     11  C   UNL     1       5.664   3.830  15.660  0.00  0.00    +0.000 C 
BRANCH  11  12
ATOM     12  C   UNL     1       6.015   4.578  14.369  0.00  0.00    +0.000 C 
ATOM     13  C   UNL     1       6.251   3.629  13.196  0.00  0.00    +0.000 C 
ATOM     14  C   UNL     1       7.207   4.395  12.288  0.00  0.00    +0.000 C 
ATOM     15  C   UNL     1       7.942   5.293  13.248  0.00  0.00    +0.000 C 
ATOM     16  O   UNL     1       8.927   5.963  12.996  0.00  0.00    +0.000 OA
ATOM     17  N   UNL     1       7.268   5.289  14.451  0.00  0.00    +0.000 N 
ATOM     18  H   UNL     1       7.464   6.041  15.105  0.00  0.00    +0.000 HD
ENDBRANCH  11  12
ENDBRANCH   9  11
ENDBRANCH   5   7
BRANCH   1  19
ATOM     19  O   UNL     1       2.308   8.766  18.722  0.00  0.00    +0.000 OA
BRANCH  19  22
ATOM     20  C   UNL     1      -0.826  10.698  18.906  0.00  0.00    +0.000 A 
ATOM     21  C   UNL     1       0.227   9.972  18.345  0.00  0.00    +0.000 A 
ATOM     22  C   UNL     1       1.161   9.377  19.181  0.00  0.00    +0.000 A 
ATOM     23  N   UNL     1       1.009   9.326  20.521  0.00  0.00    +0.000 NA
ATOM     24  C   UNL     1      -0.074   9.947  21.071  0.00  0.00    +0.000 A 
ATOM     25  C   UNL     1      -0.986  10.665  20.293  0.00  0.00    +0.000 A 
BRANCH  24  26
ATOM     26  C   UNL     1      -0.305   9.857  22.574  0.00  0.00    +0.000 C 
ATOM     27  F   UNL     1      -0.913  10.947  23.119  0.00  0.00    +0.000 F 
ATOM     28  F   UNL     1      -1.078   8.787  22.922  0.00  0.00    +0.000 F 
ATOM     29  F   UNL     1       0.863   9.701  23.267  0.00  0.00    +0.000 F 
ENDBRANCH  24  26
BRANCH  20  30
ATOM     30  C   UNL     1      -1.721  11.533  18.030  0.00  0.00    +0.000 C 
BRANCH  30  31
ATOM     31  N   UNL     1      -1.057  12.786  17.672  0.00  0.00    +0.000 NA
ATOM     32  H   UNL     1      -0.775  12.736  16.692  0.00  0.00    +0.000 HD
ATOM     33  H   UNL     1      -0.193  12.872  18.202  0.00  0.00    +0.000 HD
ENDBRANCH  30  31
ENDBRANCH  20  30
ENDBRANCH  19  22
ENDBRANCH   1  19
TORSDOF 8
ENDMDL
MODEL 9
REMARK VINA RESULT:      -8.2      2.178      2.778
REMARK  Name = 
REMARK  8 active torsions:
REMARK  status: ('A' for Active; 'I' for Inactive)
REMARK    1  A    between atoms: N_1  and  C_2
REMARK    2  A    between atoms: C_2  and  C_3
REMARK    3  A    between atoms: C_5  and  O_6
REMARK    4  A    between atoms: O_6  and  C_7
REMARK    5  A    between atoms: C_11  and  C_12
REMARK    6  A    between atoms: N_14  and  C_15
REMARK    7  A    between atoms: C_15  and  C_16
REMARK    8  A    between atoms: C_24  and  C_25
REMARK                            x       y       z     vdW  Elec       q    Type
REMARK                         _______ _______ _______ _____ _____    ______ ____
ROOT
ATOM      1  C   UNL     1       3.603   4.329  19.589  0.00  0.00    +0.000 A 
ATOM      2  C   UNL     1       2.672   3.469  20.177  0.00  0.00    +0.000 A 
ATOM      3  C   UNL     1       1.499   3.977  20.733  0.00  0.00    +0.000 A 
ATOM      4  C   UNL     1       1.259   5.351  20.711  0.00  0.00    +0.000 A 
ATOM      5  C   UNL     1       2.165   6.217  20.085  0.00  0.00    +0.000 A 
ATOM      6  C   UNL     1       3.323   5.697  19.490  0.00  0.00    +0.000 A 
ENDROOT
BRANCH   5   7
ATOM      7  C   UNL     1       1.906   7.684  20.159  0.00  0.00    +0.000 C 
ATOM      8  O   UNL     1       2.044   8.381  19.159  0.00  0.00    +0.000 OA
ATOM      9  N   UNL     1       1.512   8.186  21.379  0.00  0.00    +0.000 N 
ATOM     10  H   UNL     1       1.479   7.595  22.197  0.00  0.00    +0.000 HD
BRANCH   9  11
ATOM     11  C   UNL     1       1.240   9.605  21.561  0.00  0.00    +0.000 C 
BRANCH  11  12
ATOM     12  C   UNL     1      -0.203   9.976  21.200  0.00  0.00    +0.000 C 
ATOM     13  C   UNL     1      -0.294  10.724  19.873  0.00  0.00    +0.000 C 
ATOM     14  C   UNL     1      -1.553  11.573  20.012  0.00  0.00    +0.000 C 
ATOM     15  C   UNL     1      -1.654  11.788  21.500  0.00  0.00    +0.000 C 
ATOM     16  O   UNL     1      -2.411  12.557  22.066  0.00  0.00    +0.000 OA
ATOM     17  N   UNL     1      -0.793  10.912  22.127  0.00  0.00    +0.000 N 
ATOM     18  H   UNL     1      -0.939  10.733  23.116  0.00  0.00    +0.000 HD
ENDBRANCH  11  12
ENDBRANCH   9  11
ENDBRANCH   5   7
BRANCH   1  19
ATOM     19  O   UNL     1       4.749   3.726  19.115  0.00  0.00    +0.000 OA
BRANCH  19  22
ATOM     20  C   UNL     1       7.308   6.122  17.975  0.00  0.00    +0.000 A 
ATOM     21  C   UNL     1       6.560   5.331  18.850  0.00  0.00    +0.000 A 
ATOM     22  C   UNL     1       5.630   4.440  18.332  0.00  0.00    +0.000 A 
ATOM     23  N   UNL     1       5.529   4.180  17.012  0.00  0.00    +0.000 NA
ATOM     24  C   UNL     1       6.330   4.877  16.155  0.00  0.00    +0.000 A 
ATOM     25  C   UNL     1       7.201   5.873  16.605  0.00  0.00    +0.000 A 
BRANCH  24  26
ATOM     26  C   UNL     1       6.282   4.564  14.665  0.00  0.00    +0.000 C 
ATOM     27  F   UNL     1       7.279   5.138  13.934  0.00  0.00    +0.000 F 
ATOM     28  F   UNL     1       6.356   3.226  14.407  0.00  0.00    +0.000 F 
ATOM     29  F   UNL     1       5.115   4.981  14.088  0.00  0.00    +0.000 F 
ENDBRANCH  24  26
BRANCH  20  30
ATOM     30  C   UNL     1       8.156   7.246  18.507  0.00  0.00    +0.000 C 
BRANCH  30  31
ATOM     31  N   UNL     1       7.959   8.454  17.708  0.00  0.00    +0.000 NA
ATOM     32  H   UNL     1       8.838   8.973  17.679  0.00  0.00    +0.000 HD
ATOM     33  H   UNL     1       7.296   9.065  18.178  0.00  0.00    +0.000 HD
ENDBRANCH  30  31
ENDBRANCH  20  30
ENDBRANCH  19  22
ENDBRANCH   1  19
TORSDOF 8
ENDMDL
