MODEL 1
REMARK VINA RESULT:      -8.9      0.000      0.000
REMARK  Name = 
REMARK  6 active torsions:
REMARK  status: ('A' for Active; 'I' for Inactive)
REMARK    1  A    between atoms: C_1  and  C_2
REMARK    2  A    between atoms: N_7  and  C_8
REMARK    3  A    between atoms: C_15  and  C_16
REMARK    4  A    between atoms: N_18  and  C_19
REMARK    5  A    between atoms: C_22  and  C_23
REMARK    6  A    between atoms: C_25  and  C_26
REMARK                            x       y       z     vdW  Elec       q    Type
REMARK                         _______ _______ _______ _____ _____    ______ ____
ROOT
ATOM      1  C   UNL     1       1.185   9.301  17.754  0.00  0.00    +0.000 C 
ATOM      2  C   UNL     1       1.186   9.541  19.266  0.00  0.00    +0.000 C 
ATOM      3  C   UNL     1      -0.252   9.992  19.653  0.00  0.00    +0.000 C 
ATOM      4  N   UNL     1      -0.387  10.320  21.086  0.00  0.00    +0.000 N 
ATOM      5  C   UNL     1      -1.066  11.507  21.361  0.00  0.00    +0.000 C 
ATOM      6  O   UNL     1      -1.547  12.187  20.456  0.00  0.00    +0.000 OA
ATOM      7  N   UNL     1      -1.095  11.903  22.669  0.00  0.00    +0.000 N 
ATOM      8  C   UNL     1       0.002   9.159  21.950  0.00  0.00    +0.000 C 
ATOM      9  C   UNL     1      -0.113   9.264  23.470  0.00  0.00    +0.000 C 
ATOM     10  C   UNL     1       1.449   8.701  21.591  0.00  0.00    +0.000 C 
ATOM     11  N   UNL     1       1.582   8.395  20.144  0.00  0.00    +0.000 N 
ATOM     12  H   UNL     1      -0.397  11.492  23.256  0.00  0.00    +0.000 HD
ENDROOT
BRANCH   7  13
ATOM     13  C   UNL     1      -1.691  13.073  23.198  0.00  0.00    +0.000 A 
ATOM     14  C   UNL     1      -1.035  14.286  23.399  0.00  0.00    +0.000 A 
ATOM     15  C   UNL     1      -1.721  15.357  23.978  0.00  0.00    +0.000 A 
ATOM     16  C   UNL     1      -3.048  15.174  24.325  0.00  0.00    +0.000 A 
ATOM     17 CL   UNL     1      -3.954  16.430  25.060  0.00  0.00    +0.000 Cl
ATOM     18  N   UNL     1      -3.733  14.032  24.127  0.00  0.00    +0.000 NA
ATOM     19  C   UNL     1      -3.038  13.016  23.565  0.00  0.00    +0.000 A 
ENDBRANCH   7  13
BRANCH  11  20
ATOM     20  C   UNL     1       2.064   7.168  19.735  0.00  0.00    +0.000 A 
ATOM     21  C   UNL     1       2.748   6.983  18.530  0.00  0.00    +0.000 A 
ATOM     22  C   UNL     1       3.094   5.724  18.029  0.00  0.00    +0.000 A 
ATOM     23  C   UNL     1       2.868   4.585  18.787  0.00  0.00    +0.000 A 
ATOM     24  C   UNL     1       2.298   4.719  20.059  0.00  0.00    +0.000 A 
ATOM     25  C   UNL     1       1.896   6.006  20.500  0.00  0.00    +0.000 A 
BRANCH  24  26
ATOM     26  C   UNL     1       2.093   3.562  21.001  0.00  0.00    +0.000 C 
ATOM     27  F   UNL     1       2.966   2.534  20.856  0.00  0.00    +0.000 F 
ATOM     28  F   UNL     1       2.194   3.950  22.304  0.00  0.00    +0.000 F 
ATOM     29  F   UNL     1       0.852   3.017  20.875  0.00  0.00    +0.000 F 
ENDBRANCH  24  26
BRANCH  23  30
ATOM     30  C   UNL     1       3.248   3.323  18.222  0.00  0.00    +0.000 C 
ATOM     31  N   UNL     1       3.513   2.306  17.735  0.00  0.00    +0.000 NA
ENDBRANCH  23  30
ENDBRANCH  11  20
TORSDOF 4
ENDMDL
MODEL 2
REMARK VINA RESULT:      -8.6      0.599      1.094
REMARK  Name = 
REMARK  6 active torsions:
REMARK  status: ('A' for Active; 'I' for Inactive)
REMARK    1  A    between atoms: C_1  and  C_2
REMARK    2  A    between atoms: N_7  and  C_8
REMARK    3  A    between atoms: C_15  and  C_16
REMARK    4  A    between atoms: N_18  and  C_19
REMARK    5  A    between atoms: C_22  and  C_23
REMARK    6  A    between atoms: C_25  and  C_26
REMARK                            x       y       z     vdW  Elec       q    Type
REMARK                         _______ _______ _______ _____ _____    ______ ____
ROOT
ATOM      1  C   UNL     1       1.020   9.471  17.742  0.00  0.00    +0.000 C 
ATOM      2  C   UNL     1       1.056   9.680  19.258  0.00  0.00    +0.000 C 
ATOM      3  C   UNL     1      -0.393  10.031  19.700  0.00  0.00    +0.000 C 
ATOM      4  N   UNL     1      -0.501  10.320  21.144  0.00  0.00    +0.000 N 
ATOM      5  C   UNL     1      -1.245  11.455  21.466  0.00  0.00    +0.000 C 
ATOM      6  O   UNL     1      -1.798  12.121  20.593  0.00  0.00    +0.000 OA
ATOM      7  N   UNL     1      -1.256  11.822  22.784  0.00  0.00    +0.000 N 
ATOM      8  C   UNL     1      -0.012   9.169  21.969  0.00  0.00    +0.000 C 
ATOM      9  C   UNL     1      -0.082   9.236  23.494  0.00  0.00    +0.000 C 
ATOM     10  C   UNL     1       1.449   8.812  21.555  0.00  0.00    +0.000 C 
ATOM     11  N   UNL     1       1.553   8.544  20.098  0.00  0.00    +0.000 N 
ATOM     12  H   UNL     1      -0.514  11.445  23.339  0.00  0.00    +0.000 HD
ENDROOT
BRANCH   7  13
ATOM     13  C   UNL     1      -1.906  12.941  23.357  0.00  0.00    +0.000 A 
ATOM     14  C   UNL     1      -3.242  12.975  23.752  0.00  0.00    +0.000 A 
ATOM     15  C   UNL     1      -3.783  14.159  24.262  0.00  0.00    +0.000 A 
ATOM     16  C   UNL     1      -2.958  15.265  24.365  0.00  0.00    +0.000 A 
ATOM     17 CL   UNL     1      -3.551  16.761  24.958  0.00  0.00    +0.000 Cl
ATOM     18  N   UNL     1      -1.656  15.274  24.023  0.00  0.00    +0.000 NA
ATOM     19  C   UNL     1      -1.165  14.112  23.534  0.00  0.00    +0.000 A 
ENDBRANCH   7  13
BRANCH  11  20
ATOM     20  C   UNL     1       2.098   7.359  19.647  0.00  0.00    +0.000 A 
ATOM     21  C   UNL     1       2.854   7.267  18.474  0.00  0.00    +0.000 A 
ATOM     22  C   UNL     1       3.269   6.052  17.921  0.00  0.00    +0.000 A 
ATOM     23  C   UNL     1       3.040   4.863  18.597  0.00  0.00    +0.000 A 
ATOM     24  C   UNL     1       2.395   4.903  19.840  0.00  0.00    +0.000 A 
ATOM     25  C   UNL     1       1.926   6.148  20.331  0.00  0.00    +0.000 A 
BRANCH  24  26
ATOM     26  C   UNL     1       2.177   3.685  20.700  0.00  0.00    +0.000 C 
ATOM     27  F   UNL     1       1.238   2.818  20.249  0.00  0.00    +0.000 F 
ATOM     28  F   UNL     1       3.319   2.955  20.836  0.00  0.00    +0.000 F 
ATOM     29  F   UNL     1       1.800   4.018  21.965  0.00  0.00    +0.000 F 
ENDBRANCH  24  26
BRANCH  23  30
ATOM     30  C   UNL     1       3.492   3.649  17.983  0.00  0.00    +0.000 C 
ATOM     31  N   UNL     1       3.854   2.646  17.532  0.00  0.00    +0.000 NA
ENDBRANCH  23  30
ENDBRANCH  11  20
TORSDOF 4
ENDMDL
MODEL 3
REMARK VINA RESULT:      -8.6      1.805      2.276
REMARK  Name = 
REMARK  6 active torsions:
REMARK  status: ('A' for Active; 'I' for Inactive)
REMARK    1  A    between atoms: C_1  and  C_2
REMARK    2  A    between atoms: N_7  and  C_8
REMARK    3  A    between atoms: C_15  and  C_16
REMARK    4  A    between atoms: N_18  and  C_19
REMARK    5  A    between atoms: C_22  and  C_23
REMARK    6  A    between atoms: C_25  and  C_26
REMARK                            x       y       z     vdW  Elec       q    Type
REMARK                         _______ _______ _______ _____ _____    ______ ____
ROOT
ATOM      1  C   UNL     1       1.147   9.214  17.899  0.00  0.00    +0.000 C 
ATOM      2  C   UNL     1       1.151   9.516  19.400  0.00  0.00    +0.000 C 
ATOM      3  C   UNL     1      -0.276  10.015  19.765  0.00  0.00    +0.000 C 
ATOM      4  N   UNL     1      -0.406  10.404  21.184  0.00  0.00    +0.000 N 
ATOM      5  C   UNL     1      -1.059  11.616  21.407  0.00  0.00    +0.000 C 
ATOM      6  O   UNL     1      -1.524  12.269  20.474  0.00  0.00    +0.000 OA
ATOM      7  N   UNL     1      -1.081  12.067  22.698  0.00  0.00    +0.000 N 
ATOM      8  C   UNL     1      -0.044   9.271  22.095  0.00  0.00    +0.000 C 
ATOM      9  C   UNL     1      -0.158   9.442  23.609  0.00  0.00    +0.000 C 
ATOM     10  C   UNL     1       1.393   8.768  21.759  0.00  0.00    +0.000 C 
ATOM     11  N   UNL     1       1.521   8.399  20.326  0.00  0.00    +0.000 N 
ATOM     12  H   UNL     1      -0.393  11.665  23.303  0.00  0.00    +0.000 HD
ENDROOT
BRANCH   7  13
ATOM     13  C   UNL     1      -1.651  13.270  23.177  0.00  0.00    +0.000 A 
ATOM     14  C   UNL     1      -0.998  14.499  23.234  0.00  0.00    +0.000 A 
ATOM     15  C   UNL     1      -1.654  15.608  23.777  0.00  0.00    +0.000 A 
ATOM     16  C   UNL     1      -2.950  15.443  24.234  0.00  0.00    +0.000 A 
ATOM     17 CL   UNL     1      -3.815  16.747  24.934  0.00  0.00    +0.000 Cl
ATOM     18  N   UNL     1      -3.632  14.285  24.177  0.00  0.00    +0.000 NA
ATOM     19  C   UNL     1      -2.967  13.233  23.646  0.00  0.00    +0.000 A 
ENDBRANCH   7  13
BRANCH  11  20
ATOM     20  C   UNL     1       1.976   7.146  19.969  0.00  0.00    +0.000 A 
ATOM     21  C   UNL     1       1.552   5.974  20.604  0.00  0.00    +0.000 A 
ATOM     22  C   UNL     1       2.125   4.721  20.366  0.00  0.00    +0.000 A 
ATOM     23  C   UNL     1       3.085   4.570  19.377  0.00  0.00    +0.000 A 
ATOM     24  C   UNL     1       3.462   5.687  18.621  0.00  0.00    +0.000 A 
ATOM     25  C   UNL     1       2.910   6.953  18.942  0.00  0.00    +0.000 A 
BRANCH  24  26
ATOM     26  C   UNL     1       4.426   5.617  17.465  0.00  0.00    +0.000 C 
ATOM     27  F   UNL     1       5.703   5.301  17.792  0.00  0.00    +0.000 F 
ATOM     28  F   UNL     1       4.040   4.690  16.544  0.00  0.00    +0.000 F 
ATOM     29  F   UNL     1       4.496   6.798  16.791  0.00  0.00    +0.000 F 
ENDBRANCH  24  26
BRANCH  23  30
ATOM     30  C   UNL     1       3.633   3.260  19.176  0.00  0.00    +0.000 C 
ATOM     31  N   UNL     1       4.079   2.197  19.065  0.00  0.00    +0.000 NA
ENDBRANCH  23  30
ENDBRANCH  11  20
TORSDOF 4
ENDMDL
MODEL 4
REMARK VINA RESULT:      -8.5      1.937      2.471
REMARK  Name = 
REMARK  6 active torsions:
REMARK  status: ('A' for Active; 'I' for Inactive)
REMARK    1  A    between atoms: C_1  and  C_2
REMARK    2  A    between atoms: N_7  and  C_8
REMARK    3  A    between atoms: C_15  and  C_16
REMARK    4  A    between atoms: N_18  and  C_19
REMARK    5  A    between atoms: C_22  and  C_23
REMARK    6  A    between atoms: C_25  and  C_26
REMARK                            x       y       z     vdW  Elec       q    Type
REMARK                         _______ _______ _______ _____ _____    ______ ____
ROOT
ATOM      1  C   UNL     1       1.493   9.026  17.776  0.00  0.00    +0.000 C 
ATOM      2  C   UNL     1       1.429   9.347  19.272  0.00  0.00    +0.000 C 
ATOM      3  C   UNL     1       0.027   9.962  19.543  0.00  0.00    +0.000 C 
ATOM      4  N   UNL     1      -0.158  10.380  20.947  0.00  0.00    +0.000 N 
ATOM      5  C   UNL     1      -0.724  11.642  21.119  0.00  0.00    +0.000 C 
ATOM      6  O   UNL     1      -1.078  12.317  20.154  0.00  0.00    +0.000 OA
ATOM      7  N   UNL     1      -0.789  12.111  22.403  0.00  0.00    +0.000 N 
ATOM      8  C   UNL     1       0.056   9.234  21.889  0.00  0.00    +0.000 C 
ATOM      9  C   UNL     1      -0.137   9.434  23.392  0.00  0.00    +0.000 C 
ATOM     10  C   UNL     1       1.466   8.614  21.647  0.00  0.00    +0.000 C 
ATOM     11  N   UNL     1       1.652   8.216  20.228  0.00  0.00    +0.000 N 
ATOM     12  H   UNL     1      -0.174  11.664  23.052  0.00  0.00    +0.000 HD
ENDROOT
BRANCH   7  13
ATOM     13  C   UNL     1      -1.290  13.362  22.835  0.00  0.00    +0.000 A 
ATOM     14  C   UNL     1      -2.545  13.570  23.402  0.00  0.00    +0.000 A 
ATOM     15  C   UNL     1      -2.945  14.866  23.744  0.00  0.00    +0.000 A 
ATOM     16  C   UNL     1      -2.062  15.906  23.512  0.00  0.00    +0.000 A 
ATOM     17 CL   UNL     1      -2.485  17.526  23.881  0.00  0.00    +0.000 Cl
ATOM     18  N   UNL     1      -0.830  15.753  22.992  0.00  0.00    +0.000 NA
ATOM     19  C   UNL     1      -0.476  14.486  22.673  0.00  0.00    +0.000 A 
ENDBRANCH   7  13
BRANCH  11  20
ATOM     20  C   UNL     1       2.026   6.926  19.911  0.00  0.00    +0.000 A 
ATOM     21  C   UNL     1       1.571   5.808  20.617  0.00  0.00    +0.000 A 
ATOM     22  C   UNL     1       2.068   4.517  20.413  0.00  0.00    +0.000 A 
ATOM     23  C   UNL     1       2.974   4.271  19.393  0.00  0.00    +0.000 A 
ATOM     24  C   UNL     1       3.374   5.332  18.571  0.00  0.00    +0.000 A 
ATOM     25  C   UNL     1       2.902   6.639  18.856  0.00  0.00    +0.000 A 
BRANCH  24  26
ATOM     26  C   UNL     1       4.281   5.161  17.380  0.00  0.00    +0.000 C 
ATOM     27  F   UNL     1       3.921   4.183  16.513  0.00  0.00    +0.000 F 
ATOM     28  F   UNL     1       4.357   6.302  16.639  0.00  0.00    +0.000 F 
ATOM     29  F   UNL     1       5.560   4.878  17.752  0.00  0.00    +0.000 F 
ENDBRANCH  24  26
BRANCH  23  30
ATOM     30  C   UNL     1       3.445   2.927  19.230  0.00  0.00    +0.000 C 
ATOM     31  N   UNL     1       3.873   1.858  19.110  0.00  0.00    +0.000 NA
ENDBRANCH  23  30
ENDBRANCH  11  20
TORSDOF 4
ENDMDL
MODEL 5
REMARK VINA RESULT:      -8.3      0.811      1.279
REMARK  Name = 
REMARK  6 active torsions:
REMARK  status: ('A' for Active; 'I' for Inactive)
REMARK    1  A    between atoms: C_1  and  C_2
REMARK    2  A    between atoms: N_7  and  C_8
REMARK    3  A    between atoms: C_15  and  C_16
REMARK    4  A    between atoms: N_18  and  C_19
REMARK    5  A    between atoms: C_22  and  C_23
REMARK    6  A    between atoms: C_25  and  C_26
REMARK                            x       y       z     vdW  Elec       q    Type
REMARK                         _______ _______ _______ _____ _____    ______ ____
ROOT
ATOM      1  C   UNL     1       1.831   9.104  17.714  0.00  0.00    +0.000 C 
ATOM      2  C   UNL     1       1.585   9.300  19.212  0.00  0.00    +0.000 C 
ATOM      3  C   UNL     1       0.138   9.848  19.365  0.00  0.00    +0.000 C 
ATOM      4  N   UNL     1      -0.223  10.144  20.766  0.00  0.00    +0.000 N 
ATOM      5  C   UNL     1      -0.855  11.370  20.968  0.00  0.00    +0.000 C 
ATOM      6  O   UNL     1      -1.123  12.111  20.023  0.00  0.00    +0.000 OA
ATOM      7  N   UNL     1      -1.084  11.731  22.267  0.00  0.00    +0.000 N 
ATOM      8  C   UNL     1      -0.072   8.933  21.635  0.00  0.00    +0.000 C 
ATOM      9  C   UNL     1      -0.442   9.003  23.116  0.00  0.00    +0.000 C 
ATOM     10  C   UNL     1       1.380   8.377  21.512  0.00  0.00    +0.000 C 
ATOM     11  N   UNL     1       1.742   8.103  20.098  0.00  0.00    +0.000 N 
ATOM     12  H   UNL     1      -0.529  11.252  22.948  0.00  0.00    +0.000 HD
ENDROOT
BRANCH   7  13
ATOM     13  C   UNL     1      -1.680  12.927  22.734  0.00  0.00    +0.000 A 
ATOM     14  C   UNL     1      -3.046  13.119  22.927  0.00  0.00    +0.000 A 
ATOM     15  C   UNL     1      -3.518  14.367  23.346  0.00  0.00    +0.000 A 
ATOM     16  C   UNL     1      -2.596  15.375  23.565  0.00  0.00    +0.000 A 
ATOM     17 CL   UNL     1      -3.095  16.940  24.057  0.00  0.00    +0.000 Cl
ATOM     18  N   UNL     1      -1.266  15.232  23.418  0.00  0.00    +0.000 NA
ATOM     19  C   UNL     1      -0.844  14.012  23.012  0.00  0.00    +0.000 A 
ENDBRANCH   7  13
BRANCH  11  20
ATOM     20  C   UNL     1       2.201   6.855  19.728  0.00  0.00    +0.000 A 
ATOM     21  C   UNL     1       3.109   6.658  18.684  0.00  0.00    +0.000 A 
ATOM     22  C   UNL     1       3.453   5.394  18.194  0.00  0.00    +0.000 A 
ATOM     23  C   UNL     1       2.981   4.251  18.820  0.00  0.00    +0.000 A 
ATOM     24  C   UNL     1       2.165   4.384  19.950  0.00  0.00    +0.000 A 
ATOM     25  C   UNL     1       1.781   5.683  20.372  0.00  0.00    +0.000 A 
BRANCH  24  26
ATOM     26  C   UNL     1       1.673   3.213  20.759  0.00  0.00    +0.000 C 
ATOM     27  F   UNL     1       1.348   3.492  22.046  0.00  0.00    +0.000 F 
ATOM     28  F   UNL     1       0.558   2.654  20.210  0.00  0.00    +0.000 F 
ATOM     29  F   UNL     1       2.595   2.212  20.817  0.00  0.00    +0.000 F 
ENDBRANCH  24  26
BRANCH  23  30
ATOM     30  C   UNL     1       3.372   2.983  18.274  0.00  0.00    +0.000 C 
ATOM     31  N   UNL     1       3.642   1.958  17.808  0.00  0.00    +0.000 NA
ENDBRANCH  23  30
ENDBRANCH  11  20
TORSDOF 4
ENDMDL
MODEL 6
REMARK VINA RESULT:      -8.2      5.374     10.134
REMARK  Name = 
REMARK  6 active torsions:
REMARK  status: ('A' for Active; 'I' for Inactive)
REMARK    1  A    between atoms: C_1  and  C_2
REMARK    2  A    between atoms: N_7  and  C_8
REMARK    3  A    between atoms: C_15  and  C_16
REMARK    4  A    between atoms: N_18  and  C_19
REMARK    5  A    between atoms: C_22  and  C_23
REMARK    6  A    between atoms: C_25  and  C_26
REMARK                            x       y       z     vdW  Elec       q    Type
REMARK                         _______ _______ _______ _____ _____    ______ ____
ROOT
ATOM      1  C   UNL     1      -1.104  12.620  18.652  0.00  0.00    +0.000 C 
ATOM      2  C   UNL     1      -0.756  11.285  19.317  0.00  0.00    +0.000 C 
ATOM      3  C   UNL     1       0.722  10.969  18.949  0.00  0.00    +0.000 C 
ATOM      4  N   UNL     1       1.182   9.669  19.478  0.00  0.00    +0.000 N 
ATOM      5  C   UNL     1       1.880   8.875  18.569  0.00  0.00    +0.000 C 
ATOM      6  O   UNL     1       2.122   9.273  17.431  0.00  0.00    +0.000 OA
ATOM      7  N   UNL     1       2.207   7.614  18.987  0.00  0.00    +0.000 N 
ATOM      8  C   UNL     1       1.032   9.602  20.967  0.00  0.00    +0.000 C 
ATOM      9  C   UNL     1       1.497   8.361  21.727  0.00  0.00    +0.000 C 
ATOM     10  C   UNL     1      -0.449   9.898  21.357  0.00  0.00    +0.000 C 
ATOM     11  N   UNL     1      -0.911  11.196  20.804  0.00  0.00    +0.000 N 
ATOM     12  H   UNL     1       1.675   7.269  19.761  0.00  0.00    +0.000 HD
ENDROOT
BRANCH   7  13
ATOM     13  C   UNL     1       2.884   6.614  18.250  0.00  0.00    +0.000 A 
ATOM     14  C   UNL     1       2.475   5.287  18.136  0.00  0.00    +0.000 A 
ATOM     15  C   UNL     1       3.260   4.379  17.418  0.00  0.00    +0.000 A 
ATOM     16  C   UNL     1       4.424   4.842  16.830  0.00  0.00    +0.000 A 
ATOM     17 CL   UNL     1       5.453   3.788  15.953  0.00  0.00    +0.000 Cl
ATOM     18  N   UNL     1       4.848   6.118  16.889  0.00  0.00    +0.000 NA
ATOM     19  C   UNL     1       4.065   6.969  17.592  0.00  0.00    +0.000 A 
ENDBRANCH   7  13
BRANCH  11  20
ATOM     20  C   UNL     1      -1.448  12.155  21.638  0.00  0.00    +0.000 A 
ATOM     21  C   UNL     1      -0.666  13.093  22.321  0.00  0.00    +0.000 A 
ATOM     22  C   UNL     1      -1.179  13.959  23.291  0.00  0.00    +0.000 A 
ATOM     23  C   UNL     1      -2.543  14.001  23.538  0.00  0.00    +0.000 A 
ATOM     24  C   UNL     1      -3.393  13.172  22.796  0.00  0.00    +0.000 A 
ATOM     25  C   UNL     1      -2.826  12.257  21.872  0.00  0.00    +0.000 A 
BRANCH  24  26
ATOM     26  C   UNL     1      -4.894  13.202  22.918  0.00  0.00    +0.000 C 
ATOM     27  F   UNL     1      -5.462  14.427  22.788  0.00  0.00    +0.000 F 
ATOM     28  F   UNL     1      -5.490  12.417  21.977  0.00  0.00    +0.000 F 
ATOM     29  F   UNL     1      -5.317  12.722  24.120  0.00  0.00    +0.000 F 
ENDBRANCH  24  26
BRANCH  23  30
ATOM     30  C   UNL     1      -3.010  14.912  24.543  0.00  0.00    +0.000 C 
ATOM     31  N   UNL     1      -3.415  15.672  25.317  0.00  0.00    +0.000 NA
ENDBRANCH  23  30
ENDBRANCH  11  20
TORSDOF 4
ENDMDL
MODEL 7
REMARK VINA RESULT:      -7.8      1.525      1.785
REMARK  Name = 
REMARK  6 active torsions:
REMARK  status: ('A' for Active; 'I' for Inactive)
REMARK    1  A    between atoms: C_1  and  C_2
REMARK    2  A    between atoms: N_7  and  C_8
REMARK    3  A    between atoms: C_15  and  C_16
REMARK    4  A    between atoms: N_18  and  C_19
REMARK    5  A    between atoms: C_22  and  C_23
REMARK    6  A    between atoms: C_25  and  C_26
REMARK                            x       y       z     vdW  Elec       q    Type
REMARK                         _______ _______ _______ _____ _____    ______ ____
ROOT
ATOM      1  C   UNL     1       2.432   8.570  17.501  0.00  0.00    +0.000 C 
ATOM      2  C   UNL     1       2.040   8.884  18.947  0.00  0.00    +0.000 C 
ATOM      3  C   UNL     1       0.625   9.528  18.903  0.00  0.00    +0.000 C 
ATOM      4  N   UNL     1       0.137   9.942  20.233  0.00  0.00    +0.000 N 
ATOM      5  C   UNL     1      -0.428  11.216  20.286  0.00  0.00    +0.000 C 
ATOM      6  O   UNL     1      -0.542  11.903  19.273  0.00  0.00    +0.000 OA
ATOM      7  N   UNL     1      -0.771  11.679  21.527  0.00  0.00    +0.000 N 
ATOM      8  C   UNL     1       0.111   8.787  21.188  0.00  0.00    +0.000 C 
ATOM      9  C   UNL     1      -0.411   8.983  22.610  0.00  0.00    +0.000 C 
ATOM     10  C   UNL     1       1.527   8.138  21.263  0.00  0.00    +0.000 C 
ATOM     11  N   UNL     1       2.019   7.744  19.918  0.00  0.00    +0.000 N 
ATOM     12  H   UNL     1      -0.327  11.216  22.294  0.00  0.00    +0.000 HD
ENDROOT
BRANCH   7  13
ATOM     13  C   UNL     1      -1.331  12.938  21.848  0.00  0.00    +0.000 A 
ATOM     14  C   UNL     1      -2.680  13.266  21.740  0.00  0.00    +0.000 A 
ATOM     15  C   UNL     1      -3.104  14.564  22.041  0.00  0.00    +0.000 A 
ATOM     16  C   UNL     1      -2.156  15.484  22.451  0.00  0.00    +0.000 A 
ATOM     17 CL   UNL     1      -2.590  17.102  22.816  0.00  0.00    +0.000 Cl
ATOM     18  N   UNL     1      -0.846  15.209  22.597  0.00  0.00    +0.000 NA
ATOM     19  C   UNL     1      -0.471  13.944  22.297  0.00  0.00    +0.000 A 
ENDBRANCH   7  13
BRANCH  11  20
ATOM     20  C   UNL     1       2.429   6.448  19.681  0.00  0.00    +0.000 A 
ATOM     21  C   UNL     1       3.727   6.124  19.274  0.00  0.00    +0.000 A 
ATOM     22  C   UNL     1       4.108   4.840  18.873  0.00  0.00    +0.000 A 
ATOM     23  C   UNL     1       3.216   3.783  18.976  0.00  0.00    +0.000 A 
ATOM     24  C   UNL     1       1.937   4.023  19.494  0.00  0.00    +0.000 A 
ATOM     25  C   UNL     1       1.567   5.353  19.823  0.00  0.00    +0.000 A 
BRANCH  24  26
ATOM     26  C   UNL     1       0.924   2.936  19.736  0.00  0.00    +0.000 C 
ATOM     27  F   UNL     1       0.552   2.235  18.636  0.00  0.00    +0.000 F 
ATOM     28  F   UNL     1       1.381   2.011  20.626  0.00  0.00    +0.000 F 
ATOM     29  F   UNL     1      -0.228   3.425  20.273  0.00  0.00    +0.000 F 
ENDBRANCH  24  26
BRANCH  23  30
ATOM     30  C   UNL     1       3.665   2.489  18.553  0.00  0.00    +0.000 C 
ATOM     31  N   UNL     1       3.994   1.422  18.244  0.00  0.00    +0.000 NA
ENDBRANCH  23  30
ENDBRANCH  11  20
TORSDOF 4
ENDMDL
MODEL 8
REMARK VINA RESULT:      -7.7      5.356     10.170
REMARK  Name = 
REMARK  6 active torsions:
REMARK  status: ('A' for Active; 'I' for Inactive)
REMARK    1  A    between atoms: C_1  and  C_2
REMARK    2  A    between atoms: N_7  and  C_8
REMARK    3  A    between atoms: C_15  and  C_16
REMARK    4  A    between atoms: N_18  and  C_19
REMARK    5  A    between atoms: C_22  and  C_23
REMARK    6  A    between atoms: C_25  and  C_26
REMARK                            x       y       z     vdW  Elec       q    Type
REMARK                         _______ _______ _______ _____ _____    ______ ____
ROOT
ATOM      1  C   UNL     1      -0.005   9.485  23.386  0.00  0.00    +0.000 C 
ATOM      2  C   UNL     1       0.691   9.787  22.057  0.00  0.00    +0.000 C 
ATOM      3  C   UNL     1       0.577   8.504  21.184  0.00  0.00    +0.000 C 
ATOM      4  N   UNL     1       1.263   8.628  19.883  0.00  0.00    +0.000 N 
ATOM      5  C   UNL     1       2.058   7.539  19.526  0.00  0.00    +0.000 C 
ATOM      6  O   UNL     1       2.126   6.541  20.241  0.00  0.00    +0.000 OA
ATOM      7  N   UNL     1       2.807   7.677  18.390  0.00  0.00    +0.000 N 
ATOM      8  C   UNL     1       0.738   9.792  19.099  0.00  0.00    +0.000 C 
ATOM      9  C   UNL     1       1.274  10.073  17.696  0.00  0.00    +0.000 C 
ATOM     10  C   UNL     1       0.860  11.094  19.948  0.00  0.00    +0.000 C 
ATOM     11  N   UNL     1       0.187  10.953  21.264  0.00  0.00    +0.000 N 
ATOM     12  H   UNL     1       2.955   8.619  18.088  0.00  0.00    +0.000 HD
ENDROOT
BRANCH   7  13
ATOM     13  C   UNL     1       3.706   6.736  17.835  0.00  0.00    +0.000 A 
ATOM     14  C   UNL     1       3.444   5.378  17.671  0.00  0.00    +0.000 A 
ATOM     15  C   UNL     1       4.435   4.538  17.154  0.00  0.00    +0.000 A 
ATOM     16  C   UNL     1       5.654   5.098  16.812  0.00  0.00    +0.000 A 
ATOM     17 CL   UNL     1       6.929   4.133  16.194  0.00  0.00    +0.000 Cl
ATOM     18  N   UNL     1       5.946   6.407  16.927  0.00  0.00    +0.000 NA
ATOM     19  C   UNL     1       4.964   7.190  17.429  0.00  0.00    +0.000 A 
ENDBRANCH   7  13
BRANCH  11  20
ATOM     20  C   UNL     1      -0.771  11.867  21.656  0.00  0.00    +0.000 A 
ATOM     21  C   UNL     1      -0.569  12.781  22.694  0.00  0.00    +0.000 A 
ATOM     22  C   UNL     1      -1.583  13.595  23.208  0.00  0.00    +0.000 A 
ATOM     23  C   UNL     1      -2.834  13.611  22.612  0.00  0.00    +0.000 A 
ATOM     24  C   UNL     1      -3.061  12.806  21.488  0.00  0.00    +0.000 A 
ATOM     25  C   UNL     1      -2.028  11.942  21.042  0.00  0.00    +0.000 A 
BRANCH  24  26
ATOM     26  C   UNL     1      -4.350  12.814  20.709  0.00  0.00    +0.000 C 
ATOM     27  F   UNL     1      -4.773  14.036  20.300  0.00  0.00    +0.000 F 
ATOM     28  F   UNL     1      -4.260  12.057  19.580  0.00  0.00    +0.000 F 
ATOM     29  F   UNL     1      -5.380  12.284  21.425  0.00  0.00    +0.000 F 
ENDBRANCH  24  26
BRANCH  23  30
ATOM     30  C   UNL     1      -3.833  14.470  23.180  0.00  0.00    +0.000 C 
ATOM     31  N   UNL     1      -4.642  15.130  23.679  0.00  0.00    +0.000 NA
ENDBRANCH  23  30
ENDBRANCH  11  20
TORSDOF 4
ENDMDL
MODEL 9
REMARK VINA RESULT:      -7.6      5.186     10.033
REMARK  Name = 
REMARK  6 active torsions:
REMARK  status: ('A' for Active; 'I' for Inactive)
REMARK    1  A    between atoms: C_1  and  C_2
REMARK    2  A    between atoms: N_7  and  C_8
REMARK    3  A    between atoms: C_15  and  C_16
REMARK    4  A    between atoms: N_18  and  C_19
REMARK    5  A    between atoms: C_22  and  C_23
REMARK    6  A    between atoms: C_25  and  C_26
REMARK                            x       y       z     vdW  Elec       q    Type
REMARK                         _______ _______ _______ _____ _____    ______ ____
ROOT
ATOM      1  C   UNL     1      -1.279  12.663  18.666  0.00  0.00    +0.000 C 
ATOM      2  C   UNL     1      -0.870  11.383  19.400  0.00  0.00    +0.000 C 
ATOM      3  C   UNL     1       0.580  11.046  18.949  0.00  0.00    +0.000 C 
ATOM      4  N   UNL     1       1.090   9.792  19.536  0.00  0.00    +0.000 N 
ATOM      5  C   UNL     1       1.728   8.935  18.640  0.00  0.00    +0.000 C 
ATOM      6  O   UNL     1       1.881   9.249  17.460  0.00  0.00    +0.000 OA
ATOM      7  N   UNL     1       2.096   7.710  19.124  0.00  0.00    +0.000 N 
ATOM      8  C   UNL     1       1.050   9.835  21.033  0.00  0.00    +0.000 C 
ATOM      9  C   UNL     1       1.582   8.656  21.847  0.00  0.00    +0.000 C 
ATOM     10  C   UNL     1      -0.400  10.153  21.509  0.00  0.00    +0.000 C 
ATOM     11  N   UNL     1      -0.915  11.404  20.897  0.00  0.00    +0.000 N 
ATOM     12  H   UNL     1       1.626   7.422  19.959  0.00  0.00    +0.000 HD
ENDROOT
BRANCH   7  13
ATOM     13  C   UNL     1       2.728   6.661  18.415  0.00  0.00    +0.000 A 
ATOM     14  C   UNL     1       2.218   5.373  18.269  0.00  0.00    +0.000 A 
ATOM     15  C   UNL     1       2.962   4.407  17.585  0.00  0.00    +0.000 A 
ATOM     16  C   UNL     1       4.190   4.775  17.063  0.00  0.00    +0.000 A 
ATOM     17 CL   UNL     1       5.174   3.643  16.231  0.00  0.00    +0.000 Cl
ATOM     18  N   UNL     1       4.712   6.011  17.154  0.00  0.00    +0.000 NA
ATOM     19  C   UNL     1       3.966   6.921  17.822  0.00  0.00    +0.000 A 
ENDBRANCH   7  13
BRANCH  11  20
ATOM     20  C   UNL     1      -1.398  12.421  21.696  0.00  0.00    +0.000 A 
ATOM     21  C   UNL     1      -0.895  13.725  21.654  0.00  0.00    +0.000 A 
ATOM     22  C   UNL     1      -1.260  14.718  22.568  0.00  0.00    +0.000 A 
ATOM     23  C   UNL     1      -2.251  14.472  23.507  0.00  0.00    +0.000 A 
ATOM     24  C   UNL     1      -2.881  13.221  23.517  0.00  0.00    +0.000 A 
ATOM     25  C   UNL     1      -2.432  12.218  22.620  0.00  0.00    +0.000 A 
BRANCH  24  26
ATOM     26  C   UNL     1      -4.030  12.879  24.429  0.00  0.00    +0.000 C 
ATOM     27  F   UNL     1      -4.374  11.568  24.462  0.00  0.00    +0.000 F 
ATOM     28  F   UNL     1      -3.765  13.223  25.721  0.00  0.00    +0.000 F 
ATOM     29  F   UNL     1      -5.164  13.554  24.094  0.00  0.00    +0.000 F 
ENDBRANCH  24  26
BRANCH  23  30
ATOM     30  C   UNL     1      -2.586  15.531  24.415  0.00  0.00    +0.000 C 
ATOM     31  N   UNL     1      -2.876  16.350  25.180  0.00  0.00    +0.000 NA
ENDBRANCH  23  30
ENDBRANCH  11  20
TORSDOF 4
ENDMDL
