MODEL 1
REMARK VINA RESULT:      -7.3      0.000      0.000
REMARK  Name = 
REMARK  6 active torsions:
REMARK  status: ('A' for Active; 'I' for Inactive)
REMARK    1  A    between atoms: C_1  and  C_2
REMARK    2  A    between atoms: C_2  and  C_3
REMARK    3  A    between atoms: C_2  and  C_4
REMARK    4  A    between atoms: C_2  and  N_5
REMARK    5  A    between atoms: C_7  and  C_8
REMARK    6  A    between atoms: C_8  and  O_10
REMARK                            x       y       z     vdW  Elec       q    Type
REMARK                         _______ _______ _______ _____ _____    ______ ____
ROOT
ATOM      1  N   UNL     1       4.387   5.666  18.346  0.00  0.00    +0.000 N 
ATOM      2  C   UNL     1       4.655   4.344  18.791  0.00  0.00    +0.000 A 
ATOM      3  C   UNL     1       4.030   3.584  19.694  0.00  0.00    +0.000 A 
ATOM      4  C   UNL     1       2.902   4.188  20.371  0.00  0.00    +0.000 A 
ATOM      5  O   UNL     1       2.279   3.543  21.215  0.00  0.00    +0.000 OA
ATOM      6  C   UNL     1       2.562   5.574  20.053  0.00  0.00    +0.000 A 
ATOM      7  C   UNL     1       1.459   6.061  20.792  0.00  0.00    +0.000 A 
ATOM      8  C   UNL     1       1.039   7.345  20.637  0.00  0.00    +0.000 A 
ATOM      9  F   UNL     1      -0.015   7.761  21.357  0.00  0.00    +0.000 F 
ATOM     10  C   UNL     1       1.726   8.202  19.769  0.00  0.00    +0.000 A 
ATOM     11  N   UNL     1       1.156   9.523  19.639  0.00  0.00    +0.000 N 
ATOM     12  C   UNL     1       1.875  10.766  19.315  0.00  0.00    +0.000 C 
ATOM     13  C   UNL     1       1.065  12.048  19.676  0.00  0.00    +0.000 C 
ATOM     14  C   UNL     1       0.232  12.562  18.476  0.00  0.00    +0.000 C 
ATOM     15  C   UNL     1      -1.161  11.999  18.731  0.00  0.00    +0.000 C 
ATOM     16  C   UNL     1      -0.927  10.952  19.822  0.00  0.00    +0.000 C 
ATOM     17  C   UNL     1      -0.292   9.624  19.250  0.00  0.00    +0.000 C 
ATOM     18  N   UNL     1       0.035  11.702  20.674  0.00  0.00    +0.000 NA
ATOM     19  N   UNL     1       2.871   7.696  19.068  0.00  0.00    +0.000 NA
ATOM     20  C   UNL     1       3.282   6.357  19.100  0.00  0.00    +0.000 A 
ATOM     21  H   UNL     1       0.457  11.010  21.302  0.00  0.00    +0.000 HD
ENDROOT
BRANCH   1  23
ATOM     22  C   UNL     1       5.005   4.649  16.023  0.00  0.00    +0.000 C 
ATOM     23  C   UNL     1       5.147   5.932  16.915  0.00  0.00    +0.000 C 
ATOM     24  C   UNL     1       6.649   6.303  17.063  0.00  0.00    +0.000 C 
ATOM     25  C   UNL     1       4.667   6.976  15.951  0.00  0.00    +0.000 C 
ENDBRANCH   1  23
BRANCH   3  26
ATOM     26  C   UNL     1       4.459   2.189  19.945  0.00  0.00    +0.000 C 
ATOM     27  O   UNL     1       5.024   1.840  20.973  0.00  0.00    +0.000 OA
BRANCH  26  28
ATOM     28  O   UNL     1       4.173   1.319  18.953  0.00  0.00    +0.000 OA
ATOM     29  H   UNL     1       3.966   0.398  19.268  0.00  0.00    +0.000 HD
ENDBRANCH  26  28
ENDBRANCH   3  26
TORSDOF 3
ENDMDL
MODEL 2
REMARK VINA RESULT:      -6.8      4.034      8.175
REMARK  Name = 
REMARK  6 active torsions:
REMARK  status: ('A' for Active; 'I' for Inactive)
REMARK    1  A    between atoms: C_1  and  C_2
REMARK    2  A    between atoms: C_2  and  C_3
REMARK    3  A    between atoms: C_2  and  C_4
REMARK    4  A    between atoms: C_2  and  N_5
REMARK    5  A    between atoms: C_7  and  C_8
REMARK    6  A    between atoms: C_8  and  O_10
REMARK                            x       y       z     vdW  Elec       q    Type
REMARK                         _______ _______ _______ _____ _____    ______ ____
ROOT
ATOM      1  N   UNL     1       0.897  10.045  21.056  0.00  0.00    +0.000 N 
ATOM      2  C   UNL     1       0.891  11.425  20.718  0.00  0.00    +0.000 A 
ATOM      3  C   UNL     1       1.296  12.053  19.610  0.00  0.00    +0.000 A 
ATOM      4  C   UNL     1       1.865  11.220  18.571  0.00  0.00    +0.000 A 
ATOM      5  O   UNL     1       2.257  11.734  17.524  0.00  0.00    +0.000 OA
ATOM      6  C   UNL     1       1.992   9.786  18.823  0.00  0.00    +0.000 A 
ATOM      7  C   UNL     1       2.582   9.082  17.748  0.00  0.00    +0.000 A 
ATOM      8  C   UNL     1       2.802   7.743  17.839  0.00  0.00    +0.000 A 
ATOM      9  F   UNL     1       3.360   7.116  16.792  0.00  0.00    +0.000 F 
ATOM     10  C   UNL     1       2.478   7.064  19.020  0.00  0.00    +0.000 A 
ATOM     11  N   UNL     1       2.699   5.637  18.982  0.00  0.00    +0.000 N 
ATOM     12  C   UNL     1       3.014   4.762  20.125  0.00  0.00    +0.000 C 
ATOM     13  C   UNL     1       3.611   3.388  19.692  0.00  0.00    +0.000 C 
ATOM     14  C   UNL     1       2.516   2.305  19.539  0.00  0.00    +0.000 C 
ATOM     15  C   UNL     1       2.227   2.287  18.042  0.00  0.00    +0.000 C 
ATOM     16  C   UNL     1       2.896   3.567  17.536  0.00  0.00    +0.000 C 
ATOM     17  C   UNL     1       2.051   4.857  17.873  0.00  0.00    +0.000 C 
ATOM     18  N   UNL     1       4.156   3.509  18.327  0.00  0.00    +0.000 NA
ATOM     19  N   UNL     1       1.926   7.811  20.113  0.00  0.00    +0.000 NA
ATOM     20  C   UNL     1       1.572   9.164  20.039  0.00  0.00    +0.000 A 
ATOM     21  H   UNL     1       4.575   4.442  18.260  0.00  0.00    +0.000 HD
ENDROOT
BRANCH   1  23
ATOM     22  C   UNL     1      -0.982   8.498  21.999  0.00  0.00    +0.000 C 
ATOM     23  C   UNL     1      -0.131   9.779  22.309  0.00  0.00    +0.000 C 
ATOM     24  C   UNL     1      -1.077  10.976  22.608  0.00  0.00    +0.000 C 
ATOM     25  C   UNL     1       0.371   9.435  23.680  0.00  0.00    +0.000 C 
ENDBRANCH   1  23
BRANCH   3  26
ATOM     26  C   UNL     1       1.125  13.516  19.458  0.00  0.00    +0.000 C 
ATOM     27  O   UNL     1       1.715  14.332  20.153  0.00  0.00    +0.000 OA
BRANCH  26  28
ATOM     28  O   UNL     1       0.270  13.890  18.483  0.00  0.00    +0.000 OA
ATOM     29  H   UNL     1       0.424  13.435  17.611  0.00  0.00    +0.000 HD
ENDBRANCH  26  28
ENDBRANCH   3  26
TORSDOF 3
ENDMDL
MODEL 3
REMARK VINA RESULT:      -6.7      3.416      7.621
REMARK  Name = 
REMARK  6 active torsions:
REMARK  status: ('A' for Active; 'I' for Inactive)
REMARK    1  A    between atoms: C_1  and  C_2
REMARK    2  A    between atoms: C_2  and  C_3
REMARK    3  A    between atoms: C_2  and  C_4
REMARK    4  A    between atoms: C_2  and  N_5
REMARK    5  A    between atoms: C_7  and  C_8
REMARK    6  A    between atoms: C_8  and  O_10
REMARK                            x       y       z     vdW  Elec       q    Type
REMARK                         _______ _______ _______ _____ _____    ______ ____
ROOT
ATOM      1  N   UNL     1       0.925  11.209  19.905  0.00  0.00    +0.000 N 
ATOM      2  C   UNL     1       0.051  11.796  20.859  0.00  0.00    +0.000 A 
ATOM      3  C   UNL     1      -0.501  11.289  21.964  0.00  0.00    +0.000 A 
ATOM      4  C   UNL     1      -0.200   9.903  22.254  0.00  0.00    +0.000 A 
ATOM      5  O   UNL     1      -0.675   9.372  23.259  0.00  0.00    +0.000 OA
ATOM      6  C   UNL     1       0.636   9.162  21.311  0.00  0.00    +0.000 A 
ATOM      7  C   UNL     1       0.841   7.814  21.688  0.00  0.00    +0.000 A 
ATOM      8  C   UNL     1       1.568   6.981  20.897  0.00  0.00    +0.000 A 
ATOM      9  F   UNL     1       1.740   5.711  21.298  0.00  0.00    +0.000 F 
ATOM     10  C   UNL     1       2.085   7.449  19.683  0.00  0.00    +0.000 A 
ATOM     11  N   UNL     1       2.890   6.495  18.956  0.00  0.00    +0.000 N 
ATOM     12  C   UNL     1       3.082   6.433  17.497  0.00  0.00    +0.000 C 
ATOM     13  C   UNL     1       3.637   5.058  17.015  0.00  0.00    +0.000 C 
ATOM     14  C   UNL     1       5.182   5.059  16.924  0.00  0.00    +0.000 C 
ATOM     15  C   UNL     1       5.625   4.415  18.233  0.00  0.00    +0.000 C 
ATOM     16  C   UNL     1       4.354   4.432  19.085  0.00  0.00    +0.000 C 
ATOM     17  C   UNL     1       4.049   5.864  19.676  0.00  0.00    +0.000 C 
ATOM     18  N   UNL     1       3.362   4.040  18.046  0.00  0.00    +0.000 NA
ATOM     19  N   UNL     1       1.822   8.806  19.302  0.00  0.00    +0.000 NA
ATOM     20  C   UNL     1       1.179   9.741  20.124  0.00  0.00    +0.000 A 
ATOM     21  H   UNL     1       2.441   4.260  18.438  0.00  0.00    +0.000 HD
ENDROOT
BRANCH   1  23
ATOM     22  C   UNL     1       0.566  13.341  18.443  0.00  0.00    +0.000 C 
ATOM     23  C   UNL     1       1.664  12.388  19.033  0.00  0.00    +0.000 C 
ATOM     24  C   UNL     1       2.559  11.848  17.882  0.00  0.00    +0.000 C 
ATOM     25  C   UNL     1       2.567  13.396  19.678  0.00  0.00    +0.000 C 
ENDBRANCH   1  23
BRANCH   3  26
ATOM     26  C   UNL     1      -1.338  12.128  22.852  0.00  0.00    +0.000 C 
ATOM     27  O   UNL     1      -1.055  13.284  23.139  0.00  0.00    +0.000 OA
BRANCH  26  28
ATOM     28  O   UNL     1      -2.450  11.525  23.321  0.00  0.00    +0.000 OA
ATOM     29  H   UNL     1      -3.136  12.155  23.673  0.00  0.00    +0.000 HD
ENDBRANCH  26  28
ENDBRANCH   3  26
TORSDOF 3
ENDMDL
MODEL 4
REMARK VINA RESULT:      -6.7      9.599     11.186
REMARK  Name = 
REMARK  6 active torsions:
REMARK  status: ('A' for Active; 'I' for Inactive)
REMARK    1  A    between atoms: C_1  and  C_2
REMARK    2  A    between atoms: C_2  and  C_3
REMARK    3  A    between atoms: C_2  and  C_4
REMARK    4  A    between atoms: C_2  and  N_5
REMARK    5  A    between atoms: C_7  and  C_8
REMARK    6  A    between atoms: C_8  and  O_10
REMARK                            x       y       z     vdW  Elec       q    Type
REMARK                         _______ _______ _______ _____ _____    ______ ____
ROOT
ATOM      1  N   UNL     1       9.886  13.397  19.191  0.00  0.00    +0.000 N 
ATOM      2  C   UNL     1      10.291  14.357  18.226  0.00  0.00    +0.000 A 
ATOM      3  C   UNL     1      10.177  15.688  18.218  0.00  0.00    +0.000 A 
ATOM      4  C   UNL     1       9.509  16.282  19.358  0.00  0.00    +0.000 A 
ATOM      5  O   UNL     1       9.370  17.503  19.416  0.00  0.00    +0.000 OA
ATOM      6  C   UNL     1       8.981  15.394  20.393  0.00  0.00    +0.000 A 
ATOM      7  C   UNL     1       8.331  16.086  21.441  0.00  0.00    +0.000 A 
ATOM      8  C   UNL     1       7.755  15.401  22.465  0.00  0.00    +0.000 A 
ATOM      9  F   UNL     1       7.153  16.100  23.441  0.00  0.00    +0.000 F 
ATOM     10  C   UNL     1       7.772  14.001  22.462  0.00  0.00    +0.000 A 
ATOM     11  N   UNL     1       7.183  13.382  23.627  0.00  0.00    +0.000 N 
ATOM     12  C   UNL     1       6.540  12.059  23.693  0.00  0.00    +0.000 C 
ATOM     13  C   UNL     1       5.643  11.882  24.956  0.00  0.00    +0.000 C 
ATOM     14  C   UNL     1       6.420  11.239  26.130  0.00  0.00    +0.000 C 
ATOM     15  C   UNL     1       6.835  12.428  26.988  0.00  0.00    +0.000 C 
ATOM     16  C   UNL     1       6.583  13.630  26.074  0.00  0.00    +0.000 C 
ATOM     17  C   UNL     1       7.705  13.792  24.975  0.00  0.00    +0.000 C 
ATOM     18  N   UNL     1       5.284  13.213  25.481  0.00  0.00    +0.000 NA
ATOM     19  N   UNL     1       8.395  13.324  21.362  0.00  0.00    +0.000 NA
ATOM     20  C   UNL     1       9.102  13.972  20.340  0.00  0.00    +0.000 A 
ATOM     21  H   UNL     1       5.136  13.819  24.668  0.00  0.00    +0.000 HD
ENDROOT
BRANCH   1  23
ATOM     22  C   UNL     1      11.848  11.863  19.973  0.00  0.00    +0.000 C 
ATOM     23  C   UNL     1      10.681  11.983  18.931  0.00  0.00    +0.000 C 
ATOM     24  C   UNL     1      11.249  11.840  17.491  0.00  0.00    +0.000 C 
ATOM     25  C   UNL     1      10.013  10.656  19.131  0.00  0.00    +0.000 C 
ENDBRANCH   1  23
BRANCH   3  26
ATOM     26  C   UNL     1      10.745  16.496  17.115  0.00  0.00    +0.000 C 
ATOM     27  O   UNL     1      11.361  17.538  17.301  0.00  0.00    +0.000 OA
BRANCH  26  28
ATOM     28  O   UNL     1      10.541  15.995  15.879  0.00  0.00    +0.000 OA
ATOM     29  H   UNL     1       9.975  16.570  15.296  0.00  0.00    +0.000 HD
ENDBRANCH  26  28
ENDBRANCH   3  26
TORSDOF 3
ENDMDL
MODEL 5
REMARK VINA RESULT:      -6.6      2.427      3.941
REMARK  Name = 
REMARK  6 active torsions:
REMARK  status: ('A' for Active; 'I' for Inactive)
REMARK    1  A    between atoms: C_1  and  C_2
REMARK    2  A    between atoms: C_2  and  C_3
REMARK    3  A    between atoms: C_2  and  C_4
REMARK    4  A    between atoms: C_2  and  N_5
REMARK    5  A    between atoms: C_7  and  C_8
REMARK    6  A    between atoms: C_8  and  O_10
REMARK                            x       y       z     vdW  Elec       q    Type
REMARK                         _______ _______ _______ _____ _____    ______ ____
ROOT
ATOM      1  N   UNL     1       2.707   5.153  18.760  0.00  0.00    +0.000 N 
ATOM      2  C   UNL     1       3.658   4.549  17.895  0.00  0.00    +0.000 A 
ATOM      3  C   UNL     1       4.495   5.090  17.005  0.00  0.00    +0.000 A 
ATOM      4  C   UNL     1       4.429   6.529  16.854  0.00  0.00    +0.000 A 
ATOM      5  O   UNL     1       5.173   7.093  16.052  0.00  0.00    +0.000 OA
ATOM      6  C   UNL     1       3.440   7.265  17.640  0.00  0.00    +0.000 A 
ATOM      7  C   UNL     1       3.454   8.657  17.389  0.00  0.00    +0.000 A 
ATOM      8  C   UNL     1       2.570   9.478  18.017  0.00  0.00    +0.000 A 
ATOM      9  F   UNL     1       2.623  10.793  17.752  0.00  0.00    +0.000 F 
ATOM     10  C   UNL     1       1.614   8.938  18.886  0.00  0.00    +0.000 A 
ATOM     11  N   UNL     1       0.768   9.908  19.540  0.00  0.00    +0.000 N 
ATOM     12  C   UNL     1      -0.611   9.700  20.013  0.00  0.00    +0.000 C 
ATOM     13  C   UNL     1      -1.375  11.035  20.267  0.00  0.00    +0.000 C 
ATOM     14  C   UNL     1      -1.251  11.501  21.738  0.00  0.00    +0.000 C 
ATOM     15  C   UNL     1      -0.124  12.526  21.703  0.00  0.00    +0.000 C 
ATOM     16  C   UNL     1       0.519  12.301  20.333  0.00  0.00    +0.000 C 
ATOM     17  C   UNL     1       1.436  11.015  20.306  0.00  0.00    +0.000 C 
ATOM     18  N   UNL     1      -0.712  12.119  19.516  0.00  0.00    +0.000 NA
ATOM     19  N   UNL     1       1.591   7.517  19.084  0.00  0.00    +0.000 NA
ATOM     20  C   UNL     1       2.544   6.636  18.557  0.00  0.00    +0.000 A 
ATOM     21  H   UNL     1      -0.404  11.714  18.627  0.00  0.00    +0.000 HD
ENDROOT
BRANCH   1  23
ATOM     22  C   UNL     1       3.366   2.949  19.993  0.00  0.00    +0.000 C 
ATOM     23  C   UNL     1       2.303   4.103  19.956  0.00  0.00    +0.000 C 
ATOM     24  C   UNL     1       0.880   3.497  19.803  0.00  0.00    +0.000 C 
ATOM     25  C   UNL     1       2.310   4.511  21.399  0.00  0.00    +0.000 C 
ENDBRANCH   1  23
BRANCH   3  26
ATOM     26  C   UNL     1       5.458   4.251  16.256  0.00  0.00    +0.000 C 
ATOM     27  O   UNL     1       5.254   3.862  15.113  0.00  0.00    +0.000 OA
BRANCH  26  28
ATOM     28  O   UNL     1       6.590   3.950  16.924  0.00  0.00    +0.000 OA
ATOM     29  H   UNL     1       6.844   4.619  17.616  0.00  0.00    +0.000 HD
ENDBRANCH  26  28
ENDBRANCH   3  26
TORSDOF 3
ENDMDL
MODEL 6
REMARK VINA RESULT:      -6.5      5.183      8.097
REMARK  Name = 
REMARK  6 active torsions:
REMARK  status: ('A' for Active; 'I' for Inactive)
REMARK    1  A    between atoms: C_1  and  C_2
REMARK    2  A    between atoms: C_2  and  C_3
REMARK    3  A    between atoms: C_2  and  C_4
REMARK    4  A    between atoms: C_2  and  N_5
REMARK    5  A    between atoms: C_7  and  C_8
REMARK    6  A    between atoms: C_8  and  O_10
REMARK                            x       y       z     vdW  Elec       q    Type
REMARK                         _______ _______ _______ _____ _____    ______ ____
ROOT
ATOM      1  N   UNL     1      -1.196  11.274  19.992  0.00  0.00    +0.000 N 
ATOM      2  C   UNL     1      -0.157  10.373  20.348  0.00  0.00    +0.000 A 
ATOM      3  C   UNL     1       0.221   9.906  21.542  0.00  0.00    +0.000 A 
ATOM      4  C   UNL     1      -0.512  10.403  22.687  0.00  0.00    +0.000 A 
ATOM      5  O   UNL     1      -0.217  10.013  23.817  0.00  0.00    +0.000 OA
ATOM      6  C   UNL     1      -1.565  11.392  22.462  0.00  0.00    +0.000 A 
ATOM      7  C   UNL     1      -2.193  11.818  23.655  0.00  0.00    +0.000 A 
ATOM      8  C   UNL     1      -3.171  12.763  23.619  0.00  0.00    +0.000 A 
ATOM      9  F   UNL     1      -3.742  13.134  24.777  0.00  0.00    +0.000 F 
ATOM     10  C   UNL     1      -3.531  13.345  22.398  0.00  0.00    +0.000 A 
ATOM     11  N   UNL     1      -4.620  14.291  22.472  0.00  0.00    +0.000 N 
ATOM     12  C   UNL     1      -4.853  15.440  21.580  0.00  0.00    +0.000 C 
ATOM     13  C   UNL     1      -5.839  16.487  22.183  0.00  0.00    +0.000 C 
ATOM     14  C   UNL     1      -7.300  16.224  21.744  0.00  0.00    +0.000 C 
ATOM     15  C   UNL     1      -7.901  15.459  22.917  0.00  0.00    +0.000 C 
ATOM     16  C   UNL     1      -6.677  15.050  23.740  0.00  0.00    +0.000 C 
ATOM     17  C   UNL     1      -5.906  13.830  23.098  0.00  0.00    +0.000 C 
ATOM     18  N   UNL     1      -5.892  16.311  23.647  0.00  0.00    +0.000 NA
ATOM     19  N   UNL     1      -2.844  12.929  21.209  0.00  0.00    +0.000 NA
ATOM     20  C   UNL     1      -1.913  11.884  21.167  0.00  0.00    +0.000 A 
ATOM     21  H   UNL     1      -4.942  16.075  23.948  0.00  0.00    +0.000 HD
ENDROOT
BRANCH   1  23
ATOM     22  C   UNL     1      -3.077  10.999  18.203  0.00  0.00    +0.000 C 
ATOM     23  C   UNL     1      -1.524  11.132  18.389  0.00  0.00    +0.000 C 
ATOM     24  C   UNL     1      -0.812   9.930  17.708  0.00  0.00    +0.000 C 
ATOM     25  C   UNL     1      -1.240  12.244  17.425  0.00  0.00    +0.000 C 
ENDBRANCH   1  23
BRANCH   3  26
ATOM     26  C   UNL     1       1.306   8.906  21.660  0.00  0.00    +0.000 C 
ATOM     27  O   UNL     1       1.398   7.933  20.923  0.00  0.00    +0.000 OA
BRANCH  26  28
ATOM     28  O   UNL     1       2.199   9.149  22.642  0.00  0.00    +0.000 OA
ATOM     29  H   UNL     1       3.146   9.167  22.335  0.00  0.00    +0.000 HD
ENDBRANCH  26  28
ENDBRANCH   3  26
TORSDOF 3
ENDMDL
MODEL 7
REMARK VINA RESULT:      -6.5      6.164      8.795
REMARK  Name = 
REMARK  6 active torsions:
REMARK  status: ('A' for Active; 'I' for Inactive)
REMARK    1  A    between atoms: C_1  and  C_2
REMARK    2  A    between atoms: C_2  and  C_3
REMARK    3  A    between atoms: C_2  and  C_4
REMARK    4  A    between atoms: C_2  and  N_5
REMARK    5  A    between atoms: C_7  and  C_8
REMARK    6  A    between atoms: C_8  and  O_10
REMARK                            x       y       z     vdW  Elec       q    Type
REMARK                         _______ _______ _______ _____ _____    ______ ____
ROOT
ATOM      1  N   UNL     1      -1.608  10.759  18.471  0.00  0.00    +0.000 N 
ATOM      2  C   UNL     1      -1.981  10.322  17.172  0.00  0.00    +0.000 A 
ATOM      3  C   UNL     1      -3.061  10.598  16.436  0.00  0.00    +0.000 A 
ATOM      4  C   UNL     1      -4.049  11.464  17.045  0.00  0.00    +0.000 A 
ATOM      5  O   UNL     1      -5.068  11.760  16.421  0.00  0.00    +0.000 OA
ATOM      6  C   UNL     1      -3.817  11.929  18.411  0.00  0.00    +0.000 A 
ATOM      7  C   UNL     1      -4.859  12.747  18.906  0.00  0.00    +0.000 A 
ATOM      8  C   UNL     1      -4.810  13.232  20.175  0.00  0.00    +0.000 A 
ATOM      9  F   UNL     1      -5.820  14.008  20.601  0.00  0.00    +0.000 F 
ATOM     10  C   UNL     1      -3.741  12.888  21.011  0.00  0.00    +0.000 A 
ATOM     11  N   UNL     1      -3.763  13.509  22.316  0.00  0.00    +0.000 N 
ATOM     12  C   UNL     1      -3.185  12.970  23.559  0.00  0.00    +0.000 C 
ATOM     13  C   UNL     1      -3.751  13.657  24.839  0.00  0.00    +0.000 C 
ATOM     14  C   UNL     1      -2.872  14.848  25.291  0.00  0.00    +0.000 C 
ATOM     15  C   UNL     1      -3.582  16.066  24.714  0.00  0.00    +0.000 C 
ATOM     16  C   UNL     1      -4.569  15.460  23.713  0.00  0.00    +0.000 C 
ATOM     17  C   UNL     1      -3.862  15.007  22.376  0.00  0.00    +0.000 C 
ATOM     18  N   UNL     1      -5.039  14.297  24.512  0.00  0.00    +0.000 NA
ATOM     19  N   UNL     1      -2.721  12.018  20.500  0.00  0.00    +0.000 NA
ATOM     20  C   UNL     1      -2.658  11.580  19.170  0.00  0.00    +0.000 A 
ATOM     21  H   UNL     1      -5.516  13.675  23.852  0.00  0.00    +0.000 HD
ENDROOT
BRANCH   1  23
ATOM     22  C   UNL     1       0.213   9.812  20.084  0.00  0.00    +0.000 C 
ATOM     23  C   UNL     1       0.000  10.512  18.696  0.00  0.00    +0.000 C 
ATOM     24  C   UNL     1       0.849  11.813  18.632  0.00  0.00    +0.000 C 
ATOM     25  C   UNL     1       0.786   9.589  17.814  0.00  0.00    +0.000 C 
ENDBRANCH   1  23
BRANCH   3  26
ATOM     26  C   UNL     1      -3.201  10.071  15.059  0.00  0.00    +0.000 C 
ATOM     27  O   UNL     1      -2.247   9.898  14.312  0.00  0.00    +0.000 OA
BRANCH  26  28
ATOM     28  O   UNL     1      -4.465   9.784  14.686  0.00  0.00    +0.000 OA
ATOM     29  H   UNL     1      -5.096   9.664  15.446  0.00  0.00    +0.000 HD
ENDBRANCH  26  28
ENDBRANCH   3  26
TORSDOF 3
ENDMDL
MODEL 8
REMARK VINA RESULT:      -6.5      5.511      8.395
REMARK  Name = 
REMARK  6 active torsions:
REMARK  status: ('A' for Active; 'I' for Inactive)
REMARK    1  A    between atoms: C_1  and  C_2
REMARK    2  A    between atoms: C_2  and  C_3
REMARK    3  A    between atoms: C_2  and  C_4
REMARK    4  A    between atoms: C_2  and  N_5
REMARK    5  A    between atoms: C_7  and  C_8
REMARK    6  A    between atoms: C_8  and  O_10
REMARK                            x       y       z     vdW  Elec       q    Type
REMARK                         _______ _______ _______ _____ _____    ______ ____
ROOT
ATOM      1  N   UNL     1      -2.276  11.279  18.156  0.00  0.00    +0.000 N 
ATOM      2  C   UNL     1      -0.964  10.795  17.905  0.00  0.00    +0.000 A 
ATOM      3  C   UNL     1       0.101  10.709  18.707  0.00  0.00    +0.000 A 
ATOM      4  C   UNL     1      -0.068  11.205  20.056  0.00  0.00    +0.000 A 
ATOM      5  O   UNL     1       0.873  11.155  20.848  0.00  0.00    +0.000 OA
ATOM      6  C   UNL     1      -1.356  11.794  20.422  0.00  0.00    +0.000 A 
ATOM      7  C   UNL     1      -1.393  12.265  21.755  0.00  0.00    +0.000 A 
ATOM      8  C   UNL     1      -2.510  12.872  22.240  0.00  0.00    +0.000 A 
ATOM      9  F   UNL     1      -2.501  13.298  23.513  0.00  0.00    +0.000 F 
ATOM     10  C   UNL     1      -3.615  13.067  21.403  0.00  0.00    +0.000 A 
ATOM     11  N   UNL     1      -4.764  13.667  22.040  0.00  0.00    +0.000 N 
ATOM     12  C   UNL     1      -5.797  14.497  21.397  0.00  0.00    +0.000 C 
ATOM     13  C   UNL     1      -6.631  15.329  22.418  0.00  0.00    +0.000 C 
ATOM     14  C   UNL     1      -7.916  14.584  22.856  0.00  0.00    +0.000 C 
ATOM     15  C   UNL     1      -7.532  13.941  24.183  0.00  0.00    +0.000 C 
ATOM     16  C   UNL     1      -6.007  14.067  24.210  0.00  0.00    +0.000 C 
ATOM     17  C   UNL     1      -5.302  13.005  23.277  0.00  0.00    +0.000 C 
ATOM     18  N   UNL     1      -5.869  15.449  23.676  0.00  0.00    +0.000 NA
ATOM     19  N   UNL     1      -3.531  12.623  20.041  0.00  0.00    +0.000 NA
ATOM     20  C   UNL     1      -2.456  11.893  19.518  0.00  0.00    +0.000 A 
ATOM     21  H   UNL     1      -4.884  15.554  23.414  0.00  0.00    +0.000 HD
ENDROOT
BRANCH   1  23
ATOM     22  C   UNL     1      -3.800   9.296  17.409  0.00  0.00    +0.000 C 
ATOM     23  C   UNL     1      -3.299  10.724  16.997  0.00  0.00    +0.000 C 
ATOM     24  C   UNL     1      -2.667  10.667  15.578  0.00  0.00    +0.000 C 
ATOM     25  C   UNL     1      -4.613  11.393  16.721  0.00  0.00    +0.000 C 
ENDBRANCH   1  23
BRANCH   3  26
ATOM     26  C   UNL     1       1.364  10.096  18.234  0.00  0.00    +0.000 C 
ATOM     27  O   UNL     1       1.557   8.887  18.228  0.00  0.00    +0.000 OA
BRANCH  26  28
ATOM     28  O   UNL     1       2.292  10.972  17.797  0.00  0.00    +0.000 OA
ATOM     29  H   UNL     1       2.114  11.334  16.887  0.00  0.00    +0.000 HD
ENDBRANCH  26  28
ENDBRANCH   3  26
TORSDOF 3
ENDMDL
MODEL 9
REMARK VINA RESULT:      -6.4      5.023      8.044
REMARK  Name = 
REMARK  6 active torsions:
REMARK  status: ('A' for Active; 'I' for Inactive)
REMARK    1  A    between atoms: C_1  and  C_2
REMARK    2  A    between atoms: C_2  and  C_3
REMARK    3  A    between atoms: C_2  and  C_4
REMARK    4  A    between atoms: C_2  and  N_5
REMARK    5  A    between atoms: C_7  and  C_8
REMARK    6  A    between atoms: C_8  and  O_10
REMARK                            x       y       z     vdW  Elec       q    Type
REMARK                         _______ _______ _______ _____ _____    ______ ____
ROOT
ATOM      1  N   UNL     1      -1.871  11.266  18.428  0.00  0.00    +0.000 N 
ATOM      2  C   UNL     1      -0.711  10.467  18.247  0.00  0.00    +0.000 A 
ATOM      3  C   UNL     1       0.322  10.233  19.061  0.00  0.00    +0.000 A 
ATOM      4  C   UNL     1       0.299  10.912  20.339  0.00  0.00    +0.000 A 
ATOM      5  O   UNL     1       1.220  10.741  21.139  0.00  0.00    +0.000 OA
ATOM      6  C   UNL     1      -0.811  11.821  20.623  0.00  0.00    +0.000 A 
ATOM      7  C   UNL     1      -0.712  12.442  21.889  0.00  0.00    +0.000 A 
ATOM      8  C   UNL     1      -1.649  13.342  22.289  0.00  0.00    +0.000 A 
ATOM      9  F   UNL     1      -1.517  13.904  23.502  0.00  0.00    +0.000 F 
ATOM     10  C   UNL     1      -2.697  13.686  21.427  0.00  0.00    +0.000 A 
ATOM     11  N   UNL     1      -3.665  14.605  21.979  0.00  0.00    +0.000 N 
ATOM     12  C   UNL     1      -4.493  15.568  21.233  0.00  0.00    +0.000 C 
ATOM     13  C   UNL     1      -5.093  16.685  22.141  0.00  0.00    +0.000 C 
ATOM     14  C   UNL     1      -6.505  16.314  22.656  0.00  0.00    +0.000 C 
ATOM     15  C   UNL     1      -6.252  15.761  24.053  0.00  0.00    +0.000 C 
ATOM     16  C   UNL     1      -4.738  15.535  24.076  0.00  0.00    +0.000 C 
ATOM     17  C   UNL     1      -4.315  14.237  23.283  0.00  0.00    +0.000 C 
ATOM     18  N   UNL     1      -4.298  16.775  23.381  0.00  0.00    +0.000 NA
ATOM     19  N   UNL     1      -2.746  13.077  20.129  0.00  0.00    +0.000 NA
ATOM     20  C   UNL     1      -1.878  12.062  19.705  0.00  0.00    +0.000 A 
ATOM     21  H   UNL     1      -3.321  16.619  23.115  0.00  0.00    +0.000 HD
ENDROOT
BRANCH   1  23
ATOM     22  C   UNL     1      -3.546   9.398  17.708  0.00  0.00    +0.000 C 
ATOM     23  C   UNL     1      -3.018  10.828  17.337  0.00  0.00    +0.000 C 
ATOM     24  C   UNL     1      -2.518  10.835  15.865  0.00  0.00    +0.000 C 
ATOM     25  C   UNL     1      -4.319  11.565  17.222  0.00  0.00    +0.000 C 
ENDBRANCH   1  23
BRANCH   3  26
ATOM     26  C   UNL     1       1.401   9.295  18.674  0.00  0.00    +0.000 C 
ATOM     27  O   UNL     1       1.968   9.342  17.590  0.00  0.00    +0.000 OA
BRANCH  26  28
ATOM     28  O   UNL     1       1.723   8.381  19.613  0.00  0.00    +0.000 OA
ATOM     29  H   UNL     1       0.948   7.861  19.957  0.00  0.00    +0.000 HD
ENDBRANCH  26  28
ENDBRANCH   3  26
TORSDOF 3
ENDMDL
