MODEL 1
REMARK VINA RESULT:      -6.9      0.000      0.000
REMARK  Name = 
REMARK  8 active torsions:
REMARK  status: ('A' for Active; 'I' for Inactive)
REMARK    1  A    between atoms: C_1  and  C_2
REMARK    2  A    between atoms: C_2  and  O_3
REMARK    3  A    between atoms: O_3  and  C_4
REMARK    4  A    between atoms: C_4  and  C_6
REMARK    5  A    between atoms: C_7  and  C_8
REMARK    6  A    between atoms: C_18  and  O_19
REMARK    7  A    between atoms: C_20  and  C_21
REMARK    8  A    between atoms: C_21  and  N_22
REMARK                            x       y       z     vdW  Elec       q    Type
REMARK                         _______ _______ _______ _____ _____    ______ ____
ROOT
ATOM      1  C   UNL     1       2.081   8.009  18.944  0.00  0.00    +0.000 A 
ATOM      2  C   UNL     1       1.681   7.809  20.213  0.00  0.00    +0.000 A 
ATOM      3  O   UNL     1       1.920   6.660  20.931  0.00  0.00    +0.000 OA
ATOM      4  C   UNL     1       2.424   5.565  20.276  0.00  0.00    +0.000 A 
ATOM      5  C   UNL     1       2.438   4.389  21.021  0.00  0.00    +0.000 A 
ATOM      6  C   UNL     1       2.918   3.227  20.445  0.00  0.00    +0.000 A 
ATOM      7  C   UNL     1       3.401   3.236  19.133  0.00  0.00    +0.000 A 
ATOM      8  C   UNL     1       3.418   4.403  18.354  0.00  0.00    +0.000 A 
ATOM      9  C   UNL     1       2.903   5.598  18.964  0.00  0.00    +0.000 A 
ATOM     10  C   UNL     1       2.841   6.920  18.283  0.00  0.00    +0.000 A 
ATOM     11  O   UNL     1       3.415   7.116  17.215  0.00  0.00    +0.000 OA
ENDROOT
BRANCH   2  12
ATOM     12  C   UNL     1       0.895   8.771  21.002  0.00  0.00    +0.000 A 
ATOM     13  C   UNL     1      -0.232   8.351  21.721  0.00  0.00    +0.000 A 
ATOM     14  C   UNL     1      -0.972   9.268  22.470  0.00  0.00    +0.000 A 
ATOM     15  C   UNL     1      -0.589  10.609  22.510  0.00  0.00    +0.000 A 
ATOM     16  C   UNL     1       0.537  11.035  21.807  0.00  0.00    +0.000 A 
ATOM     17  C   UNL     1       1.281  10.117  21.060  0.00  0.00    +0.000 A 
ENDBRANCH   2  12
BRANCH   1  18
ATOM     18  C   UNL     1       1.723   9.251  18.205  0.00  0.00    +0.000 C 
ATOM     19  O   UNL     1       2.447  10.230  18.060  0.00  0.00    +0.000 OA
BRANCH  18  20
ATOM     20  O   UNL     1       0.408   9.190  17.874  0.00  0.00    +0.000 OA
BRANCH  20  22
ATOM     21  C   UNL     1      -1.626  10.172  18.560  0.00  0.00    +0.000 C 
ATOM     22  C   UNL     1      -0.303  10.433  17.866  0.00  0.00    +0.000 C 
ENDBRANCH  20  22
ENDBRANCH  18  20
ENDBRANCH   1  18
BRANCH   7  23
ATOM     23  O   UNL     1       3.856   2.049  18.646  0.00  0.00    +0.000 OA
ATOM     24  H   UNL     1       4.396   2.193  17.853  0.00  0.00    +0.000 HD
ENDBRANCH   7  23
BRANCH   8  25
ATOM     25  C   UNL     1       3.929   4.485  16.912  0.00  0.00    +0.000 C 
BRANCH  25  26
ATOM     26  N   UNL     1       5.219   3.880  16.512  0.00  0.00    +0.000 NA
ATOM     27  C   UNL     1       5.680   4.375  15.197  0.00  0.00    +0.000 C 
ATOM     28  C   UNL     1       7.018   4.766  15.828  0.00  0.00    +0.000 C 
ATOM     29  C   UNL     1       6.306   4.643  17.179  0.00  0.00    +0.000 C 
ENDBRANCH  25  26
ENDBRANCH   8  25
TORSDOF 7
ENDMDL
MODEL 2
REMARK VINA RESULT:      -6.9      1.888      4.031
REMARK  Name = 
REMARK  8 active torsions:
REMARK  status: ('A' for Active; 'I' for Inactive)
REMARK    1  A    between atoms: C_1  and  C_2
REMARK    2  A    between atoms: C_2  and  O_3
REMARK    3  A    between atoms: O_3  and  C_4
REMARK    4  A    between atoms: C_4  and  C_6
REMARK    5  A    between atoms: C_7  and  C_8
REMARK    6  A    between atoms: C_18  and  O_19
REMARK    7  A    between atoms: C_20  and  C_21
REMARK    8  A    between atoms: C_21  and  N_22
REMARK                            x       y       z     vdW  Elec       q    Type
REMARK                         _______ _______ _______ _____ _____    ______ ____
ROOT
ATOM      1  C   UNL     1       1.124   8.042  20.175  0.00  0.00    +0.000 A 
ATOM      2  C   UNL     1       1.266   8.944  19.187  0.00  0.00    +0.000 A 
ATOM      3  O   UNL     1       2.080   8.773  18.091  0.00  0.00    +0.000 OA
ATOM      4  C   UNL     1       2.955   7.717  18.077  0.00  0.00    +0.000 A 
ATOM      5  C   UNL     1       3.882   7.735  17.038  0.00  0.00    +0.000 A 
ATOM      6  C   UNL     1       4.814   6.718  16.943  0.00  0.00    +0.000 A 
ATOM      7  C   UNL     1       4.815   5.672  17.872  0.00  0.00    +0.000 A 
ATOM      8  C   UNL     1       3.889   5.609  18.923  0.00  0.00    +0.000 A 
ATOM      9  C   UNL     1       2.937   6.681  19.014  0.00  0.00    +0.000 A 
ATOM     10  C   UNL     1       1.888   6.776  20.066  0.00  0.00    +0.000 A 
ATOM     11  O   UNL     1       1.644   5.832  20.813  0.00  0.00    +0.000 OA
ENDROOT
BRANCH   2  12
ATOM     12  C   UNL     1       0.606  10.260  19.155  0.00  0.00    +0.000 A 
ATOM     13  C   UNL     1       1.318  11.423  19.475  0.00  0.00    +0.000 A 
ATOM     14  C   UNL     1       0.687  12.668  19.440  0.00  0.00    +0.000 A 
ATOM     15  C   UNL     1      -0.657  12.760  19.080  0.00  0.00    +0.000 A 
ATOM     16  C   UNL     1      -1.372  11.610  18.748  0.00  0.00    +0.000 A 
ATOM     17  C   UNL     1      -0.740  10.363  18.779  0.00  0.00    +0.000 A 
ENDBRANCH   2  12
BRANCH   1  18
ATOM     18  C   UNL     1       0.280   8.327  21.369  0.00  0.00    +0.000 C 
ATOM     19  O   UNL     1      -0.883   7.971  21.523  0.00  0.00    +0.000 OA
BRANCH  18  20
ATOM     20  O   UNL     1       0.950   9.193  22.173  0.00  0.00    +0.000 OA
BRANCH  20  22
ATOM     21  C   UNL     1      -0.582  10.915  22.685  0.00  0.00    +0.000 C 
ATOM     22  C   UNL     1       0.206   9.753  23.261  0.00  0.00    +0.000 C 
ENDBRANCH  20  22
ENDBRANCH  18  20
ENDBRANCH   1  18
BRANCH   7  23
ATOM     23  O   UNL     1       5.767   4.713  17.702  0.00  0.00    +0.000 OA
ATOM     24  H   UNL     1       6.275   4.879  16.893  0.00  0.00    +0.000 HD
ENDBRANCH   7  23
BRANCH   8  25
ATOM     25  C   UNL     1       3.834   4.496  19.975  0.00  0.00    +0.000 C 
BRANCH  25  26
ATOM     26  N   UNL     1       3.493   3.103  19.612  0.00  0.00    +0.000 NA
ATOM     27  C   UNL     1       2.466   2.530  20.508  0.00  0.00    +0.000 C 
ATOM     28  C   UNL     1       1.619   2.169  19.286  0.00  0.00    +0.000 C 
ATOM     29  C   UNL     1       2.501   3.150  18.507  0.00  0.00    +0.000 C 
ENDBRANCH  25  26
ENDBRANCH   8  25
TORSDOF 7
ENDMDL
MODEL 3
REMARK VINA RESULT:      -6.8      1.890      3.747
REMARK  Name = 
REMARK  8 active torsions:
REMARK  status: ('A' for Active; 'I' for Inactive)
REMARK    1  A    between atoms: C_1  and  C_2
REMARK    2  A    between atoms: C_2  and  O_3
REMARK    3  A    between atoms: O_3  and  C_4
REMARK    4  A    between atoms: C_4  and  C_6
REMARK    5  A    between atoms: C_7  and  C_8
REMARK    6  A    between atoms: C_18  and  O_19
REMARK    7  A    between atoms: C_20  and  C_21
REMARK    8  A    between atoms: C_21  and  N_22
REMARK                            x       y       z     vdW  Elec       q    Type
REMARK                         _______ _______ _______ _____ _____    ______ ____
ROOT
ATOM      1  C   UNL     1       1.175   7.987  20.148  0.00  0.00    +0.000 A 
ATOM      2  C   UNL     1       1.323   8.862  19.137  0.00  0.00    +0.000 A 
ATOM      3  O   UNL     1       2.145   8.662  18.051  0.00  0.00    +0.000 OA
ATOM      4  C   UNL     1       3.020   7.605  18.071  0.00  0.00    +0.000 A 
ATOM      5  C   UNL     1       3.954   7.596  17.038  0.00  0.00    +0.000 A 
ATOM      6  C   UNL     1       4.886   6.576  16.977  0.00  0.00    +0.000 A 
ATOM      7  C   UNL     1       4.880   5.555  17.933  0.00  0.00    +0.000 A 
ATOM      8  C   UNL     1       3.947   5.521  18.979  0.00  0.00    +0.000 A 
ATOM      9  C   UNL     1       2.994   6.595  19.035  0.00  0.00    +0.000 A 
ATOM     10  C   UNL     1       1.939   6.718  20.078  0.00  0.00    +0.000 A 
ATOM     11  O   UNL     1       1.690   5.794  20.847  0.00  0.00    +0.000 OA
ENDROOT
BRANCH   2  12
ATOM     12  C   UNL     1       0.664  10.177  19.065  0.00  0.00    +0.000 A 
ATOM     13  C   UNL     1      -0.690  10.278  18.724  0.00  0.00    +0.000 A 
ATOM     14  C   UNL     1      -1.310  11.527  18.661  0.00  0.00    +0.000 A 
ATOM     15  C   UNL     1      -0.582  12.683  18.943  0.00  0.00    +0.000 A 
ATOM     16  C   UNL     1       0.764  12.592  19.295  0.00  0.00    +0.000 A 
ATOM     17  C   UNL     1       1.384  11.341  19.363  0.00  0.00    +0.000 A 
ENDBRANCH   2  12
BRANCH   1  18
ATOM     18  C   UNL     1       0.323   8.304  21.328  0.00  0.00    +0.000 C 
ATOM     19  O   UNL     1      -0.838   7.944  21.488  0.00  0.00    +0.000 OA
BRANCH  18  20
ATOM     20  O   UNL     1       0.983   9.200  22.106  0.00  0.00    +0.000 OA
BRANCH  20  22
ATOM     21  C   UNL     1      -0.520  10.957  22.581  0.00  0.00    +0.000 C 
ATOM     22  C   UNL     1       0.233   9.783  23.178  0.00  0.00    +0.000 C 
ENDBRANCH  20  22
ENDBRANCH  18  20
ENDBRANCH   1  18
BRANCH   7  23
ATOM     23  O   UNL     1       5.833   4.591  17.795  0.00  0.00    +0.000 OA
ATOM     24  H   UNL     1       6.629   4.829  18.296  0.00  0.00    +0.000 HD
ENDBRANCH   7  23
BRANCH   8  25
ATOM     25  C   UNL     1       3.884   4.436  20.060  0.00  0.00    +0.000 C 
BRANCH  25  26
ATOM     26  N   UNL     1       3.181   3.155  19.832  0.00  0.00    +0.000 NA
ATOM     27  C   UNL     1       2.681   3.034  18.446  0.00  0.00    +0.000 C 
ATOM     28  C   UNL     1       3.408   1.693  18.314  0.00  0.00    +0.000 C 
ATOM     29  C   UNL     1       4.206   2.116  19.552  0.00  0.00    +0.000 C 
ENDBRANCH  25  26
ENDBRANCH   8  25
TORSDOF 7
ENDMDL
MODEL 4
REMARK VINA RESULT:      -6.7      0.982      1.398
REMARK  Name = 
REMARK  8 active torsions:
REMARK  status: ('A' for Active; 'I' for Inactive)
REMARK    1  A    between atoms: C_1  and  C_2
REMARK    2  A    between atoms: C_2  and  O_3
REMARK    3  A    between atoms: O_3  and  C_4
REMARK    4  A    between atoms: C_4  and  C_6
REMARK    5  A    between atoms: C_7  and  C_8
REMARK    6  A    between atoms: C_18  and  O_19
REMARK    7  A    between atoms: C_20  and  C_21
REMARK    8  A    between atoms: C_21  and  N_22
REMARK                            x       y       z     vdW  Elec       q    Type
REMARK                         _______ _______ _______ _____ _____    ______ ____
ROOT
ATOM      1  C   UNL     1       1.894   8.261  19.015  0.00  0.00    +0.000 A 
ATOM      2  C   UNL     1       1.427   8.063  20.261  0.00  0.00    +0.000 A 
ATOM      3  O   UNL     1       1.627   6.914  20.991  0.00  0.00    +0.000 OA
ATOM      4  C   UNL     1       2.164   5.818  20.364  0.00  0.00    +0.000 A 
ATOM      5  C   UNL     1       2.139   4.642  21.110  0.00  0.00    +0.000 A 
ATOM      6  C   UNL     1       2.648   3.480  20.561  0.00  0.00    +0.000 A 
ATOM      7  C   UNL     1       3.199   3.488  19.275  0.00  0.00    +0.000 A 
ATOM      8  C   UNL     1       3.257   4.655  18.498  0.00  0.00    +0.000 A 
ATOM      9  C   UNL     1       2.712   5.850  19.079  0.00  0.00    +0.000 A 
ATOM     10  C   UNL     1       2.686   7.172  18.395  0.00  0.00    +0.000 A 
ATOM     11  O   UNL     1       3.316   7.367  17.359  0.00  0.00    +0.000 OA
ENDROOT
BRANCH   2  12
ATOM     12  C   UNL     1       0.601   9.026  21.007  0.00  0.00    +0.000 A 
ATOM     13  C   UNL     1      -0.276   9.885  20.333  0.00  0.00    +0.000 A 
ATOM     14  C   UNL     1      -1.060  10.793  21.047  0.00  0.00    +0.000 A 
ATOM     15  C   UNL     1      -0.977  10.847  22.439  0.00  0.00    +0.000 A 
ATOM     16  C   UNL     1      -0.115   9.988  23.119  0.00  0.00    +0.000 A 
ATOM     17  C   UNL     1       0.667   9.074  22.406  0.00  0.00    +0.000 A 
ENDBRANCH   2  12
BRANCH   1  18
ATOM     18  C   UNL     1       1.576   9.503  18.257  0.00  0.00    +0.000 C 
ATOM     19  O   UNL     1       0.637   9.647  17.482  0.00  0.00    +0.000 OA
BRANCH  18  20
ATOM     20  O   UNL     1       2.594  10.384  18.429  0.00  0.00    +0.000 OA
BRANCH  20  22
ATOM     21  C   UNL     1       1.880  12.490  19.220  0.00  0.00    +0.000 C 
ATOM     22  C   UNL     1       2.352  11.728  17.997  0.00  0.00    +0.000 C 
ENDBRANCH  20  22
ENDBRANCH  18  20
ENDBRANCH   1  18
BRANCH   7  23
ATOM     23  O   UNL     1       3.678   2.300  18.814  0.00  0.00    +0.000 OA
ATOM     24  H   UNL     1       3.404   1.575  19.397  0.00  0.00    +0.000 HD
ENDBRANCH   7  23
BRANCH   8  25
ATOM     25  C   UNL     1       3.844   4.735  17.085  0.00  0.00    +0.000 C 
BRANCH  25  26
ATOM     26  N   UNL     1       5.049   3.968  16.701  0.00  0.00    +0.000 NA
ATOM     27  C   UNL     1       5.560   4.362  15.371  0.00  0.00    +0.000 C 
ATOM     28  C   UNL     1       6.939   4.608  15.988  0.00  0.00    +0.000 C 
ATOM     29  C   UNL     1       6.224   4.613  17.342  0.00  0.00    +0.000 C 
ENDBRANCH  25  26
ENDBRANCH   8  25
TORSDOF 7
ENDMDL
MODEL 5
REMARK VINA RESULT:      -6.6      2.504      4.827
REMARK  Name = 
REMARK  8 active torsions:
REMARK  status: ('A' for Active; 'I' for Inactive)
REMARK    1  A    between atoms: C_1  and  C_2
REMARK    2  A    between atoms: C_2  and  O_3
REMARK    3  A    between atoms: O_3  and  C_4
REMARK    4  A    between atoms: C_4  and  C_6
REMARK    5  A    between atoms: C_7  and  C_8
REMARK    6  A    between atoms: C_18  and  O_19
REMARK    7  A    between atoms: C_20  and  C_21
REMARK    8  A    between atoms: C_21  and  N_22
REMARK                            x       y       z     vdW  Elec       q    Type
REMARK                         _______ _______ _______ _____ _____    ______ ____
ROOT
ATOM      1  C   UNL     1       0.605   9.947  20.792  0.00  0.00    +0.000 A 
ATOM      2  C   UNL     1       0.975  10.719  19.754  0.00  0.00    +0.000 A 
ATOM      3  O   UNL     1       1.609  10.251  18.626  0.00  0.00    +0.000 OA
ATOM      4  C   UNL     1       2.075   8.961  18.617  0.00  0.00    +0.000 A 
ATOM      5  C   UNL     1       2.882   8.634  17.530  0.00  0.00    +0.000 A 
ATOM      6  C   UNL     1       3.409   7.359  17.436  0.00  0.00    +0.000 A 
ATOM      7  C   UNL     1       3.120   6.401  18.413  0.00  0.00    +0.000 A 
ATOM      8  C   UNL     1       2.299   6.686  19.515  0.00  0.00    +0.000 A 
ATOM      9  C   UNL     1       1.771   8.019  19.604  0.00  0.00    +0.000 A 
ATOM     10  C   UNL     1       0.889   8.494  20.705  0.00  0.00    +0.000 A 
ATOM     11  O   UNL     1       0.393   7.710  21.509  0.00  0.00    +0.000 OA
ENDROOT
BRANCH   2  12
ATOM     12  C   UNL     1       0.796  12.179  19.693  0.00  0.00    +0.000 A 
ATOM     13  C   UNL     1       1.648  13.032  20.405  0.00  0.00    +0.000 A 
ATOM     14  C   UNL     1       1.475  14.416  20.339  0.00  0.00    +0.000 A 
ATOM     15  C   UNL     1       0.453  14.957  19.559  0.00  0.00    +0.000 A 
ATOM     16  C   UNL     1      -0.394  14.116  18.838  0.00  0.00    +0.000 A 
ATOM     17  C   UNL     1      -0.218  12.730  18.899  0.00  0.00    +0.000 A 
ENDBRANCH   2  12
BRANCH   1  18
ATOM     18  C   UNL     1      -0.012  10.534  22.013  0.00  0.00    +0.000 C 
ATOM     19  O   UNL     1       0.419  10.424  23.156  0.00  0.00    +0.000 OA
BRANCH  18  20
ATOM     20  O   UNL     1      -1.218  11.058  21.676  0.00  0.00    +0.000 OA
BRANCH  20  22
ATOM     21  C   UNL     1      -1.519  13.267  22.451  0.00  0.00    +0.000 C 
ATOM     22  C   UNL     1      -1.888  11.815  22.690  0.00  0.00    +0.000 C 
ENDBRANCH  20  22
ENDBRANCH  18  20
ENDBRANCH   1  18
BRANCH   7  23
ATOM     23  O   UNL     1       3.679   5.172  18.241  0.00  0.00    +0.000 OA
ATOM     24  H   UNL     1       3.994   4.822  19.089  0.00  0.00    +0.000 HD
ENDBRANCH   7  23
BRANCH   8  25
ATOM     25  C   UNL     1       1.944   5.688  20.622  0.00  0.00    +0.000 C 
BRANCH  25  26
ATOM     26  N   UNL     1       2.224   4.242  20.481  0.00  0.00    +0.000 NA
ATOM     27  C   UNL     1       2.326   3.565  21.791  0.00  0.00    +0.000 C 
ATOM     28  C   UNL     1       1.274   2.550  21.334  0.00  0.00    +0.000 C 
ATOM     29  C   UNL     1       0.934   3.551  20.225  0.00  0.00    +0.000 C 
ENDBRANCH  25  26
ENDBRANCH   8  25
TORSDOF 7
ENDMDL
MODEL 6
REMARK VINA RESULT:      -6.6      2.719      7.778
REMARK  Name = 
REMARK  8 active torsions:
REMARK  status: ('A' for Active; 'I' for Inactive)
REMARK    1  A    between atoms: C_1  and  C_2
REMARK    2  A    between atoms: C_2  and  O_3
REMARK    3  A    between atoms: O_3  and  C_4
REMARK    4  A    between atoms: C_4  and  C_6
REMARK    5  A    between atoms: C_7  and  C_8
REMARK    6  A    between atoms: C_18  and  O_19
REMARK    7  A    between atoms: C_20  and  C_21
REMARK    8  A    between atoms: C_21  and  N_22
REMARK                            x       y       z     vdW  Elec       q    Type
REMARK                         _______ _______ _______ _____ _____    ______ ____
ROOT
ATOM      1  C   UNL     1       2.062   6.503  20.087  0.00  0.00    +0.000 A 
ATOM      2  C   UNL     1       2.879   6.643  19.027  0.00  0.00    +0.000 A 
ATOM      3  O   UNL     1       3.058   7.819  18.336  0.00  0.00    +0.000 OA
ATOM      4  C   UNL     1       2.224   8.875  18.600  0.00  0.00    +0.000 A 
ATOM      5  C   UNL     1       2.334   9.947  17.718  0.00  0.00    +0.000 A 
ATOM      6  C   UNL     1       1.527  11.056  17.895  0.00  0.00    +0.000 A 
ATOM      7  C   UNL     1       0.622  11.108  18.960  0.00  0.00    +0.000 A 
ATOM      8  C   UNL     1       0.492  10.056  19.879  0.00  0.00    +0.000 A 
ATOM      9  C   UNL     1       1.328   8.906  19.672  0.00  0.00    +0.000 A 
ATOM     10  C   UNL     1       1.318   7.701  20.545  0.00  0.00    +0.000 A 
ATOM     11  O   UNL     1       0.729   7.699  21.623  0.00  0.00    +0.000 OA
ENDROOT
BRANCH   2  12
ATOM     12  C   UNL     1       3.664   5.552  18.428  0.00  0.00    +0.000 A 
ATOM     13  C   UNL     1       3.105   4.730  17.441  0.00  0.00    +0.000 A 
ATOM     14  C   UNL     1       3.856   3.699  16.874  0.00  0.00    +0.000 A 
ATOM     15  C   UNL     1       5.172   3.484  17.285  0.00  0.00    +0.000 A 
ATOM     16  C   UNL     1       5.741   4.304  18.259  0.00  0.00    +0.000 A 
ATOM     17  C   UNL     1       4.991   5.340  18.824  0.00  0.00    +0.000 A 
ENDBRANCH   2  12
BRANCH   1  18
ATOM     18  C   UNL     1       1.862   5.181  20.742  0.00  0.00    +0.000 C 
ATOM     19  O   UNL     1       2.598   4.684  21.588  0.00  0.00    +0.000 OA
BRANCH  18  20
ATOM     20  O   UNL     1       0.836   4.544  20.122  0.00  0.00    +0.000 OA
BRANCH  20  22
ATOM     21  C   UNL     1       0.859   2.535  18.884  0.00  0.00    +0.000 C 
ATOM     22  C   UNL     1       0.781   3.122  20.281  0.00  0.00    +0.000 C 
ENDBRANCH  20  22
ENDBRANCH  18  20
ENDBRANCH   1  18
BRANCH   7  23
ATOM     23  O   UNL     1      -0.131  12.238  19.059  0.00  0.00    +0.000 OA
ATOM     24  H   UNL     1       0.292  12.970  18.583  0.00  0.00    +0.000 HD
ENDBRANCH   7  23
BRANCH   8  25
ATOM     25  C   UNL     1      -0.478  10.046  21.065  0.00  0.00    +0.000 C 
BRANCH  25  26
ATOM     26  N   UNL     1      -0.595  11.201  21.981  0.00  0.00    +0.000 NA
ATOM     27  C   UNL     1      -1.824  11.985  21.735  0.00  0.00    +0.000 C 
ATOM     28  C   UNL     1      -2.194  11.845  23.213  0.00  0.00    +0.000 C 
ATOM     29  C   UNL     1      -1.165  10.711  23.262  0.00  0.00    +0.000 C 
ENDBRANCH  25  26
ENDBRANCH   8  25
TORSDOF 7
ENDMDL
MODEL 7
REMARK VINA RESULT:      -6.5      0.550      1.186
REMARK  Name = 
REMARK  8 active torsions:
REMARK  status: ('A' for Active; 'I' for Inactive)
REMARK    1  A    between atoms: C_1  and  C_2
REMARK    2  A    between atoms: C_2  and  O_3
REMARK    3  A    between atoms: O_3  and  C_4
REMARK    4  A    between atoms: C_4  and  C_6
REMARK    5  A    between atoms: C_7  and  C_8
REMARK    6  A    between atoms: C_18  and  O_19
REMARK    7  A    between atoms: C_20  and  C_21
REMARK    8  A    between atoms: C_21  and  N_22
REMARK                            x       y       z     vdW  Elec       q    Type
REMARK                         _______ _______ _______ _____ _____    ______ ____
ROOT
ATOM      1  C   UNL     1       2.084   8.306  18.864  0.00  0.00    +0.000 A 
ATOM      2  C   UNL     1       1.696   8.028  20.122  0.00  0.00    +0.000 A 
ATOM      3  O   UNL     1       1.996   6.861  20.786  0.00  0.00    +0.000 OA
ATOM      4  C   UNL     1       2.557   5.826  20.083  0.00  0.00    +0.000 A 
ATOM      5  C   UNL     1       2.635   4.619  20.774  0.00  0.00    +0.000 A 
ATOM      6  C   UNL     1       3.176   3.512  20.146  0.00  0.00    +0.000 A 
ATOM      7  C   UNL     1       3.656   3.607  18.836  0.00  0.00    +0.000 A 
ATOM      8  C   UNL     1       3.610   4.808  18.112  0.00  0.00    +0.000 A 
ATOM      9  C   UNL     1       3.033   5.944  18.775  0.00  0.00    +0.000 A 
ATOM     10  C   UNL     1       2.900   7.292  18.155  0.00  0.00    +0.000 A 
ATOM     11  O   UNL     1       3.462   7.566  17.098  0.00  0.00    +0.000 OA
ENDROOT
BRANCH   2  12
ATOM     12  C   UNL     1       0.860   8.910  20.953  0.00  0.00    +0.000 A 
ATOM     13  C   UNL     1       1.092  10.291  20.985  0.00  0.00    +0.000 A 
ATOM     14  C   UNL     1       0.293  11.121  21.773  0.00  0.00    +0.000 A 
ATOM     15  C   UNL     1      -0.745  10.580  22.530  0.00  0.00    +0.000 A 
ATOM     16  C   UNL     1      -0.991   9.208  22.496  0.00  0.00    +0.000 A 
ATOM     17  C   UNL     1      -0.195   8.375  21.704  0.00  0.00    +0.000 A 
ENDBRANCH   2  12
BRANCH   1  18
ATOM     18  C   UNL     1       1.660   9.560  18.182  0.00  0.00    +0.000 C 
ATOM     19  O   UNL     1       2.309  10.598  18.127  0.00  0.00    +0.000 OA
BRANCH  18  20
ATOM     20  O   UNL     1       0.367   9.420  17.789  0.00  0.00    +0.000 OA
BRANCH  20  22
ATOM     21  C   UNL     1      -1.739  10.173  18.542  0.00  0.00    +0.000 C 
ATOM     22  C   UNL     1      -0.450  10.593  17.862  0.00  0.00    +0.000 C 
ENDBRANCH  20  22
ENDBRANCH  18  20
ENDBRANCH   1  18
BRANCH   7  23
ATOM     23  O   UNL     1       4.173   2.469  18.296  0.00  0.00    +0.000 OA
ATOM     24  H   UNL     1       3.815   2.324  17.407  0.00  0.00    +0.000 HD
ENDBRANCH   7  23
BRANCH   8  25
ATOM     25  C   UNL     1       4.115   4.983  16.676  0.00  0.00    +0.000 C 
BRANCH  25  26
ATOM     26  N   UNL     1       5.514   5.368  16.388  0.00  0.00    +0.000 NA
ATOM     27  C   UNL     1       6.327   5.470  17.618  0.00  0.00    +0.000 C 
ATOM     28  C   UNL     1       7.350   4.508  17.007  0.00  0.00    +0.000 C 
ATOM     29  C   UNL     1       6.255   4.138  16.002  0.00  0.00    +0.000 C 
ENDBRANCH  25  26
ENDBRANCH   8  25
TORSDOF 7
ENDMDL
MODEL 8
REMARK VINA RESULT:      -6.5      2.332      4.570
REMARK  Name = 
REMARK  8 active torsions:
REMARK  status: ('A' for Active; 'I' for Inactive)
REMARK    1  A    between atoms: C_1  and  C_2
REMARK    2  A    between atoms: C_2  and  O_3
REMARK    3  A    between atoms: O_3  and  C_4
REMARK    4  A    between atoms: C_4  and  C_6
REMARK    5  A    between atoms: C_7  and  C_8
REMARK    6  A    between atoms: C_18  and  O_19
REMARK    7  A    between atoms: C_20  and  C_21
REMARK    8  A    between atoms: C_21  and  N_22
REMARK                            x       y       z     vdW  Elec       q    Type
REMARK                         _______ _______ _______ _____ _____    ______ ____
ROOT
ATOM      1  C   UNL     1       0.810   9.570  20.858  0.00  0.00    +0.000 A 
ATOM      2  C   UNL     1       1.033  10.354  19.788  0.00  0.00    +0.000 A 
ATOM      3  O   UNL     1       1.611   9.923  18.616  0.00  0.00    +0.000 OA
ATOM      4  C   UNL     1       2.179   8.675  18.580  0.00  0.00    +0.000 A 
ATOM      5  C   UNL     1       2.922   8.400  17.435  0.00  0.00    +0.000 A 
ATOM      6  C   UNL     1       3.541   7.170  17.308  0.00  0.00    +0.000 A 
ATOM      7  C   UNL     1       3.410   6.206  18.313  0.00  0.00    +0.000 A 
ATOM      8  C   UNL     1       2.658   6.439  19.474  0.00  0.00    +0.000 A 
ATOM      9  C   UNL     1       2.032   7.726  19.595  0.00  0.00    +0.000 A 
ATOM     10  C   UNL     1       1.204   8.144  20.759  0.00  0.00    +0.000 A 
ATOM     11  O   UNL     1       0.838   7.333  21.606  0.00  0.00    +0.000 OA
ENDROOT
BRANCH   2  12
ATOM     12  C   UNL     1       0.731  11.794  19.730  0.00  0.00    +0.000 A 
ATOM     13  C   UNL     1      -0.306  12.273  18.918  0.00  0.00    +0.000 A 
ATOM     14  C   UNL     1      -0.589  13.639  18.870  0.00  0.00    +0.000 A 
ATOM     15  C   UNL     1       0.157  14.536  19.635  0.00  0.00    +0.000 A 
ATOM     16  C   UNL     1       1.184  14.067  20.454  0.00  0.00    +0.000 A 
ATOM     17  C   UNL     1       1.465  12.699  20.507  0.00  0.00    +0.000 A 
ENDBRANCH   2  12
BRANCH   1  18
ATOM     18  C   UNL     1       0.246  10.123  22.120  0.00  0.00    +0.000 C 
ATOM     19  O   UNL     1       0.757  10.034  23.231  0.00  0.00    +0.000 OA
BRANCH  18  20
ATOM     20  O   UNL     1      -1.007  10.583  21.866  0.00  0.00    +0.000 OA
BRANCH  20  22
ATOM     21  C   UNL     1      -1.995  12.695  22.225  0.00  0.00    +0.000 C 
ATOM     22  C   UNL     1      -1.607  11.387  22.887  0.00  0.00    +0.000 C 
ENDBRANCH  20  22
ENDBRANCH  18  20
ENDBRANCH   1  18
BRANCH   7  23
ATOM     23  O   UNL     1       4.053   5.023  18.106  0.00  0.00    +0.000 OA
ATOM     24  H   UNL     1       3.964   4.449  18.883  0.00  0.00    +0.000 HD
ENDBRANCH   7  23
BRANCH   8  25
ATOM     25  C   UNL     1       2.474   5.431  20.614  0.00  0.00    +0.000 C 
BRANCH  25  26
ATOM     26  N   UNL     1       2.483   3.972  20.367  0.00  0.00    +0.000 NA
ATOM     27  C   UNL     1       2.336   3.196  21.616  0.00  0.00    +0.000 C 
ATOM     28  C   UNL     1       1.154   2.446  20.995  0.00  0.00    +0.000 C 
ATOM     29  C   UNL     1       1.113   3.571  19.957  0.00  0.00    +0.000 C 
ENDBRANCH  25  26
ENDBRANCH   8  25
TORSDOF 7
ENDMDL
MODEL 9
REMARK VINA RESULT:      -6.4      2.866      7.078
REMARK  Name = 
REMARK  8 active torsions:
REMARK  status: ('A' for Active; 'I' for Inactive)
REMARK    1  A    between atoms: C_1  and  C_2
REMARK    2  A    between atoms: C_2  and  O_3
REMARK    3  A    between atoms: O_3  and  C_4
REMARK    4  A    between atoms: C_4  and  C_6
REMARK    5  A    between atoms: C_7  and  C_8
REMARK    6  A    between atoms: C_18  and  O_19
REMARK    7  A    between atoms: C_20  and  C_21
REMARK    8  A    between atoms: C_21  and  N_22
REMARK                            x       y       z     vdW  Elec       q    Type
REMARK                         _______ _______ _______ _____ _____    ______ ____
ROOT
ATOM      1  C   UNL     1       2.114   7.155  19.382  0.00  0.00    +0.000 A 
ATOM      2  C   UNL     1       1.436   6.419  20.281  0.00  0.00    +0.000 A 
ATOM      3  O   UNL     1       0.524   6.931  21.174  0.00  0.00    +0.000 OA
ATOM      4  C   UNL     1       0.424   8.293  21.308  0.00  0.00    +0.000 A 
ATOM      5  C   UNL     1      -0.364   8.723  22.374  0.00  0.00    +0.000 A 
ATOM      6  C   UNL     1      -0.518  10.078  22.598  0.00  0.00    +0.000 A 
ATOM      7  C   UNL     1       0.096  11.009  21.755  0.00  0.00    +0.000 A 
ATOM      8  C   UNL     1       0.885  10.616  20.662  0.00  0.00    +0.000 A 
ATOM      9  C   UNL     1       1.045   9.205  20.452  0.00  0.00    +0.000 A 
ATOM     10  C   UNL     1       1.849   8.613  19.347  0.00  0.00    +0.000 A 
ATOM     11  O   UNL     1       2.267   9.304  18.421  0.00  0.00    +0.000 OA
ENDROOT
BRANCH   2  12
ATOM     12  C   UNL     1       1.601   4.968  20.468  0.00  0.00    +0.000 A 
ATOM     13  C   UNL     1       2.286   4.467  21.583  0.00  0.00    +0.000 A 
ATOM     14  C   UNL     1       2.437   3.089  21.756  0.00  0.00    +0.000 A 
ATOM     15  C   UNL     1       1.901   2.204  20.821  0.00  0.00    +0.000 A 
ATOM     16  C   UNL     1       1.209   2.693  19.714  0.00  0.00    +0.000 A 
ATOM     17  C   UNL     1       1.053   4.072  19.541  0.00  0.00    +0.000 A 
ENDBRANCH   2  12
BRANCH   1  18
ATOM     18  C   UNL     1       3.141   6.542  18.495  0.00  0.00    +0.000 C 
ATOM     19  O   UNL     1       2.975   6.225  17.322  0.00  0.00    +0.000 OA
BRANCH  18  20
ATOM     20  O   UNL     1       4.228   6.230  19.247  0.00  0.00    +0.000 OA
BRANCH  20  22
ATOM     21  C   UNL     1       4.950   3.988  19.096  0.00  0.00    +0.000 C 
ATOM     22  C   UNL     1       5.217   5.404  18.621  0.00  0.00    +0.000 C 
ENDBRANCH  20  22
ENDBRANCH  18  20
ENDBRANCH   1  18
BRANCH   7  23
ATOM     23  O   UNL     1      -0.110  12.322  22.049  0.00  0.00    +0.000 OA
ATOM     24  H   UNL     1       0.180  12.516  22.954  0.00  0.00    +0.000 HD
ENDBRANCH   7  23
BRANCH   8  25
ATOM     25  C   UNL     1       1.587  11.580  19.700  0.00  0.00    +0.000 C 
BRANCH  25  26
ATOM     26  N   UNL     1       1.612  13.039  19.945  0.00  0.00    +0.000 NA
ATOM     27  C   UNL     1       2.829  13.675  19.397  0.00  0.00    +0.000 C 
ATOM     28  C   UNL     1       1.950  14.665  18.629  0.00  0.00    +0.000 C 
ATOM     29  C   UNL     1       0.796  13.692  18.888  0.00  0.00    +0.000 C 
ENDBRANCH  25  26
ENDBRANCH   8  25
TORSDOF 7
ENDMDL
