MODEL 1
REMARK VINA RESULT:      -8.4      0.000      0.000
REMARK  Name = 
REMARK  5 active torsions:
REMARK  status: ('A' for Active; 'I' for Inactive)
REMARK    1  A    between atoms: C_2  and  C_11
REMARK    2  A    between atoms: N_3  and  C_4
REMARK    3  A    between atoms: N_14  and  S_15
REMARK    4  A    between atoms: S_15  and  C_18
REMARK    5  A    between atoms: C_18  and  C_19
REMARK                            x       y       z     vdW  Elec       q    Type
REMARK                         _______ _______ _______ _____ _____    ______ ____
ROOT
ATOM      1  C   UNL     1       7.827   5.930  18.535  0.00  0.00    +0.000 C 
ATOM      2  C   UNL     1       7.809   4.925  17.378  0.00  0.00    +0.000 C 
ATOM      3  C   UNL     1       6.433   4.848  16.730  0.00  0.00    +0.000 C 
ATOM      4  N   UNL     1       5.467   4.344  17.739  0.00  0.00    +0.000 NA
ATOM      5  C   UNL     1       5.326   5.348  18.850  0.00  0.00    +0.000 C 
ATOM      6  C   UNL     1       6.680   5.629  19.515  0.00  0.00    +0.000 C 
ENDROOT
BRANCH   1   8
ATOM      7  O   UNL     1       7.287   7.727  17.007  0.00  0.00    +0.000 OA
ATOM      8  C   UNL     1       7.851   7.387  18.038  0.00  0.00    +0.000 C 
ATOM      9  N   UNL     1       8.570   8.215  18.889  0.00  0.00    +0.000 N 
ATOM     10  H   UNL     1       9.042   7.778  19.668  0.00  0.00    +0.000 HD
BRANCH   9  11
ATOM     11  C   UNL     1       8.815   9.596  18.752  0.00  0.00    +0.000 A 
ATOM     12  C   UNL     1       8.338  10.369  17.693  0.00  0.00    +0.000 A 
ATOM     13  C   UNL     1       8.621  11.739  17.636  0.00  0.00    +0.000 A 
ATOM     14  C   UNL     1       9.400  12.341  18.624  0.00  0.00    +0.000 A 
ATOM     15  C   UNL     1       9.877  11.570  19.680  0.00  0.00    +0.000 A 
ATOM     16 CL   UNL     1      10.864  12.294  20.891  0.00  0.00    +0.000 Cl
ATOM     17  C   UNL     1       9.573  10.212  19.758  0.00  0.00    +0.000 A 
ENDBRANCH   9  11
ENDBRANCH   1   8
BRANCH   4  18
ATOM     18  S   UNL     1       3.926   3.895  17.075  0.00  0.00    +0.000 S 
ATOM     19  O   UNL     1       2.967   4.865  17.569  0.00  0.00    +0.000 OA
ATOM     20  O   UNL     1       4.147   3.706  15.660  0.00  0.00    +0.000 OA
BRANCH  18  21
ATOM     21  C   UNL     1       3.592   2.298  17.857  0.00  0.00    +0.000 C 
BRANCH  21  22
ATOM     22  C   UNL     1       2.783   2.513  19.116  0.00  0.00    +0.000 A 
ATOM     23  C   UNL     1       1.389   2.675  19.045  0.00  0.00    +0.000 A 
ATOM     24  C   UNL     1       0.640   2.903  20.201  0.00  0.00    +0.000 A 
ATOM     25  C   UNL     1       1.271   2.965  21.440  0.00  0.00    +0.000 A 
ATOM     26  C   UNL     1       2.650   2.788  21.525  0.00  0.00    +0.000 A 
ATOM     27  C   UNL     1       3.404   2.561  20.371  0.00  0.00    +0.000 A 
ENDBRANCH  21  22
ENDBRANCH  18  21
ENDBRANCH   4  18
TORSDOF 5
ENDMDL
MODEL 2
REMARK VINA RESULT:      -8.3      0.431      1.040
REMARK  Name = 
REMARK  5 active torsions:
REMARK  status: ('A' for Active; 'I' for Inactive)
REMARK    1  A    between atoms: C_2  and  C_11
REMARK    2  A    between atoms: N_3  and  C_4
REMARK    3  A    between atoms: N_14  and  S_15
REMARK    4  A    between atoms: S_15  and  C_18
REMARK    5  A    between atoms: C_18  and  C_19
REMARK                            x       y       z     vdW  Elec       q    Type
REMARK                         _______ _______ _______ _____ _____    ______ ____
ROOT
ATOM      1  C   UNL     1       7.934   6.026  18.521  0.00  0.00    +0.000 C 
ATOM      2  C   UNL     1       7.840   5.133  17.279  0.00  0.00    +0.000 C 
ATOM      3  C   UNL     1       6.422   5.100  16.724  0.00  0.00    +0.000 C 
ATOM      4  N   UNL     1       5.531   4.494  17.745  0.00  0.00    +0.000 NA
ATOM      5  C   UNL     1       5.464   5.389  18.953  0.00  0.00    +0.000 C 
ATOM      6  C   UNL     1       6.860   5.623  19.546  0.00  0.00    +0.000 C 
ENDROOT
BRANCH   1   8
ATOM      7  O   UNL     1       7.247   7.957  17.233  0.00  0.00    +0.000 OA
ATOM      8  C   UNL     1       7.915   7.523  18.162  0.00  0.00    +0.000 C 
ATOM      9  N   UNL     1       8.728   8.270  19.003  0.00  0.00    +0.000 N 
ATOM     10  H   UNL     1       9.277   7.764  19.683  0.00  0.00    +0.000 HD
BRANCH   9  11
ATOM     11  C   UNL     1       8.968   9.658  18.969  0.00  0.00    +0.000 A 
ATOM     12  C   UNL     1       9.007  10.412  17.796  0.00  0.00    +0.000 A 
ATOM     13  C   UNL     1       9.244  11.791  17.851  0.00  0.00    +0.000 A 
ATOM     14  C   UNL     1       9.466  12.421  19.075  0.00  0.00    +0.000 A 
ATOM     15  C   UNL     1       9.428  11.670  20.245  0.00  0.00    +0.000 A 
ATOM     16 CL   UNL     1       9.728  12.430  21.761  0.00  0.00    +0.000 Cl
ATOM     17  C   UNL     1       9.162  10.302  20.199  0.00  0.00    +0.000 A 
ENDBRANCH   9  11
ENDBRANCH   1   8
BRANCH   4  18
ATOM     18  S   UNL     1       3.950   4.091  17.151  0.00  0.00    +0.000 S 
ATOM     19  O   UNL     1       3.033   5.050  17.737  0.00  0.00    +0.000 OA
ATOM     20  O   UNL     1       4.090   3.958  15.719  0.00  0.00    +0.000 OA
BRANCH  18  21
ATOM     21  C   UNL     1       3.638   2.467  17.886  0.00  0.00    +0.000 C 
BRANCH  21  22
ATOM     22  C   UNL     1       2.791   2.630  19.127  0.00  0.00    +0.000 A 
ATOM     23  C   UNL     1       3.388   2.634  20.399  0.00  0.00    +0.000 A 
ATOM     24  C   UNL     1       2.609   2.755  21.550  0.00  0.00    +0.000 A 
ATOM     25  C   UNL     1       1.225   2.879  21.446  0.00  0.00    +0.000 A 
ATOM     26  C   UNL     1       0.623   2.893  20.191  0.00  0.00    +0.000 A 
ATOM     27  C   UNL     1       1.400   2.771  19.035  0.00  0.00    +0.000 A 
ENDBRANCH  21  22
ENDBRANCH  18  21
ENDBRANCH   4  18
TORSDOF 5
ENDMDL
MODEL 3
REMARK VINA RESULT:      -8.1      6.879      8.767
REMARK  Name = 
REMARK  5 active torsions:
REMARK  status: ('A' for Active; 'I' for Inactive)
REMARK    1  A    between atoms: C_2  and  C_11
REMARK    2  A    between atoms: N_3  and  C_4
REMARK    3  A    between atoms: N_14  and  S_15
REMARK    4  A    between atoms: S_15  and  C_18
REMARK    5  A    between atoms: C_18  and  C_19
REMARK                            x       y       z     vdW  Elec       q    Type
REMARK                         _______ _______ _______ _____ _____    ______ ____
ROOT
ATOM      1  C   UNL     1       1.153  10.093  19.281  0.00  0.00    +0.000 C 
ATOM      2  C   UNL     1       1.864   9.480  18.068  0.00  0.00    +0.000 C 
ATOM      3  C   UNL     1       1.723   7.964  18.049  0.00  0.00    +0.000 C 
ATOM      4  N   UNL     1       2.396   7.414  19.253  0.00  0.00    +0.000 NA
ATOM      5  C   UNL     1       1.667   7.864  20.490  0.00  0.00    +0.000 C 
ATOM      6  C   UNL     1       1.614   9.396  20.572  0.00  0.00    +0.000 C 
ENDROOT
BRANCH   1   8
ATOM      7  O   UNL     1      -1.133   9.681  19.957  0.00  0.00    +0.000 OA
ATOM      8  C   UNL     1      -0.375  10.121  19.104  0.00  0.00    +0.000 C 
ATOM      9  N   UNL     1      -0.748  10.690  17.893  0.00  0.00    +0.000 N 
ATOM     10  H   UNL     1      -0.007  10.944  17.256  0.00  0.00    +0.000 HD
BRANCH   9  11
ATOM     11  C   UNL     1      -2.050  10.873  17.386  0.00  0.00    +0.000 A 
ATOM     12  C   UNL     1      -2.448  10.484  16.107  0.00  0.00    +0.000 A 
ATOM     13  C   UNL     1      -3.765  10.695  15.682  0.00  0.00    +0.000 A 
ATOM     14  C   UNL     1      -4.687  11.317  16.524  0.00  0.00    +0.000 A 
ATOM     15  C   UNL     1      -4.290  11.707  17.800  0.00  0.00    +0.000 A 
ATOM     16 CL   UNL     1      -5.410  12.501  18.839  0.00  0.00    +0.000 Cl
ATOM     17  C   UNL     1      -2.988  11.471  18.239  0.00  0.00    +0.000 A 
ENDBRANCH   9  11
ENDBRANCH   1   8
BRANCH   4  18
ATOM     18  S   UNL     1       2.603   5.690  19.217  0.00  0.00    +0.000 S 
ATOM     19  O   UNL     1       2.144   5.193  20.500  0.00  0.00    +0.000 OA
ATOM     20  O   UNL     1       2.006   5.247  17.979  0.00  0.00    +0.000 OA
BRANCH  18  21
ATOM     21  C   UNL     1       4.401   5.496  19.130  0.00  0.00    +0.000 C 
BRANCH  21  22
ATOM     22  C   UNL     1       4.825   5.372  17.685  0.00  0.00    +0.000 A 
ATOM     23  C   UNL     1       4.998   6.520  16.894  0.00  0.00    +0.000 A 
ATOM     24  C   UNL     1       5.361   6.411  15.551  0.00  0.00    +0.000 A 
ATOM     25  C   UNL     1       5.561   5.155  14.982  0.00  0.00    +0.000 A 
ATOM     26  C   UNL     1       5.410   4.010  15.760  0.00  0.00    +0.000 A 
ATOM     27  C   UNL     1       5.046   4.115  17.105  0.00  0.00    +0.000 A 
ENDBRANCH  21  22
ENDBRANCH  18  21
ENDBRANCH   4  18
TORSDOF 5
ENDMDL
MODEL 4
REMARK VINA RESULT:      -8.1      4.460      7.117
REMARK  Name = 
REMARK  5 active torsions:
REMARK  status: ('A' for Active; 'I' for Inactive)
REMARK    1  A    between atoms: C_2  and  C_11
REMARK    2  A    between atoms: N_3  and  C_4
REMARK    3  A    between atoms: N_14  and  S_15
REMARK    4  A    between atoms: S_15  and  C_18
REMARK    5  A    between atoms: C_18  and  C_19
REMARK                            x       y       z     vdW  Elec       q    Type
REMARK                         _______ _______ _______ _____ _____    ______ ____
ROOT
ATOM      1  C   UNL     1       3.064   3.096  19.080  0.00  0.00    +0.000 C 
ATOM      2  C   UNL     1       4.429   3.196  19.770  0.00  0.00    +0.000 C 
ATOM      3  C   UNL     1       5.273   4.313  19.173  0.00  0.00    +0.000 C 
ATOM      4  N   UNL     1       5.545   3.988  17.750  0.00  0.00    +0.000 NA
ATOM      5  C   UNL     1       4.257   4.004  16.972  0.00  0.00    +0.000 C 
ATOM      6  C   UNL     1       3.247   3.007  17.555  0.00  0.00    +0.000 C 
ENDROOT
BRANCH   1   8
ATOM      7  O   UNL     1       0.962   3.980  19.891  0.00  0.00    +0.000 OA
ATOM      8  C   UNL     1       2.106   4.215  19.524  0.00  0.00    +0.000 C 
ATOM      9  N   UNL     1       2.700   5.468  19.451  0.00  0.00    +0.000 N 
ATOM     10  H   UNL     1       3.630   5.515  19.061  0.00  0.00    +0.000 HD
BRANCH   9  11
ATOM     11  C   UNL     1       2.129   6.717  19.764  0.00  0.00    +0.000 A 
ATOM     12  C   UNL     1       1.487   6.999  20.970  0.00  0.00    +0.000 A 
ATOM     13  C   UNL     1       0.952   8.271  21.206  0.00  0.00    +0.000 A 
ATOM     14  C   UNL     1       1.035   9.263  20.229  0.00  0.00    +0.000 A 
ATOM     15  C   UNL     1       1.675   8.983  19.025  0.00  0.00    +0.000 A 
ATOM     16 CL   UNL     1       1.760  10.190  17.800  0.00  0.00    +0.000 Cl
ATOM     17  C   UNL     1       2.236   7.727  18.798  0.00  0.00    +0.000 A 
ENDBRANCH   9  11
ENDBRANCH   1   8
BRANCH   4  18
ATOM     18  S   UNL     1       6.756   4.993  17.016  0.00  0.00    +0.000 S 
ATOM     19  O   UNL     1       7.063   6.036  17.977  0.00  0.00    +0.000 OA
ATOM     20  O   UNL     1       7.774   4.092  16.529  0.00  0.00    +0.000 OA
BRANCH  18  21
ATOM     21  C   UNL     1       5.879   5.735  15.617  0.00  0.00    +0.000 C 
BRANCH  21  22
ATOM     22  C   UNL     1       6.292   5.041  14.339  0.00  0.00    +0.000 A 
ATOM     23  C   UNL     1       7.446   5.450  13.649  0.00  0.00    +0.000 A 
ATOM     24  C   UNL     1       7.817   4.833  12.454  0.00  0.00    +0.000 A 
ATOM     25  C   UNL     1       7.044   3.797  11.935  0.00  0.00    +0.000 A 
ATOM     26  C   UNL     1       5.908   3.371  12.618  0.00  0.00    +0.000 A 
ATOM     27  C   UNL     1       5.533   3.987  13.815  0.00  0.00    +0.000 A 
ENDBRANCH  21  22
ENDBRANCH  18  21
ENDBRANCH   4  18
TORSDOF 5
ENDMDL
MODEL 5
REMARK VINA RESULT:      -8.1      4.528      7.051
REMARK  Name = 
REMARK  5 active torsions:
REMARK  status: ('A' for Active; 'I' for Inactive)
REMARK    1  A    between atoms: C_2  and  C_11
REMARK    2  A    between atoms: N_3  and  C_4
REMARK    3  A    between atoms: N_14  and  S_15
REMARK    4  A    between atoms: S_15  and  C_18
REMARK    5  A    between atoms: C_18  and  C_19
REMARK                            x       y       z     vdW  Elec       q    Type
REMARK                         _______ _______ _______ _____ _____    ______ ____
ROOT
ATOM      1  C   UNL     1       2.978   3.487  19.160  0.00  0.00    +0.000 C 
ATOM      2  C   UNL     1       4.357   3.508  19.829  0.00  0.00    +0.000 C 
ATOM      3  C   UNL     1       5.269   4.547  19.189  0.00  0.00    +0.000 C 
ATOM      4  N   UNL     1       5.495   4.164  17.772  0.00  0.00    +0.000 NA
ATOM      5  C   UNL     1       4.200   4.252  17.012  0.00  0.00    +0.000 C 
ATOM      6  C   UNL     1       3.131   3.344  17.636  0.00  0.00    +0.000 C 
ENDROOT
BRANCH   1   8
ATOM      7  O   UNL     1       1.085   4.537  20.241  0.00  0.00    +0.000 OA
ATOM      8  C   UNL     1       2.108   4.683  19.587  0.00  0.00    +0.000 C 
ATOM      9  N   UNL     1       2.629   5.890  19.141  0.00  0.00    +0.000 N 
ATOM     10  H   UNL     1       3.446   5.849  18.548  0.00  0.00    +0.000 HD
BRANCH   9  11
ATOM     11  C   UNL     1       2.103   7.183  19.328  0.00  0.00    +0.000 A 
ATOM     12  C   UNL     1       1.993   8.133  18.313  0.00  0.00    +0.000 A 
ATOM     13  C   UNL     1       1.450   9.396  18.582  0.00  0.00    +0.000 A 
ATOM     14  C   UNL     1       1.035   9.725  19.872  0.00  0.00    +0.000 A 
ATOM     15  C   UNL     1       1.146   8.778  20.886  0.00  0.00    +0.000 A 
ATOM     16 CL   UNL     1       0.663   9.181  22.489  0.00  0.00    +0.000 Cl
ATOM     17  C   UNL     1       1.657   7.509  20.617  0.00  0.00    +0.000 A 
ENDBRANCH   9  11
ENDBRANCH   1   8
BRANCH   4  18
ATOM     18  S   UNL     1       6.762   5.062  16.995  0.00  0.00    +0.000 S 
ATOM     19  O   UNL     1       7.147   6.114  17.916  0.00  0.00    +0.000 OA
ATOM     20  O   UNL     1       7.714   4.079  16.532  0.00  0.00    +0.000 OA
BRANCH  18  21
ATOM     21  C   UNL     1       5.923   5.811  15.577  0.00  0.00    +0.000 C 
BRANCH  21  22
ATOM     22  C   UNL     1       6.313   5.076  14.315  0.00  0.00    +0.000 A 
ATOM     23  C   UNL     1       7.464   5.451  13.601  0.00  0.00    +0.000 A 
ATOM     24  C   UNL     1       7.814   4.796  12.420  0.00  0.00    +0.000 A 
ATOM     25  C   UNL     1       7.023   3.756  11.939  0.00  0.00    +0.000 A 
ATOM     26  C   UNL     1       5.889   3.363  12.646  0.00  0.00    +0.000 A 
ATOM     27  C   UNL     1       5.535   4.017  13.829  0.00  0.00    +0.000 A 
ENDBRANCH  21  22
ENDBRANCH  18  21
ENDBRANCH   4  18
TORSDOF 5
ENDMDL
MODEL 6
REMARK VINA RESULT:      -8.0      0.942      1.350
REMARK  Name = 
REMARK  5 active torsions:
REMARK  status: ('A' for Active; 'I' for Inactive)
REMARK    1  A    between atoms: C_2  and  C_11
REMARK    2  A    between atoms: N_3  and  C_4
REMARK    3  A    between atoms: N_14  and  S_15
REMARK    4  A    between atoms: S_15  and  C_18
REMARK    5  A    between atoms: C_18  and  C_19
REMARK                            x       y       z     vdW  Elec       q    Type
REMARK                         _______ _______ _______ _____ _____    ______ ____
ROOT
ATOM      1  C   UNL     1       7.900   5.853  18.716  0.00  0.00    +0.000 C 
ATOM      2  C   UNL     1       7.961   4.751  17.651  0.00  0.00    +0.000 C 
ATOM      3  C   UNL     1       6.646   4.639  16.892  0.00  0.00    +0.000 C 
ATOM      4  N   UNL     1       5.583   4.240  17.848  0.00  0.00    +0.000 NA
ATOM      5  C   UNL     1       5.368   5.340  18.853  0.00  0.00    +0.000 C 
ATOM      6  C   UNL     1       6.665   5.656  19.611  0.00  0.00    +0.000 C 
ENDROOT
BRANCH   1   8
ATOM      7  O   UNL     1       7.621   7.497  16.961  0.00  0.00    +0.000 OA
ATOM      8  C   UNL     1       8.001   7.260  18.100  0.00  0.00    +0.000 C 
ATOM      9  N   UNL     1       8.560   8.175  18.982  0.00  0.00    +0.000 N 
ATOM     10  H   UNL     1       8.893   7.819  19.866  0.00  0.00    +0.000 HD
BRANCH   9  11
ATOM     11  C   UNL     1       8.817   9.543  18.764  0.00  0.00    +0.000 A 
ATOM     12  C   UNL     1       8.200  10.302  17.770  0.00  0.00    +0.000 A 
ATOM     13  C   UNL     1       8.507  11.660  17.625  0.00  0.00    +0.000 A 
ATOM     14  C   UNL     1       9.450  12.263  18.457  0.00  0.00    +0.000 A 
ATOM     15  C   UNL     1      10.067  11.507  19.449  0.00  0.00    +0.000 A 
ATOM     16 CL   UNL     1      11.253  12.232  20.465  0.00  0.00    +0.000 Cl
ATOM     17  C   UNL     1       9.742  10.162  19.618  0.00  0.00    +0.000 A 
ENDBRANCH   9  11
ENDBRANCH   1   8
BRANCH   4  18
ATOM     18  S   UNL     1       4.097   3.759  17.089  0.00  0.00    +0.000 S 
ATOM     19  O   UNL     1       4.225   4.095  15.684  0.00  0.00    +0.000 OA
ATOM     20  O   UNL     1       3.855   2.402  17.523  0.00  0.00    +0.000 OA
BRANCH  18  21
ATOM     21  C   UNL     1       2.877   4.865  17.841  0.00  0.00    +0.000 C 
BRANCH  21  22
ATOM     22  C   UNL     1       2.243   4.182  19.031  0.00  0.00    +0.000 A 
ATOM     23  C   UNL     1       2.662   4.493  20.335  0.00  0.00    +0.000 A 
ATOM     24  C   UNL     1       2.102   3.845  21.437  0.00  0.00    +0.000 A 
ATOM     25  C   UNL     1       1.112   2.883  21.250  0.00  0.00    +0.000 A 
ATOM     26  C   UNL     1       0.676   2.578  19.964  0.00  0.00    +0.000 A 
ATOM     27  C   UNL     1       1.235   3.224  18.858  0.00  0.00    +0.000 A 
ENDBRANCH  21  22
ENDBRANCH  18  21
ENDBRANCH   4  18
TORSDOF 5
ENDMDL
MODEL 7
REMARK VINA RESULT:      -7.9      4.457      6.971
REMARK  Name = 
REMARK  5 active torsions:
REMARK  status: ('A' for Active; 'I' for Inactive)
REMARK    1  A    between atoms: C_2  and  C_11
REMARK    2  A    between atoms: N_3  and  C_4
REMARK    3  A    between atoms: N_14  and  S_15
REMARK    4  A    between atoms: S_15  and  C_18
REMARK    5  A    between atoms: C_18  and  C_19
REMARK                            x       y       z     vdW  Elec       q    Type
REMARK                         _______ _______ _______ _____ _____    ______ ____
ROOT
ATOM      1  C   UNL     1       3.025   3.938  19.134  0.00  0.00    +0.000 C 
ATOM      2  C   UNL     1       4.402   3.519  19.660  0.00  0.00    +0.000 C 
ATOM      3  C   UNL     1       5.493   4.465  19.175  0.00  0.00    +0.000 C 
ATOM      4  N   UNL     1       5.565   4.379  17.695  0.00  0.00    +0.000 NA
ATOM      5  C   UNL     1       4.289   4.905  17.095  0.00  0.00    +0.000 C 
ATOM      6  C   UNL     1       3.074   4.120  17.608  0.00  0.00    +0.000 C 
ENDROOT
BRANCH   1   8
ATOM      7  O   UNL     1       2.150   5.101  21.067  0.00  0.00    +0.000 OA
ATOM      8  C   UNL     1       2.463   5.158  19.886  0.00  0.00    +0.000 C 
ATOM      9  N   UNL     1       2.369   6.275  19.067  0.00  0.00    +0.000 N 
ATOM     10  H   UNL     1       2.598   6.153  18.092  0.00  0.00    +0.000 HD
BRANCH   9  11
ATOM     11  C   UNL     1       1.892   7.558  19.403  0.00  0.00    +0.000 A 
ATOM     12  C   UNL     1       1.791   8.612  18.496  0.00  0.00    +0.000 A 
ATOM     13  C   UNL     1       1.299   9.856  18.910  0.00  0.00    +0.000 A 
ATOM     14  C   UNL     1       0.928  10.061  20.238  0.00  0.00    +0.000 A 
ATOM     15  C   UNL     1       1.030   9.010  21.145  0.00  0.00    +0.000 A 
ATOM     16 CL   UNL     1       0.601   9.258  22.794  0.00  0.00    +0.000 Cl
ATOM     17  C   UNL     1       1.489   7.761  20.731  0.00  0.00    +0.000 A 
ENDBRANCH   9  11
ENDBRANCH   1   8
BRANCH   4  18
ATOM     18  S   UNL     1       6.965   5.149  17.012  0.00  0.00    +0.000 S 
ATOM     19  O   UNL     1       7.416   6.122  17.988  0.00  0.00    +0.000 OA
ATOM     20  O   UNL     1       7.823   4.077  16.562  0.00  0.00    +0.000 OA
BRANCH  18  21
ATOM     21  C   UNL     1       6.291   6.031  15.582  0.00  0.00    +0.000 C 
BRANCH  21  22
ATOM     22  C   UNL     1       6.452   5.180  14.344  0.00  0.00    +0.000 A 
ATOM     23  C   UNL     1       5.510   4.183  14.039  0.00  0.00    +0.000 A 
ATOM     24  C   UNL     1       5.668   3.374  12.912  0.00  0.00    +0.000 A 
ATOM     25  C   UNL     1       6.766   3.554  12.074  0.00  0.00    +0.000 A 
ATOM     26  C   UNL     1       7.697   4.550  12.356  0.00  0.00    +0.000 A 
ATOM     27  C   UNL     1       7.542   5.362  13.483  0.00  0.00    +0.000 A 
ENDBRANCH  21  22
ENDBRANCH  18  21
ENDBRANCH   4  18
TORSDOF 5
ENDMDL
MODEL 8
REMARK VINA RESULT:      -7.8      6.931      8.403
REMARK  Name = 
REMARK  5 active torsions:
REMARK  status: ('A' for Active; 'I' for Inactive)
REMARK    1  A    between atoms: C_2  and  C_11
REMARK    2  A    between atoms: N_3  and  C_4
REMARK    3  A    between atoms: N_14  and  S_15
REMARK    4  A    between atoms: S_15  and  C_18
REMARK    5  A    between atoms: C_18  and  C_19
REMARK                            x       y       z     vdW  Elec       q    Type
REMARK                         _______ _______ _______ _____ _____    ______ ____
ROOT
ATOM      1  C   UNL     1       1.012  10.387  19.593  0.00  0.00    +0.000 C 
ATOM      2  C   UNL     1       1.826  10.350  18.295  0.00  0.00    +0.000 C 
ATOM      3  C   UNL     1       1.913   8.937  17.734  0.00  0.00    +0.000 C 
ATOM      4  N   UNL     1       2.640   8.087  18.710  0.00  0.00    +0.000 NA
ATOM      5  C   UNL     1       1.832   7.963  19.974  0.00  0.00    +0.000 C 
ATOM      6  C   UNL     1       1.550   9.342  20.586  0.00  0.00    +0.000 C 
ENDROOT
BRANCH   1   8
ATOM      7  O   UNL     1      -1.236   9.624  20.064  0.00  0.00    +0.000 OA
ATOM      8  C   UNL     1      -0.501  10.273  19.332  0.00  0.00    +0.000 C 
ATOM      9  N   UNL     1      -0.888  10.978  18.201  0.00  0.00    +0.000 N 
ATOM     10  H   UNL     1      -0.157  11.410  17.654  0.00  0.00    +0.000 HD
BRANCH   9  11
ATOM     11  C   UNL     1      -2.180  11.092  17.651  0.00  0.00    +0.000 A 
ATOM     12  C   UNL     1      -3.269  11.639  18.331  0.00  0.00    +0.000 A 
ATOM     13  C   UNL     1      -4.521  11.722  17.708  0.00  0.00    +0.000 A 
ATOM     14  C   UNL     1      -4.697  11.239  16.412  0.00  0.00    +0.000 A 
ATOM     15  C   UNL     1      -3.612  10.692  15.734  0.00  0.00    +0.000 A 
ATOM     16 CL   UNL     1      -3.823  10.066  14.144  0.00  0.00    +0.000 Cl
ATOM     17  C   UNL     1      -2.357  10.635  16.338  0.00  0.00    +0.000 A 
ENDBRANCH   9  11
ENDBRANCH   1   8
BRANCH   4  18
ATOM     18  S   UNL     1       3.104   6.535  18.085  0.00  0.00    +0.000 S 
ATOM     19  O   UNL     1       1.877   5.862  17.704  0.00  0.00    +0.000 OA
ATOM     20  O   UNL     1       4.152   6.794  17.126  0.00  0.00    +0.000 OA
BRANCH  18  21
ATOM     21  C   UNL     1       3.797   5.700  19.534  0.00  0.00    +0.000 C 
BRANCH  21  22
ATOM     22  C   UNL     1       3.002   4.448  19.823  0.00  0.00    +0.000 A 
ATOM     23  C   UNL     1       3.206   3.284  19.063  0.00  0.00    +0.000 A 
ATOM     24  C   UNL     1       2.454   2.134  19.306  0.00  0.00    +0.000 A 
ATOM     25  C   UNL     1       1.493   2.129  20.314  0.00  0.00    +0.000 A 
ATOM     26  C   UNL     1       1.293   3.271  21.086  0.00  0.00    +0.000 A 
ATOM     27  C   UNL     1       2.044   4.425  20.845  0.00  0.00    +0.000 A 
ENDBRANCH  21  22
ENDBRANCH  18  21
ENDBRANCH   4  18
TORSDOF 5
ENDMDL
MODEL 9
REMARK VINA RESULT:      -7.7      4.652      6.550
REMARK  Name = 
REMARK  5 active torsions:
REMARK  status: ('A' for Active; 'I' for Inactive)
REMARK    1  A    between atoms: C_2  and  C_11
REMARK    2  A    between atoms: N_3  and  C_4
REMARK    3  A    between atoms: N_14  and  S_15
REMARK    4  A    between atoms: S_15  and  C_18
REMARK    5  A    between atoms: C_18  and  C_19
REMARK                            x       y       z     vdW  Elec       q    Type
REMARK                         _______ _______ _______ _____ _____    ______ ____
ROOT
ATOM      1  C   UNL     1       2.640   6.619  17.959  0.00  0.00    +0.000 C 
ATOM      2  C   UNL     1       3.125   5.417  18.778  0.00  0.00    +0.000 C 
ATOM      3  C   UNL     1       4.514   5.661  19.353  0.00  0.00    +0.000 C 
ATOM      4  N   UNL     1       5.469   5.813  18.226  0.00  0.00    +0.000 NA
ATOM      5  C   UNL     1       5.138   7.058  17.448  0.00  0.00    +0.000 C 
ATOM      6  C   UNL     1       3.699   7.009  16.915  0.00  0.00    +0.000 C 
ENDROOT
BRANCH   1   8
ATOM      7  O   UNL     1       2.230   7.719  20.075  0.00  0.00    +0.000 OA
ATOM      8  C   UNL     1       2.192   7.788  18.854  0.00  0.00    +0.000 C 
ATOM      9  N   UNL     1       1.758   8.876  18.110  0.00  0.00    +0.000 N 
ATOM     10  H   UNL     1       1.715   8.762  17.107  0.00  0.00    +0.000 HD
BRANCH   9  11
ATOM     11  C   UNL     1       1.268  10.110  18.583  0.00  0.00    +0.000 A 
ATOM     12  C   UNL     1       0.083  10.250  19.306  0.00  0.00    +0.000 A 
ATOM     13  C   UNL     1      -0.329  11.513  19.747  0.00  0.00    +0.000 A 
ATOM     14  C   UNL     1       0.426  12.647  19.448  0.00  0.00    +0.000 A 
ATOM     15  C   UNL     1       1.607  12.508  18.725  0.00  0.00    +0.000 A 
ATOM     16 CL   UNL     1       2.535  13.902  18.325  0.00  0.00    +0.000 Cl
ATOM     17  C   UNL     1       2.039  11.249  18.311  0.00  0.00    +0.000 A 
ENDBRANCH   9  11
ENDBRANCH   1   8
BRANCH   4  18
ATOM     18  S   UNL     1       7.137   5.777  18.707  0.00  0.00    +0.000 S 
ATOM     19  O   UNL     1       7.713   7.042  18.291  0.00  0.00    +0.000 OA
ATOM     20  O   UNL     1       7.139   5.365  20.091  0.00  0.00    +0.000 OA
BRANCH  18  21
ATOM     21  C   UNL     1       7.831   4.459  17.678  0.00  0.00    +0.000 C 
BRANCH  21  22
ATOM     22  C   UNL     1       7.075   4.388  16.372  0.00  0.00    +0.000 A 
ATOM     23  C   UNL     1       5.866   3.677  16.287  0.00  0.00    +0.000 A 
ATOM     24  C   UNL     1       5.178   3.583  15.077  0.00  0.00    +0.000 A 
ATOM     25  C   UNL     1       5.685   4.204  13.937  0.00  0.00    +0.000 A 
ATOM     26  C   UNL     1       6.873   4.926  14.012  0.00  0.00    +0.000 A 
ATOM     27  C   UNL     1       7.565   5.022  15.222  0.00  0.00    +0.000 A 
ENDBRANCH  21  22
ENDBRANCH  18  21
ENDBRANCH   4  18
TORSDOF 5
ENDMDL
