MODEL 1
REMARK VINA RESULT:      -7.9      0.000      0.000
REMARK  Name = 
REMARK  6 active torsions:
REMARK  status: ('A' for Active; 'I' for Inactive)
REMARK    1  A    between atoms: C_1  and  C_2
REMARK    2  A    between atoms: C_2  and  C_3
REMARK    3  A    between atoms: C_6  and  C_7
REMARK    4  A    between atoms: C_12  and  C_13
REMARK    5  A    between atoms: C_17  and  N_18
REMARK    6  A    between atoms: N_18  and  C_19
REMARK                            x       y       z     vdW  Elec       q    Type
REMARK                         _______ _______ _______ _____ _____    ______ ____
ROOT
ATOM      1  C   UNL     1       0.359  10.096  21.375  0.00  0.00    +0.000 A 
ATOM      2  C   UNL     1       0.924   9.037  22.073  0.00  0.00    +0.000 A 
ATOM      3  N   UNL     1       1.616   8.019  21.518  0.00  0.00    +0.000 NA
ATOM      4  C   UNL     1       1.813   8.015  20.205  0.00  0.00    +0.000 A 
ATOM      5  N   UNL     1       2.503   6.991  19.703  0.00  0.00    +0.000 NA
ATOM      6  C   UNL     1       2.759   6.935  18.377  0.00  0.00    +0.000 A 
ATOM      7  C   UNL     1       3.499   5.737  17.868  0.00  0.00    +0.000 C 
ATOM      8  C   UNL     1       2.354   7.922  17.501  0.00  0.00    +0.000 A 
ATOM      9  C   UNL     1       1.644   8.994  18.016  0.00  0.00    +0.000 A 
ATOM     10  C   UNL     1       1.315   9.050  19.387  0.00  0.00    +0.000 A 
ATOM     11  C   UNL     1       0.539  10.098  19.978  0.00  0.00    +0.000 A 
ENDROOT
BRANCH   1  15
ATOM     12  C   UNL     1      -1.233  12.798  22.998  0.00  0.00    +0.000 A 
ATOM     13  N   UNL     1      -1.993  11.804  23.477  0.00  0.00    +0.000 NA
ATOM     14  O   UNL     1      -1.418  10.664  22.911  0.00  0.00    +0.000 OA
ATOM     15  C   UNL     1      -0.364  11.089  22.152  0.00  0.00    +0.000 A 
ATOM     16  N   UNL     1      -0.217  12.398  22.171  0.00  0.00    +0.000 NA
BRANCH  12  18
ATOM     17  C   UNL     1      -2.830  14.433  23.986  0.00  0.00    +0.000 C 
ATOM     18  C   UNL     1      -1.489  14.228  23.296  0.00  0.00    +0.000 C 
ENDBRANCH  12  18
ENDBRANCH   1  15
BRANCH  11  19
ATOM     19  N   UNL     1      -0.107  11.071  19.159  0.00  0.00    +0.000 N 
ATOM     20  H   UNL     1       0.227  12.022  19.305  0.00  0.00    +0.000 HD
BRANCH  19  21
ATOM     21  C   UNL     1      -1.412  11.058  18.603  0.00  0.00    +0.000 A 
ATOM     22  C   UNL     1      -1.739  10.394  17.412  0.00  0.00    +0.000 A 
ATOM     23  C   UNL     1      -3.019  10.498  16.851  0.00  0.00    +0.000 A 
ATOM     24  C   UNL     1      -3.998  11.252  17.487  0.00  0.00    +0.000 A 
ATOM     25  C   UNL     1      -3.696  11.902  18.685  0.00  0.00    +0.000 A 
ATOM     26  C   UNL     1      -2.407  11.834  19.218  0.00  0.00    +0.000 A 
ATOM     27  O   UNL     1      -4.622  12.626  19.393  0.00  0.00    +0.000 OA
ATOM     28  C   UNL     1      -5.952  12.256  19.008  0.00  0.00    +0.000 C 
ATOM     29  C   UNL     1      -6.087  12.271  17.495  0.00  0.00    +0.000 C 
ATOM     30  O   UNL     1      -5.231  11.295  16.891  0.00  0.00    +0.000 OA
ENDBRANCH  19  21
ENDBRANCH  11  19
TORSDOF 4
ENDMDL
MODEL 2
REMARK VINA RESULT:      -7.8      0.916      1.050
REMARK  Name = 
REMARK  6 active torsions:
REMARK  status: ('A' for Active; 'I' for Inactive)
REMARK    1  A    between atoms: C_1  and  C_2
REMARK    2  A    between atoms: C_2  and  C_3
REMARK    3  A    between atoms: C_6  and  C_7
REMARK    4  A    between atoms: C_12  and  C_13
REMARK    5  A    between atoms: C_17  and  N_18
REMARK    6  A    between atoms: N_18  and  C_19
REMARK                            x       y       z     vdW  Elec       q    Type
REMARK                         _______ _______ _______ _____ _____    ______ ____
ROOT
ATOM      1  C   UNL     1       0.110  10.665  21.370  0.00  0.00    +0.000 A 
ATOM      2  C   UNL     1       0.658   9.670  22.168  0.00  0.00    +0.000 A 
ATOM      3  N   UNL     1       1.327   8.589  21.714  0.00  0.00    +0.000 NA
ATOM      4  C   UNL     1       1.517   8.451  20.408  0.00  0.00    +0.000 A 
ATOM      5  N   UNL     1       2.185   7.368  20.008  0.00  0.00    +0.000 NA
ATOM      6  C   UNL     1       2.432   7.176  18.693  0.00  0.00    +0.000 A 
ATOM      7  C   UNL     1       3.146   5.918  18.303  0.00  0.00    +0.000 C 
ATOM      8  C   UNL     1       2.042   8.078  17.724  0.00  0.00    +0.000 A 
ATOM      9  C   UNL     1       1.356   9.210  18.133  0.00  0.00    +0.000 A 
ATOM     10  C   UNL     1       1.035   9.409  19.493  0.00  0.00    +0.000 A 
ATOM     11  C   UNL     1       0.283  10.525  19.979  0.00  0.00    +0.000 A 
ENDROOT
BRANCH   1  15
ATOM     12  C   UNL     1      -1.823  12.986  23.201  0.00  0.00    +0.000 A 
ATOM     13  N   UNL     1      -0.794  13.786  22.890  0.00  0.00    +0.000 NA
ATOM     14  O   UNL     1       0.031  12.961  22.124  0.00  0.00    +0.000 OA
ATOM     15  C   UNL     1      -0.590  11.745  22.046  0.00  0.00    +0.000 A 
ATOM     16  N   UNL     1      -1.732  11.713  22.701  0.00  0.00    +0.000 NA
BRANCH  12  18
ATOM     17  C   UNL     1      -3.988  12.315  24.231  0.00  0.00    +0.000 C 
ATOM     18  C   UNL     1      -2.955  13.418  24.056  0.00  0.00    +0.000 C 
ENDBRANCH  12  18
ENDBRANCH   1  15
BRANCH  11  19
ATOM     19  N   UNL     1      -0.349  11.424  19.070  0.00  0.00    +0.000 N 
ATOM     20  H   UNL     1      -0.005  12.381  19.128  0.00  0.00    +0.000 HD
BRANCH  19  21
ATOM     21  C   UNL     1      -1.651  11.374  18.511  0.00  0.00    +0.000 A 
ATOM     22  C   UNL     1      -1.931  10.838  17.245  0.00  0.00    +0.000 A 
ATOM     23  C   UNL     1      -3.218  10.906  16.696  0.00  0.00    +0.000 A 
ATOM     24  C   UNL     1      -4.251  11.493  17.416  0.00  0.00    +0.000 A 
ATOM     25  C   UNL     1      -3.997  12.011  18.686  0.00  0.00    +0.000 A 
ATOM     26  C   UNL     1      -2.703  11.983  19.213  0.00  0.00    +0.000 A 
ATOM     27  O   UNL     1      -4.975  12.564  19.474  0.00  0.00    +0.000 OA
ATOM     28  C   UNL     1      -6.272  12.138  19.041  0.00  0.00    +0.000 C 
ATOM     29  C   UNL     1      -6.417  12.329  17.541  0.00  0.00    +0.000 C 
ATOM     30  O   UNL     1      -5.488  11.508  16.824  0.00  0.00    +0.000 OA
ENDBRANCH  19  21
ENDBRANCH  11  19
TORSDOF 4
ENDMDL
MODEL 3
REMARK VINA RESULT:      -7.6      4.403      7.583
REMARK  Name = 
REMARK  6 active torsions:
REMARK  status: ('A' for Active; 'I' for Inactive)
REMARK    1  A    between atoms: C_1  and  C_2
REMARK    2  A    between atoms: C_2  and  C_3
REMARK    3  A    between atoms: C_6  and  C_7
REMARK    4  A    between atoms: C_12  and  C_13
REMARK    5  A    between atoms: C_17  and  N_18
REMARK    6  A    between atoms: N_18  and  C_19
REMARK                            x       y       z     vdW  Elec       q    Type
REMARK                         _______ _______ _______ _____ _____    ______ ____
ROOT
ATOM      1  C   UNL     1       5.516   5.608  18.384  0.00  0.00    +0.000 A 
ATOM      2  C   UNL     1       5.856   4.367  18.906  0.00  0.00    +0.000 A 
ATOM      3  N   UNL     1       4.995   3.348  19.114  0.00  0.00    +0.000 NA
ATOM      4  C   UNL     1       3.720   3.503  18.778  0.00  0.00    +0.000 A 
ATOM      5  N   UNL     1       2.909   2.469  19.001  0.00  0.00    +0.000 NA
ATOM      6  C   UNL     1       1.603   2.551  18.662  0.00  0.00    +0.000 A 
ATOM      7  C   UNL     1       0.734   1.374  18.980  0.00  0.00    +0.000 C 
ATOM      8  C   UNL     1       1.061   3.668  18.060  0.00  0.00    +0.000 A 
ATOM      9  C   UNL     1       1.900   4.744  17.818  0.00  0.00    +0.000 A 
ATOM     10  C   UNL     1       3.254   4.707  18.211  0.00  0.00    +0.000 A 
ATOM     11  C   UNL     1       4.164   5.799  18.041  0.00  0.00    +0.000 A 
ENDROOT
BRANCH   1  15
ATOM     12  C   UNL     1       7.814   8.250  17.924  0.00  0.00    +0.000 A 
ATOM     13  N   UNL     1       8.559   7.478  18.727  0.00  0.00    +0.000 NA
ATOM     14  O   UNL     1       7.740   6.368  18.949  0.00  0.00    +0.000 OA
ATOM     15  C   UNL     1       6.585   6.584  18.250  0.00  0.00    +0.000 A 
ATOM     16  N   UNL     1       6.585   7.734  17.609  0.00  0.00    +0.000 NA
BRANCH  12  18
ATOM     17  C   UNL     1       9.038  10.338  18.509  0.00  0.00    +0.000 C 
ATOM     18  C   UNL     1       8.257   9.581  17.444  0.00  0.00    +0.000 C 
ENDBRANCH  12  18
ENDBRANCH   1  15
BRANCH  11  19
ATOM     19  N   UNL     1       3.691   7.076  17.617  0.00  0.00    +0.000 N 
ATOM     20  H   UNL     1       4.373   7.614  17.085  0.00  0.00    +0.000 HD
BRANCH  19  21
ATOM     21  C   UNL     1       2.713   7.917  18.207  0.00  0.00    +0.000 A 
ATOM     22  C   UNL     1       2.179   9.048  17.571  0.00  0.00    +0.000 A 
ATOM     23  C   UNL     1       1.292   9.904  18.238  0.00  0.00    +0.000 A 
ATOM     24  C   UNL     1       0.909   9.628  19.545  0.00  0.00    +0.000 A 
ATOM     25  C   UNL     1       1.413   8.495  20.185  0.00  0.00    +0.000 A 
ATOM     26  C   UNL     1       2.332   7.668  19.535  0.00  0.00    +0.000 A 
ATOM     27  O   UNL     1       1.045   8.133  21.457  0.00  0.00    +0.000 OA
ATOM     28  C   UNL     1      -0.187   8.765  21.825  0.00  0.00    +0.000 C 
ATOM     29  C   UNL     1      -0.124  10.255  21.531  0.00  0.00    +0.000 C 
ATOM     30  O   UNL     1       0.025  10.498  20.128  0.00  0.00    +0.000 OA
ENDBRANCH  19  21
ENDBRANCH  11  19
TORSDOF 4
ENDMDL
MODEL 4
REMARK VINA RESULT:      -7.6      1.306      1.814
REMARK  Name = 
REMARK  6 active torsions:
REMARK  status: ('A' for Active; 'I' for Inactive)
REMARK    1  A    between atoms: C_1  and  C_2
REMARK    2  A    between atoms: C_2  and  C_3
REMARK    3  A    between atoms: C_6  and  C_7
REMARK    4  A    between atoms: C_12  and  C_13
REMARK    5  A    between atoms: C_17  and  N_18
REMARK    6  A    between atoms: N_18  and  C_19
REMARK                            x       y       z     vdW  Elec       q    Type
REMARK                         _______ _______ _______ _____ _____    ______ ____
ROOT
ATOM      1  C   UNL     1      -0.921  11.139  22.182  0.00  0.00    +0.000 A 
ATOM      2  C   UNL     1      -0.274  10.105  22.845  0.00  0.00    +0.000 A 
ATOM      3  N   UNL     1       0.517   9.181  22.260  0.00  0.00    +0.000 NA
ATOM      4  C   UNL     1       0.736   9.254  20.953  0.00  0.00    +0.000 A 
ATOM      5  N   UNL     1       1.525   8.320  20.422  0.00  0.00    +0.000 NA
ATOM      6  C   UNL     1       1.808   8.348  19.100  0.00  0.00    +0.000 A 
ATOM      7  C   UNL     1       2.662   7.246  18.554  0.00  0.00    +0.000 C 
ATOM      8  C   UNL     1       1.330   9.333  18.259  0.00  0.00    +0.000 A 
ATOM      9  C   UNL     1       0.516  10.312  18.806  0.00  0.00    +0.000 A 
ATOM     10  C   UNL     1       0.160  10.276  20.171  0.00  0.00    +0.000 A 
ATOM     11  C   UNL     1      -0.718  11.221  20.791  0.00  0.00    +0.000 A 
ENDROOT
BRANCH   1  15
ATOM     12  C   UNL     1      -2.709  13.616  23.954  0.00  0.00    +0.000 A 
ATOM     13  N   UNL     1      -3.559  12.595  24.129  0.00  0.00    +0.000 NA
ATOM     14  O   UNL     1      -2.920  11.535  23.482  0.00  0.00    +0.000 OA
ATOM     15  C   UNL     1      -1.745  12.027  22.986  0.00  0.00    +0.000 A 
ATOM     16  N   UNL     1      -1.577  13.307  23.248  0.00  0.00    +0.000 NA
BRANCH  12  18
ATOM     17  C   UNL     1      -2.074  15.374  25.599  0.00  0.00    +0.000 C 
ATOM     18  C   UNL     1      -2.984  14.989  24.441  0.00  0.00    +0.000 C 
ENDBRANCH  12  18
ENDBRANCH   1  15
BRANCH  11  19
ATOM     19  N   UNL     1      -1.437  12.168  20.002  0.00  0.00    +0.000 N 
ATOM     20  H   UNL     1      -1.222  13.139  20.223  0.00  0.00    +0.000 HD
BRANCH  19  21
ATOM     21  C   UNL     1      -2.705  12.046  19.380  0.00  0.00    +0.000 A 
ATOM     22  C   UNL     1      -2.891  11.507  18.098  0.00  0.00    +0.000 A 
ATOM     23  C   UNL     1      -4.152  11.503  17.489  0.00  0.00    +0.000 A 
ATOM     24  C   UNL     1      -5.252  12.021  18.162  0.00  0.00    +0.000 A 
ATOM     25  C   UNL     1      -5.090  12.541  19.447  0.00  0.00    +0.000 A 
ATOM     26  C   UNL     1      -3.824  12.584  20.035  0.00  0.00    +0.000 A 
ATOM     27  O   UNL     1      -6.136  13.027  20.191  0.00  0.00    +0.000 OA
ATOM     28  C   UNL     1      -7.384  12.527  19.693  0.00  0.00    +0.000 C 
ATOM     29  C   UNL     1      -7.468  12.724  18.189  0.00  0.00    +0.000 C 
ATOM     30  O   UNL     1      -6.458  11.968  17.512  0.00  0.00    +0.000 OA
ENDBRANCH  19  21
ENDBRANCH  11  19
TORSDOF 4
ENDMDL
MODEL 5
REMARK VINA RESULT:      -7.4      3.146      4.016
REMARK  Name = 
REMARK  6 active torsions:
REMARK  status: ('A' for Active; 'I' for Inactive)
REMARK    1  A    between atoms: C_1  and  C_2
REMARK    2  A    between atoms: C_2  and  C_3
REMARK    3  A    between atoms: C_6  and  C_7
REMARK    4  A    between atoms: C_12  and  C_13
REMARK    5  A    between atoms: C_17  and  N_18
REMARK    6  A    between atoms: N_18  and  C_19
REMARK                            x       y       z     vdW  Elec       q    Type
REMARK                         _______ _______ _______ _____ _____    ______ ____
ROOT
ATOM      1  C   UNL     1       0.295   9.897  20.954  0.00  0.00    +0.000 A 
ATOM      2  C   UNL     1       0.602   8.753  21.678  0.00  0.00    +0.000 A 
ATOM      3  N   UNL     1       1.329   7.712  21.216  0.00  0.00    +0.000 NA
ATOM      4  C   UNL     1       1.826   7.768  19.988  0.00  0.00    +0.000 A 
ATOM      5  N   UNL     1       2.538   6.718  19.578  0.00  0.00    +0.000 NA
ATOM      6  C   UNL     1       3.092   6.719  18.345  0.00  0.00    +0.000 A 
ATOM      7  C   UNL     1       3.841   5.491  17.925  0.00  0.00    +0.000 C 
ATOM      8  C   UNL     1       2.977   7.787  17.479  0.00  0.00    +0.000 A 
ATOM      9  C   UNL     1       2.246   8.886  17.901  0.00  0.00    +0.000 A 
ATOM     10  C   UNL     1       1.610   8.890  19.161  0.00  0.00    +0.000 A 
ATOM     11  C   UNL     1       0.797   9.966  19.640  0.00  0.00    +0.000 A 
ENDROOT
BRANCH   1  15
ATOM     12  C   UNL     1      -1.948  12.297  22.252  0.00  0.00    +0.000 A 
ATOM     13  N   UNL     1      -1.252  12.051  23.370  0.00  0.00    +0.000 NA
ATOM     14  O   UNL     1      -0.299  11.119  22.953  0.00  0.00    +0.000 OA
ATOM     15  C   UNL     1      -0.515  10.903  21.621  0.00  0.00    +0.000 A 
ATOM     16  N   UNL     1      -1.525  11.603  21.148  0.00  0.00    +0.000 NA
BRANCH  12  18
ATOM     17  C   UNL     1      -3.758  13.247  20.831  0.00  0.00    +0.000 C 
ATOM     18  C   UNL     1      -3.114  13.211  22.209  0.00  0.00    +0.000 C 
ENDBRANCH  12  18
ENDBRANCH   1  15
BRANCH  11  19
ATOM     19  N   UNL     1       0.432  11.040  18.774  0.00  0.00    +0.000 N 
ATOM     20  H   UNL     1      -0.022  10.740  17.913  0.00  0.00    +0.000 HD
BRANCH  19  21
ATOM     21  C   UNL     1       1.018  12.323  18.633  0.00  0.00    +0.000 A 
ATOM     22  C   UNL     1       2.383  12.528  18.379  0.00  0.00    +0.000 A 
ATOM     23  C   UNL     1       2.930  13.817  18.351  0.00  0.00    +0.000 A 
ATOM     24  C   UNL     1       2.114  14.924  18.556  0.00  0.00    +0.000 A 
ATOM     25  C   UNL     1       0.751  14.740  18.787  0.00  0.00    +0.000 A 
ATOM     26  C   UNL     1       0.215  13.452  18.860  0.00  0.00    +0.000 A 
ATOM     27  O   UNL     1      -0.124  15.785  18.952  0.00  0.00    +0.000 OA
ATOM     28  C   UNL     1       0.431  16.995  18.423  0.00  0.00    +0.000 C 
ATOM     29  C   UNL     1       1.843  17.200  18.943  0.00  0.00    +0.000 C 
ATOM     30  O   UNL     1       2.715  16.155  18.497  0.00  0.00    +0.000 OA
ENDBRANCH  19  21
ENDBRANCH  11  19
TORSDOF 4
ENDMDL
MODEL 6
REMARK VINA RESULT:      -7.4      3.434      4.532
REMARK  Name = 
REMARK  6 active torsions:
REMARK  status: ('A' for Active; 'I' for Inactive)
REMARK    1  A    between atoms: C_1  and  C_2
REMARK    2  A    between atoms: C_2  and  C_3
REMARK    3  A    between atoms: C_6  and  C_7
REMARK    4  A    between atoms: C_12  and  C_13
REMARK    5  A    between atoms: C_17  and  N_18
REMARK    6  A    between atoms: N_18  and  C_19
REMARK                            x       y       z     vdW  Elec       q    Type
REMARK                         _______ _______ _______ _____ _____    ______ ____
ROOT
ATOM      1  C   UNL     1       0.253   9.915  20.942  0.00  0.00    +0.000 A 
ATOM      2  C   UNL     1       0.567   8.753  21.634  0.00  0.00    +0.000 A 
ATOM      3  N   UNL     1       1.304   7.733  21.146  0.00  0.00    +0.000 NA
ATOM      4  C   UNL     1       1.806   7.828  19.921  0.00  0.00    +0.000 A 
ATOM      5  N   UNL     1       2.527   6.795  19.484  0.00  0.00    +0.000 NA
ATOM      6  C   UNL     1       3.085   6.836  18.254  0.00  0.00    +0.000 A 
ATOM      7  C   UNL     1       3.846   5.627  17.802  0.00  0.00    +0.000 C 
ATOM      8  C   UNL     1       2.963   7.928  17.418  0.00  0.00    +0.000 A 
ATOM      9  C   UNL     1       2.222   9.007  17.869  0.00  0.00    +0.000 A 
ATOM     10  C   UNL     1       1.582   8.971  19.126  0.00  0.00    +0.000 A 
ATOM     11  C   UNL     1       0.758  10.025  19.632  0.00  0.00    +0.000 A 
ENDROOT
BRANCH   1  15
ATOM     12  C   UNL     1      -2.032  12.228  22.320  0.00  0.00    +0.000 A 
ATOM     13  N   UNL     1      -1.257  12.049  23.399  0.00  0.00    +0.000 NA
ATOM     14  O   UNL     1      -0.283  11.158  22.945  0.00  0.00    +0.000 OA
ATOM     15  C   UNL     1      -0.568  10.895  21.634  0.00  0.00    +0.000 A 
ATOM     16  N   UNL     1      -1.641  11.529  21.209  0.00  0.00    +0.000 NA
BRANCH  12  18
ATOM     17  C   UNL     1      -4.079  12.869  23.586  0.00  0.00    +0.000 C 
ATOM     18  C   UNL     1      -3.246  13.079  22.329  0.00  0.00    +0.000 C 
ENDBRANCH  12  18
ENDBRANCH   1  15
BRANCH  11  19
ATOM     19  N   UNL     1       0.387  11.120  18.796  0.00  0.00    +0.000 N 
ATOM     20  H   UNL     1       0.050  10.842  17.876  0.00  0.00    +0.000 HD
BRANCH  19  21
ATOM     21  C   UNL     1       0.866  12.455  18.792  0.00  0.00    +0.000 A 
ATOM     22  C   UNL     1       0.043  13.574  18.982  0.00  0.00    +0.000 A 
ATOM     23  C   UNL     1       0.548  14.875  18.866  0.00  0.00    +0.000 A 
ATOM     24  C   UNL     1       1.893  15.076  18.578  0.00  0.00    +0.000 A 
ATOM     25  C   UNL     1       2.732  13.974  18.408  0.00  0.00    +0.000 A 
ATOM     26  C   UNL     1       2.217  12.678  18.480  0.00  0.00    +0.000 A 
ATOM     27  O   UNL     1       4.079  14.093  18.168  0.00  0.00    +0.000 OA
ATOM     28  C   UNL     1       4.547  15.389  18.559  0.00  0.00    +0.000 C 
ATOM     29  C   UNL     1       3.653  16.472  17.978  0.00  0.00    +0.000 C 
ATOM     30  O   UNL     1       2.322  16.376  18.498  0.00  0.00    +0.000 OA
ENDBRANCH  19  21
ENDBRANCH  11  19
TORSDOF 4
ENDMDL
MODEL 7
REMARK VINA RESULT:      -7.3      1.525      2.210
REMARK  Name = 
REMARK  6 active torsions:
REMARK  status: ('A' for Active; 'I' for Inactive)
REMARK    1  A    between atoms: C_1  and  C_2
REMARK    2  A    between atoms: C_2  and  C_3
REMARK    3  A    between atoms: C_6  and  C_7
REMARK    4  A    between atoms: C_12  and  C_13
REMARK    5  A    between atoms: C_17  and  N_18
REMARK    6  A    between atoms: N_18  and  C_19
REMARK                            x       y       z     vdW  Elec       q    Type
REMARK                         _______ _______ _______ _____ _____    ______ ____
ROOT
ATOM      1  C   UNL     1       0.977   8.698  20.963  0.00  0.00    +0.000 A 
ATOM      2  C   UNL     1       1.202   7.422  21.462  0.00  0.00    +0.000 A 
ATOM      3  N   UNL     1       1.859   6.437  20.813  0.00  0.00    +0.000 NA
ATOM      4  C   UNL     1       2.366   6.683  19.612  0.00  0.00    +0.000 A 
ATOM      5  N   UNL     1       3.007   5.680  19.011  0.00  0.00    +0.000 NA
ATOM      6  C   UNL     1       3.566   5.869  17.795  0.00  0.00    +0.000 A 
ATOM      7  C   UNL     1       4.231   4.691  17.153  0.00  0.00    +0.000 C 
ATOM      8  C   UNL     1       3.527   7.084  17.141  0.00  0.00    +0.000 A 
ATOM      9  C   UNL     1       2.870   8.133  17.762  0.00  0.00    +0.000 A 
ATOM     10  C   UNL     1       2.230   7.950  19.006  0.00  0.00    +0.000 A 
ATOM     11  C   UNL     1       1.489   8.972  19.679  0.00  0.00    +0.000 A 
ENDROOT
BRANCH   1  15
ATOM     12  C   UNL     1      -0.727  11.234  22.735  0.00  0.00    +0.000 A 
ATOM     13  N   UNL     1      -1.317  10.169  23.295  0.00  0.00    +0.000 NA
ATOM     14  O   UNL     1      -0.682   9.091  22.677  0.00  0.00    +0.000 OA
ATOM     15  C   UNL     1       0.233   9.618  21.808  0.00  0.00    +0.000 A 
ATOM     16  N   UNL     1       0.235  10.934  21.806  0.00  0.00    +0.000 NA
BRANCH  12  18
ATOM     17  C   UNL     1      -2.615  12.792  23.188  0.00  0.00    +0.000 C 
ATOM     18  C   UNL     1      -1.108  12.631  23.052  0.00  0.00    +0.000 C 
ENDBRANCH  12  18
ENDBRANCH   1  15
BRANCH  11  19
ATOM     19  N   UNL     1       1.202  10.208  19.027  0.00  0.00    +0.000 N 
ATOM     20  H   UNL     1       1.811  10.975  19.308  0.00  0.00    +0.000 HD
BRANCH  19  21
ATOM     21  C   UNL     1      -0.024  10.685  18.497  0.00  0.00    +0.000 A 
ATOM     22  C   UNL     1      -0.647  11.866  18.929  0.00  0.00    +0.000 A 
ATOM     23  C   UNL     1      -1.908  12.238  18.447  0.00  0.00    +0.000 A 
ATOM     24  C   UNL     1      -2.556  11.445  17.507  0.00  0.00    +0.000 A 
ATOM     25  C   UNL     1      -1.941  10.279  17.050  0.00  0.00    +0.000 A 
ATOM     26  C   UNL     1      -0.704   9.886  17.566  0.00  0.00    +0.000 A 
ATOM     27  O   UNL     1      -2.499   9.470  16.091  0.00  0.00    +0.000 OA
ATOM     28  C   UNL     1      -3.491  10.184  15.345  0.00  0.00    +0.000 C 
ATOM     29  C   UNL     1      -4.454  10.888  16.286  0.00  0.00    +0.000 C 
ATOM     30  O   UNL     1      -3.779  11.881  17.067  0.00  0.00    +0.000 OA
ENDBRANCH  19  21
ENDBRANCH  11  19
TORSDOF 4
ENDMDL
MODEL 8
REMARK VINA RESULT:      -7.3      3.147      3.903
REMARK  Name = 
REMARK  6 active torsions:
REMARK  status: ('A' for Active; 'I' for Inactive)
REMARK    1  A    between atoms: C_1  and  C_2
REMARK    2  A    between atoms: C_2  and  C_3
REMARK    3  A    between atoms: C_6  and  C_7
REMARK    4  A    between atoms: C_12  and  C_13
REMARK    5  A    between atoms: C_17  and  N_18
REMARK    6  A    between atoms: N_18  and  C_19
REMARK                            x       y       z     vdW  Elec       q    Type
REMARK                         _______ _______ _______ _____ _____    ______ ____
ROOT
ATOM      1  C   UNL     1       0.010  10.547  21.177  0.00  0.00    +0.000 A 
ATOM      2  C   UNL     1       0.348   9.438  21.940  0.00  0.00    +0.000 A 
ATOM      3  N   UNL     1       1.044   8.370  21.495  0.00  0.00    +0.000 NA
ATOM      4  C   UNL     1       1.477   8.360  20.240  0.00  0.00    +0.000 A 
ATOM      5  N   UNL     1       2.161   7.285  19.847  0.00  0.00    +0.000 NA
ATOM      6  C   UNL     1       2.649   7.220  18.589  0.00  0.00    +0.000 A 
ATOM      7  C   UNL     1       3.368   5.967  18.193  0.00  0.00    +0.000 C 
ATOM      8  C   UNL     1       2.494   8.245  17.677  0.00  0.00    +0.000 A 
ATOM      9  C   UNL     1       1.792   9.369  18.082  0.00  0.00    +0.000 A 
ATOM     10  C   UNL     1       1.224   9.441  19.371  0.00  0.00    +0.000 A 
ATOM     11  C   UNL     1       0.442  10.546  19.836  0.00  0.00    +0.000 A 
ENDROOT
BRANCH   1  15
ATOM     12  C   UNL     1      -1.494  13.199  22.960  0.00  0.00    +0.000 A 
ATOM     13  N   UNL     1      -2.442  13.023  22.029  0.00  0.00    +0.000 NA
ATOM     14  O   UNL     1      -1.952  11.955  21.275  0.00  0.00    +0.000 OA
ATOM     15  C   UNL     1      -0.759  11.592  21.834  0.00  0.00    +0.000 A 
ATOM     16  N   UNL     1      -0.434  12.335  22.871  0.00  0.00    +0.000 NA
BRANCH  12  18
ATOM     17  C   UNL     1      -2.959  14.444  24.541  0.00  0.00    +0.000 C 
ATOM     18  C   UNL     1      -1.554  14.270  23.983  0.00  0.00    +0.000 C 
ENDBRANCH  12  18
ENDBRANCH   1  15
BRANCH  11  19
ATOM     19  N   UNL     1       0.038  11.578  18.938  0.00  0.00    +0.000 N 
ATOM     20  H   UNL     1      -0.417  11.236  18.094  0.00  0.00    +0.000 HD
BRANCH  19  21
ATOM     21  C   UNL     1       0.587  12.871  18.745  0.00  0.00    +0.000 A 
ATOM     22  C   UNL     1       1.950  13.108  18.514  0.00  0.00    +0.000 A 
ATOM     23  C   UNL     1       2.457  14.411  18.433  0.00  0.00    +0.000 A 
ATOM     24  C   UNL     1       1.602  15.500  18.560  0.00  0.00    +0.000 A 
ATOM     25  C   UNL     1       0.239  15.283  18.767  0.00  0.00    +0.000 A 
ATOM     26  C   UNL     1      -0.257  13.983  18.893  0.00  0.00    +0.000 A 
ATOM     27  O   UNL     1      -0.672  16.305  18.857  0.00  0.00    +0.000 OA
ATOM     28  C   UNL     1      -0.143  17.505  18.279  0.00  0.00    +0.000 C 
ATOM     29  C   UNL     1       1.249  17.783  18.822  0.00  0.00    +0.000 C 
ATOM     30  O   UNL     1       2.164  16.745  18.452  0.00  0.00    +0.000 OA
ENDBRANCH  19  21
ENDBRANCH  11  19
TORSDOF 4
ENDMDL
MODEL 9
REMARK VINA RESULT:      -7.3      3.512      4.621
REMARK  Name = 
REMARK  6 active torsions:
REMARK  status: ('A' for Active; 'I' for Inactive)
REMARK    1  A    between atoms: C_1  and  C_2
REMARK    2  A    between atoms: C_2  and  C_3
REMARK    3  A    between atoms: C_6  and  C_7
REMARK    4  A    between atoms: C_12  and  C_13
REMARK    5  A    between atoms: C_17  and  N_18
REMARK    6  A    between atoms: N_18  and  C_19
REMARK                            x       y       z     vdW  Elec       q    Type
REMARK                         _______ _______ _______ _____ _____    ______ ____
ROOT
ATOM      1  C   UNL     1       0.231  10.176  20.896  0.00  0.00    +0.000 A 
ATOM      2  C   UNL     1       0.454   9.032  21.649  0.00  0.00    +0.000 A 
ATOM      3  N   UNL     1       1.138   7.946  21.230  0.00  0.00    +0.000 NA
ATOM      4  C   UNL     1       1.677   7.952  20.018  0.00  0.00    +0.000 A 
ATOM      5  N   UNL     1       2.345   6.858  19.650  0.00  0.00    +0.000 NA
ATOM      6  C   UNL     1       2.937   6.806  18.436  0.00  0.00    +0.000 A 
ATOM      7  C   UNL     1       3.632   5.533  18.063  0.00  0.00    +0.000 C 
ATOM      8  C   UNL     1       2.906   7.863  17.548  0.00  0.00    +0.000 A 
ATOM      9  C   UNL     1       2.221   9.006  17.927  0.00  0.00    +0.000 A 
ATOM     10  C   UNL     1       1.547   9.067  19.165  0.00  0.00    +0.000 A 
ATOM     11  C   UNL     1       0.777  10.193  19.598  0.00  0.00    +0.000 A 
ENDROOT
BRANCH   1  15
ATOM     12  C   UNL     1      -1.299  12.857  22.613  0.00  0.00    +0.000 A 
ATOM     13  N   UNL     1      -2.203  12.706  21.635  0.00  0.00    +0.000 NA
ATOM     14  O   UNL     1      -1.701  11.629  20.902  0.00  0.00    +0.000 OA
ATOM     15  C   UNL     1      -0.546  11.236  21.518  0.00  0.00    +0.000 A 
ATOM     16  N   UNL     1      -0.256  11.969  22.573  0.00  0.00    +0.000 NA
BRANCH  12  18
ATOM     17  C   UNL     1      -0.640  15.182  23.210  0.00  0.00    +0.000 C 
ATOM     18  C   UNL     1      -1.386  13.926  23.636  0.00  0.00    +0.000 C 
ENDBRANCH  12  18
ENDBRANCH   1  15
BRANCH  11  19
ATOM     19  N   UNL     1       0.497  11.268  18.701  0.00  0.00    +0.000 N 
ATOM     20  H   UNL     1       0.252  10.968  17.760  0.00  0.00    +0.000 HD
BRANCH  19  21
ATOM     21  C   UNL     1       0.983  12.600  18.712  0.00  0.00    +0.000 A 
ATOM     22  C   UNL     1       0.162  13.723  18.896  0.00  0.00    +0.000 A 
ATOM     23  C   UNL     1       0.676  15.022  18.794  0.00  0.00    +0.000 A 
ATOM     24  C   UNL     1       2.026  15.217  18.527  0.00  0.00    +0.000 A 
ATOM     25  C   UNL     1       2.862  14.112  18.364  0.00  0.00    +0.000 A 
ATOM     26  C   UNL     1       2.339  12.818  18.420  0.00  0.00    +0.000 A 
ATOM     27  O   UNL     1       4.212  14.226  18.143  0.00  0.00    +0.000 OA
ATOM     28  C   UNL     1       4.682  15.518  18.548  0.00  0.00    +0.000 C 
ATOM     29  C   UNL     1       3.801  16.607  17.960  0.00  0.00    +0.000 C 
ATOM     30  O   UNL     1       2.462  16.515  18.460  0.00  0.00    +0.000 OA
ENDBRANCH  19  21
ENDBRANCH  11  19
TORSDOF 4
ENDMDL
