MODEL 1
REMARK VINA RESULT:      -5.9      0.000      0.000
REMARK  Name = 
REMARK  9 active torsions:
REMARK  status: ('A' for Active; 'I' for Inactive)
REMARK    1  A    between atoms: C_1  and  C_2
REMARK    2  A    between atoms: C_2  and  C_3
REMARK    3  A    between atoms: C_10  and  C_11
REMARK    4  A    between atoms: N_17  and  C_18
REMARK    5  A    between atoms: C_18  and  C_19
REMARK    6  A    between atoms: C_19  and  O_20
REMARK    7  A    between atoms: O_20  and  C_21
REMARK    8  A    between atoms: C_21  and  C_22
REMARK    9  A    between atoms: C_22  and  O_23
REMARK                            x       y       z     vdW  Elec       q    Type
REMARK                         _______ _______ _______ _____ _____    ______ ____
ROOT
ATOM      1  C   UNL     1       5.230   4.556  15.436  0.00  0.00    +0.000 C 
ATOM      2  C   UNL     1       4.850   4.549  16.922  0.00  0.00    +0.000 C 
ATOM      3  C   UNL     1       6.142   4.585  17.757  0.00  0.00    +0.000 C 
ATOM      4  C   UNL     1       3.953   5.762  17.216  0.00  0.00    +0.000 C 
ATOM      5  C   UNL     1       3.235   5.684  18.554  0.00  0.00    +0.000 A 
ATOM      6  C   UNL     1       3.116   4.463  19.117  0.00  0.00    +0.000 A 
ATOM      7  C   UNL     1       2.449   4.363  20.458  0.00  0.00    +0.000 A 
ATOM      8  S   UNL     1       2.400   2.957  21.397  0.00  0.00    +0.000 S 
ATOM      9  N   UNL     1       1.834   5.494  20.920  0.00  0.00    +0.000 NA
ATOM     10  C   UNL     1       1.940   6.654  20.334  0.00  0.00    +0.000 A 
ATOM     11  N   UNL     1       2.695   6.852  19.152  0.00  0.00    +0.000 N 
ATOM     12  C   UNL     1       3.637   3.193  18.488  0.00  0.00    +0.000 C 
ATOM     13  O   UNL     1       4.100   3.356  17.145  0.00  0.00    +0.000 OA
ENDROOT
BRANCH  10  14
ATOM     14  C   UNL     1       1.157   7.725  21.068  0.00  0.00    +0.000 A 
ATOM     15  C   UNL     1       1.878   8.614  21.889  0.00  0.00    +0.000 A 
ATOM     16  C   UNL     1       1.222   9.581  22.655  0.00  0.00    +0.000 A 
ATOM     17  C   UNL     1      -0.164   9.691  22.590  0.00  0.00    +0.000 A 
ATOM     18  C   UNL     1      -0.891   8.812  21.791  0.00  0.00    +0.000 A 
ATOM     19  C   UNL     1      -0.237   7.810  21.064  0.00  0.00    +0.000 A 
ENDBRANCH  10  14
BRANCH  11  20
ATOM     20  C   UNL     1       2.832   8.163  18.482  0.00  0.00    +0.000 C 
BRANCH  20  21
ATOM     21  C   UNL     1       1.577   8.703  17.793  0.00  0.00    +0.000 C 
BRANCH  21  22
ATOM     22  O   UNL     1       1.244  10.050  18.165  0.00  0.00    +0.000 OA
BRANCH  22  23
ATOM     23  C   UNL     1      -0.190  10.191  18.188  0.00  0.00    +0.000 C 
BRANCH  23  24
ATOM     24  C   UNL     1      -0.597  11.491  18.872  0.00  0.00    +0.000 C 
BRANCH  24  25
ATOM     25  O   UNL     1      -0.371  12.600  18.002  0.00  0.00    +0.000 OA
ATOM     26  H   UNL     1       0.597  12.711  17.976  0.00  0.00    +0.000 HD
ENDBRANCH  24  25
ENDBRANCH  23  24
ENDBRANCH  22  23
ENDBRANCH  21  22
ENDBRANCH  20  21
ENDBRANCH  11  20
TORSDOF 7
ENDMDL
MODEL 2
REMARK VINA RESULT:      -5.8      0.519      1.117
REMARK  Name = 
REMARK  9 active torsions:
REMARK  status: ('A' for Active; 'I' for Inactive)
REMARK    1  A    between atoms: C_1  and  C_2
REMARK    2  A    between atoms: C_2  and  C_3
REMARK    3  A    between atoms: C_10  and  C_11
REMARK    4  A    between atoms: N_17  and  C_18
REMARK    5  A    between atoms: C_18  and  C_19
REMARK    6  A    between atoms: C_19  and  O_20
REMARK    7  A    between atoms: O_20  and  C_21
REMARK    8  A    between atoms: C_21  and  C_22
REMARK    9  A    between atoms: C_22  and  O_23
REMARK                            x       y       z     vdW  Elec       q    Type
REMARK                         _______ _______ _______ _____ _____    ______ ____
ROOT
ATOM      1  C   UNL     1       5.263   4.390  15.380  0.00  0.00    +0.000 C 
ATOM      2  C   UNL     1       4.886   4.380  16.867  0.00  0.00    +0.000 C 
ATOM      3  C   UNL     1       6.180   4.358  17.699  0.00  0.00    +0.000 C 
ATOM      4  C   UNL     1       4.034   5.621  17.177  0.00  0.00    +0.000 C 
ATOM      5  C   UNL     1       3.317   5.553  18.517  0.00  0.00    +0.000 A 
ATOM      6  C   UNL     1       3.155   4.331  19.066  0.00  0.00    +0.000 A 
ATOM      7  C   UNL     1       2.488   4.240  20.407  0.00  0.00    +0.000 A 
ATOM      8  S   UNL     1       2.390   2.825  21.330  0.00  0.00    +0.000 S 
ATOM      9  N   UNL     1       1.915   5.387  20.884  0.00  0.00    +0.000 NA
ATOM     10  C   UNL     1       2.062   6.548  20.311  0.00  0.00    +0.000 A 
ATOM     11  N   UNL     1       2.821   6.733  19.129  0.00  0.00    +0.000 N 
ATOM     12  C   UNL     1       3.627   3.050  18.420  0.00  0.00    +0.000 C 
ATOM     13  O   UNL     1       4.093   3.212  17.078  0.00  0.00    +0.000 OA
ENDROOT
BRANCH  10  14
ATOM     14  C   UNL     1       1.320   7.639  21.059  0.00  0.00    +0.000 A 
ATOM     15  C   UNL     1      -0.087   7.573  21.084  0.00  0.00    +0.000 A 
ATOM     16  C   UNL     1      -0.845   8.579  21.688  0.00  0.00    +0.000 A 
ATOM     17  C   UNL     1      -0.207   9.653  22.300  0.00  0.00    +0.000 A 
ATOM     18  C   UNL     1       1.184   9.737  22.275  0.00  0.00    +0.000 A 
ATOM     19  C   UNL     1       1.940   8.755  21.624  0.00  0.00    +0.000 A 
ENDBRANCH  10  14
BRANCH  11  20
ATOM     20  C   UNL     1       3.005   8.046  18.475  0.00  0.00    +0.000 C 
BRANCH  20  21
ATOM     21  C   UNL     1       1.788   8.606  17.733  0.00  0.00    +0.000 C 
BRANCH  21  22
ATOM     22  O   UNL     1       1.848  10.024  17.508  0.00  0.00    +0.000 OA
BRANCH  22  23
ATOM     23  C   UNL     1       1.041  10.691  18.499  0.00  0.00    +0.000 C 
BRANCH  23  24
ATOM     24  C   UNL     1      -0.415  10.252  18.397  0.00  0.00    +0.000 C 
BRANCH  24  25
ATOM     25  O   UNL     1      -1.135  11.123  17.526  0.00  0.00    +0.000 OA
ATOM     26  H   UNL     1      -1.884  11.453  18.056  0.00  0.00    +0.000 HD
ENDBRANCH  24  25
ENDBRANCH  23  24
ENDBRANCH  22  23
ENDBRANCH  21  22
ENDBRANCH  20  21
ENDBRANCH  11  20
TORSDOF 7
ENDMDL
MODEL 3
REMARK VINA RESULT:      -5.5      6.329      8.911
REMARK  Name = 
REMARK  9 active torsions:
REMARK  status: ('A' for Active; 'I' for Inactive)
REMARK    1  A    between atoms: C_1  and  C_2
REMARK    2  A    between atoms: C_2  and  C_3
REMARK    3  A    between atoms: C_10  and  C_11
REMARK    4  A    between atoms: N_17  and  C_18
REMARK    5  A    between atoms: C_18  and  C_19
REMARK    6  A    between atoms: C_19  and  O_20
REMARK    7  A    between atoms: O_20  and  C_21
REMARK    8  A    between atoms: C_21  and  C_22
REMARK    9  A    between atoms: C_22  and  O_23
REMARK                            x       y       z     vdW  Elec       q    Type
REMARK                         _______ _______ _______ _____ _____    ______ ____
ROOT
ATOM      1  C   UNL     1      -2.518  10.764  15.804  0.00  0.00    +0.000 C 
ATOM      2  C   UNL     1      -3.375  10.789  17.076  0.00  0.00    +0.000 C 
ATOM      3  C   UNL     1      -3.426   9.366  17.659  0.00  0.00    +0.000 C 
ATOM      4  C   UNL     1      -2.764  11.787  18.072  0.00  0.00    +0.000 C 
ATOM      5  C   UNL     1      -3.695  12.159  19.216  0.00  0.00    +0.000 A 
ATOM      6  C   UNL     1      -5.014  11.939  19.032  0.00  0.00    +0.000 A 
ATOM      7  C   UNL     1      -5.950  12.256  20.161  0.00  0.00    +0.000 A 
ATOM      8  S   UNL     1      -7.593  11.853  20.182  0.00  0.00    +0.000 S 
ATOM      9  N   UNL     1      -5.417  12.932  21.225  0.00  0.00    +0.000 NA
ATOM     10  C   UNL     1      -4.141  13.160  21.358  0.00  0.00    +0.000 A 
ATOM     11  N   UNL     1      -3.181  12.738  20.405  0.00  0.00    +0.000 N 
ATOM     12  C   UNL     1      -5.601  11.368  17.763  0.00  0.00    +0.000 C 
ATOM     13  O   UNL     1      -4.667  11.256  16.687  0.00  0.00    +0.000 OA
ENDROOT
BRANCH  10  14
ATOM     14  C   UNL     1      -3.839  13.925  22.631  0.00  0.00    +0.000 A 
ATOM     15  C   UNL     1      -3.756  15.329  22.545  0.00  0.00    +0.000 A 
ATOM     16  C   UNL     1      -3.408  16.099  23.658  0.00  0.00    +0.000 A 
ATOM     17  C   UNL     1      -3.165  15.480  24.880  0.00  0.00    +0.000 A 
ATOM     18  C   UNL     1      -3.234  14.091  24.977  0.00  0.00    +0.000 A 
ATOM     19  C   UNL     1      -3.531  13.317  23.849  0.00  0.00    +0.000 A 
ENDBRANCH  10  14
BRANCH  11  20
ATOM     20  C   UNL     1      -1.729  12.980  20.549  0.00  0.00    +0.000 C 
BRANCH  20  21
ATOM     21  C   UNL     1      -0.954  11.957  21.384  0.00  0.00    +0.000 C 
BRANCH  21  22
ATOM     22  O   UNL     1       0.189  11.406  20.712  0.00  0.00    +0.000 OA
BRANCH  22  23
ATOM     23  C   UNL     1       0.671  10.271  21.459  0.00  0.00    +0.000 C 
BRANCH  23  24
ATOM     24  C   UNL     1      -0.309   9.894  22.564  0.00  0.00    +0.000 C 
BRANCH  24  25
ATOM     25  O   UNL     1       0.387   9.690  23.793  0.00  0.00    +0.000 OA
ATOM     26  H   UNL     1      -0.052   8.925  24.211  0.00  0.00    +0.000 HD
ENDBRANCH  24  25
ENDBRANCH  23  24
ENDBRANCH  22  23
ENDBRANCH  21  22
ENDBRANCH  20  21
ENDBRANCH  11  20
TORSDOF 7
ENDMDL
MODEL 4
REMARK VINA RESULT:      -5.4      5.735      8.757
REMARK  Name = 
REMARK  9 active torsions:
REMARK  status: ('A' for Active; 'I' for Inactive)
REMARK    1  A    between atoms: C_1  and  C_2
REMARK    2  A    between atoms: C_2  and  C_3
REMARK    3  A    between atoms: C_10  and  C_11
REMARK    4  A    between atoms: N_17  and  C_18
REMARK    5  A    between atoms: C_18  and  C_19
REMARK    6  A    between atoms: C_19  and  O_20
REMARK    7  A    between atoms: O_20  and  C_21
REMARK    8  A    between atoms: C_21  and  C_22
REMARK    9  A    between atoms: C_22  and  O_23
REMARK                            x       y       z     vdW  Elec       q    Type
REMARK                         _______ _______ _______ _____ _____    ______ ____
ROOT
ATOM      1  C   UNL     1      -2.685  10.836  15.669  0.00  0.00    +0.000 C 
ATOM      2  C   UNL     1      -3.433  10.815  17.009  0.00  0.00    +0.000 C 
ATOM      3  C   UNL     1      -3.315   9.404  17.612  0.00  0.00    +0.000 C 
ATOM      4  C   UNL     1      -2.828  11.880  17.937  0.00  0.00    +0.000 C 
ATOM      5  C   UNL     1      -3.689  12.195  19.151  0.00  0.00    +0.000 A 
ATOM      6  C   UNL     1      -4.996  11.862  19.081  0.00  0.00    +0.000 A 
ATOM      7  C   UNL     1      -5.858  12.122  20.281  0.00  0.00    +0.000 A 
ATOM      8  S   UNL     1      -7.453  11.584  20.445  0.00  0.00    +0.000 S 
ATOM      9  N   UNL     1      -5.298  12.861  21.287  0.00  0.00    +0.000 NA
ATOM     10  C   UNL     1      -4.039  13.197  21.309  0.00  0.00    +0.000 A 
ATOM     11  N   UNL     1      -3.129  12.838  20.285  0.00  0.00    +0.000 N 
ATOM     12  C   UNL     1      -5.636  11.219  17.874  0.00  0.00    +0.000 C 
ATOM     13  O   UNL     1      -4.787  11.165  16.724  0.00  0.00    +0.000 OA
ENDROOT
BRANCH  10  14
ATOM     14  C   UNL     1      -3.698  14.009  22.543  0.00  0.00    +0.000 A 
ATOM     15  C   UNL     1      -3.566  13.318  23.764  0.00  0.00    +0.000 A 
ATOM     16  C   UNL     1      -3.327  14.004  24.958  0.00  0.00    +0.000 A 
ATOM     17  C   UNL     1      -3.189  15.388  24.945  0.00  0.00    +0.000 A 
ATOM     18  C   UNL     1      -3.327  16.086  23.746  0.00  0.00    +0.000 A 
ATOM     19  C   UNL     1      -3.618  15.403  22.560  0.00  0.00    +0.000 A 
ENDBRANCH  10  14
BRANCH  11  20
ATOM     20  C   UNL     1      -1.696  13.202  20.302  0.00  0.00    +0.000 C 
BRANCH  20  21
ATOM     21  C   UNL     1      -0.778  12.291  21.121  0.00  0.00    +0.000 C 
BRANCH  21  22
ATOM     22  O   UNL     1      -0.549  11.007  20.519  0.00  0.00    +0.000 OA
BRANCH  22  23
ATOM     23  C   UNL     1       0.750  11.007  19.892  0.00  0.00    +0.000 C 
BRANCH  23  24
ATOM     24  C   UNL     1       0.859   9.882  18.871  0.00  0.00    +0.000 C 
BRANCH  24  25
ATOM     25  O   UNL     1       0.203  10.249  17.657  0.00  0.00    +0.000 OA
ATOM     26  H   UNL     1       0.802  10.885  17.226  0.00  0.00    +0.000 HD
ENDBRANCH  24  25
ENDBRANCH  23  24
ENDBRANCH  22  23
ENDBRANCH  21  22
ENDBRANCH  20  21
ENDBRANCH  11  20
TORSDOF 7
ENDMDL
MODEL 5
REMARK VINA RESULT:      -5.4      2.467      6.445
REMARK  Name = 
REMARK  9 active torsions:
REMARK  status: ('A' for Active; 'I' for Inactive)
REMARK    1  A    between atoms: C_1  and  C_2
REMARK    2  A    between atoms: C_2  and  C_3
REMARK    3  A    between atoms: C_10  and  C_11
REMARK    4  A    between atoms: N_17  and  C_18
REMARK    5  A    between atoms: C_18  and  C_19
REMARK    6  A    between atoms: C_19  and  O_20
REMARK    7  A    between atoms: O_20  and  C_21
REMARK    8  A    between atoms: C_21  and  C_22
REMARK    9  A    between atoms: C_22  and  O_23
REMARK                            x       y       z     vdW  Elec       q    Type
REMARK                         _______ _______ _______ _____ _____    ______ ____
ROOT
ATOM      1  C   UNL     1       1.835  13.059  17.833  0.00  0.00    +0.000 C 
ATOM      2  C   UNL     1       1.203  11.980  18.721  0.00  0.00    +0.000 C 
ATOM      3  C   UNL     1      -0.308  11.937  18.437  0.00  0.00    +0.000 C 
ATOM      4  C   UNL     1       1.874  10.630  18.424  0.00  0.00    +0.000 C 
ATOM      5  C   UNL     1       1.585   9.560  19.465  0.00  0.00    +0.000 A 
ATOM      6  C   UNL     1       1.164   9.979  20.677  0.00  0.00    +0.000 A 
ATOM      7  C   UNL     1       0.831   8.942  21.709  0.00  0.00    +0.000 A 
ATOM      8  S   UNL     1       0.097   9.277  23.197  0.00  0.00    +0.000 S 
ATOM      9  N   UNL     1       1.168   7.651  21.410  0.00  0.00    +0.000 NA
ATOM     10  C   UNL     1       1.605   7.282  20.239  0.00  0.00    +0.000 A 
ATOM     11  N   UNL     1       1.785   8.188  19.164  0.00  0.00    +0.000 N 
ATOM     12  C   UNL     1       0.984  11.432  21.048  0.00  0.00    +0.000 C 
ATOM     13  O   UNL     1       1.484  12.348  20.071  0.00  0.00    +0.000 OA
ENDROOT
BRANCH  10  14
ATOM     14  C   UNL     1       1.896   5.794  20.193  0.00  0.00    +0.000 A 
ATOM     15  C   UNL     1       0.804   4.912  20.318  0.00  0.00    +0.000 A 
ATOM     16  C   UNL     1       0.998   3.529  20.360  0.00  0.00    +0.000 A 
ATOM     17  C   UNL     1       2.282   3.006  20.250  0.00  0.00    +0.000 A 
ATOM     18  C   UNL     1       3.372   3.867  20.135  0.00  0.00    +0.000 A 
ATOM     19  C   UNL     1       3.182   5.254  20.146  0.00  0.00    +0.000 A 
ENDBRANCH  10  14
BRANCH  11  20
ATOM     20  C   UNL     1       2.270   7.781  17.827  0.00  0.00    +0.000 C 
BRANCH  20  21
ATOM     21  C   UNL     1       3.782   7.591  17.688  0.00  0.00    +0.000 C 
BRANCH  21  22
ATOM     22  O   UNL     1       4.159   6.319  17.138  0.00  0.00    +0.000 OA
BRANCH  22  23
ATOM     23  C   UNL     1       5.174   6.522  16.136  0.00  0.00    +0.000 C 
BRANCH  23  24
ATOM     24  C   UNL     1       6.541   6.088  16.652  0.00  0.00    +0.000 C 
BRANCH  24  25
ATOM     25  O   UNL     1       7.348   7.229  16.940  0.00  0.00    +0.000 OA
ATOM     26  H   UNL     1       7.220   7.830  16.182  0.00  0.00    +0.000 HD
ENDBRANCH  24  25
ENDBRANCH  23  24
ENDBRANCH  22  23
ENDBRANCH  21  22
ENDBRANCH  20  21
ENDBRANCH  11  20
TORSDOF 7
ENDMDL
MODEL 6
REMARK VINA RESULT:      -5.3      2.283      6.492
REMARK  Name = 
REMARK  9 active torsions:
REMARK  status: ('A' for Active; 'I' for Inactive)
REMARK    1  A    between atoms: C_1  and  C_2
REMARK    2  A    between atoms: C_2  and  C_3
REMARK    3  A    between atoms: C_10  and  C_11
REMARK    4  A    between atoms: N_17  and  C_18
REMARK    5  A    between atoms: C_18  and  C_19
REMARK    6  A    between atoms: C_19  and  O_20
REMARK    7  A    between atoms: O_20  and  C_21
REMARK    8  A    between atoms: C_21  and  C_22
REMARK    9  A    between atoms: C_22  and  O_23
REMARK                            x       y       z     vdW  Elec       q    Type
REMARK                         _______ _______ _______ _____ _____    ______ ____
ROOT
ATOM      1  C   UNL     1       1.851  12.878  17.775  0.00  0.00    +0.000 C 
ATOM      2  C   UNL     1       1.196  11.823  18.675  0.00  0.00    +0.000 C 
ATOM      3  C   UNL     1      -0.308  11.774  18.356  0.00  0.00    +0.000 C 
ATOM      4  C   UNL     1       1.871  10.465  18.429  0.00  0.00    +0.000 C 
ATOM      5  C   UNL     1       1.556   9.422  19.490  0.00  0.00    +0.000 A 
ATOM      6  C   UNL     1       1.108   9.874  20.681  0.00  0.00    +0.000 A 
ATOM      7  C   UNL     1       0.748   8.864  21.731  0.00  0.00    +0.000 A 
ATOM      8  S   UNL     1      -0.019   9.237  23.191  0.00  0.00    +0.000 S 
ATOM      9  N   UNL     1       1.091   7.564  21.472  0.00  0.00    +0.000 NA
ATOM     10  C   UNL     1       1.555   7.165  20.322  0.00  0.00    +0.000 A 
ATOM     11  N   UNL     1       1.761   8.043  19.229  0.00  0.00    +0.000 N 
ATOM     12  C   UNL     1       0.922  11.335  21.010  0.00  0.00    +0.000 C 
ATOM     13  O   UNL     1       1.446  12.226  20.022  0.00  0.00    +0.000 OA
ENDROOT
BRANCH  10  14
ATOM     14  C   UNL     1       1.844   5.677  20.321  0.00  0.00    +0.000 A 
ATOM     15  C   UNL     1       3.172   5.270  20.086  0.00  0.00    +0.000 A 
ATOM     16  C   UNL     1       3.505   3.915  19.996  0.00  0.00    +0.000 A 
ATOM     17  C   UNL     1       2.520   2.948  20.166  0.00  0.00    +0.000 A 
ATOM     18  C   UNL     1       1.200   3.336  20.388  0.00  0.00    +0.000 A 
ATOM     19  C   UNL     1       0.859   4.693  20.427  0.00  0.00    +0.000 A 
ENDBRANCH  10  14
BRANCH  11  20
ATOM     20  C   UNL     1       2.277   7.602  17.915  0.00  0.00    +0.000 C 
BRANCH  20  21
ATOM     21  C   UNL     1       3.800   7.568  17.765  0.00  0.00    +0.000 C 
BRANCH  21  22
ATOM     22  O   UNL     1       4.279   6.478  16.961  0.00  0.00    +0.000 OA
BRANCH  22  23
ATOM     23  C   UNL     1       5.590   6.096  17.423  0.00  0.00    +0.000 C 
BRANCH  23  24
ATOM     24  C   UNL     1       5.811   4.598  17.247  0.00  0.00    +0.000 C 
BRANCH  24  25
ATOM     25  O   UNL     1       6.826   4.139  18.139  0.00  0.00    +0.000 OA
ATOM     26  H   UNL     1       6.593   3.213  18.337  0.00  0.00    +0.000 HD
ENDBRANCH  24  25
ENDBRANCH  23  24
ENDBRANCH  22  23
ENDBRANCH  21  22
ENDBRANCH  20  21
ENDBRANCH  11  20
TORSDOF 7
ENDMDL
MODEL 7
REMARK VINA RESULT:      -5.3      6.098      8.812
REMARK  Name = 
REMARK  9 active torsions:
REMARK  status: ('A' for Active; 'I' for Inactive)
REMARK    1  A    between atoms: C_1  and  C_2
REMARK    2  A    between atoms: C_2  and  C_3
REMARK    3  A    between atoms: C_10  and  C_11
REMARK    4  A    between atoms: N_17  and  C_18
REMARK    5  A    between atoms: C_18  and  C_19
REMARK    6  A    between atoms: C_19  and  O_20
REMARK    7  A    between atoms: O_20  and  C_21
REMARK    8  A    between atoms: C_21  and  C_22
REMARK    9  A    between atoms: C_22  and  O_23
REMARK                            x       y       z     vdW  Elec       q    Type
REMARK                         _______ _______ _______ _____ _____    ______ ____
ROOT
ATOM      1  C   UNL     1      -2.679  10.684  15.757  0.00  0.00    +0.000 C 
ATOM      2  C   UNL     1      -3.440  10.702  17.089  0.00  0.00    +0.000 C 
ATOM      3  C   UNL     1      -3.410   9.285  17.688  0.00  0.00    +0.000 C 
ATOM      4  C   UNL     1      -2.784  11.727  18.027  0.00  0.00    +0.000 C 
ATOM      5  C   UNL     1      -3.638  12.087  19.234  0.00  0.00    +0.000 A 
ATOM      6  C   UNL     1      -4.960  11.830  19.149  0.00  0.00    +0.000 A 
ATOM      7  C   UNL     1      -5.818  12.136  20.342  0.00  0.00    +0.000 A 
ATOM      8  S   UNL     1      -7.443  11.690  20.489  0.00  0.00    +0.000 S 
ATOM      9  N   UNL     1      -5.227  12.838  21.357  0.00  0.00    +0.000 NA
ATOM     10  C   UNL     1      -3.951  13.101  21.393  0.00  0.00    +0.000 A 
ATOM     11  N   UNL     1      -3.053  12.693  20.375  0.00  0.00    +0.000 N 
ATOM     12  C   UNL     1      -5.624  11.230  17.934  0.00  0.00    +0.000 C 
ATOM     13  O   UNL     1      -4.769  11.131  16.792  0.00  0.00    +0.000 OA
ENDROOT
BRANCH  10  14
ATOM     14  C   UNL     1      -3.576  13.888  22.633  0.00  0.00    +0.000 A 
ATOM     15  C   UNL     1      -3.576  13.204  23.865  0.00  0.00    +0.000 A 
ATOM     16  C   UNL     1      -3.315  13.877  25.062  0.00  0.00    +0.000 A 
ATOM     17  C   UNL     1      -3.023  15.237  25.042  0.00  0.00    +0.000 A 
ATOM     18  C   UNL     1      -3.029  15.928  23.832  0.00  0.00    +0.000 A 
ATOM     19  C   UNL     1      -3.342  15.264  22.640  0.00  0.00    +0.000 A 
ENDBRANCH  10  14
BRANCH  11  20
ATOM     20  C   UNL     1      -1.601  12.975  20.408  0.00  0.00    +0.000 C 
BRANCH  20  21
ATOM     21  C   UNL     1      -0.785  12.188  21.437  0.00  0.00    +0.000 C 
BRANCH  21  22
ATOM     22  O   UNL     1       0.035  11.159  20.863  0.00  0.00    +0.000 OA
BRANCH  22  23
ATOM     23  C   UNL     1      -0.445   9.874  21.307  0.00  0.00    +0.000 C 
BRANCH  23  24
ATOM     24  C   UNL     1       0.623   9.144  22.112  0.00  0.00    +0.000 C 
BRANCH  24  25
ATOM     25  O   UNL     1       0.695   9.675  23.435  0.00  0.00    +0.000 OA
ATOM     26  H   UNL     1      -0.223   9.912  23.665  0.00  0.00    +0.000 HD
ENDBRANCH  24  25
ENDBRANCH  23  24
ENDBRANCH  22  23
ENDBRANCH  21  22
ENDBRANCH  20  21
ENDBRANCH  11  20
TORSDOF 7
ENDMDL
MODEL 8
REMARK VINA RESULT:      -5.3      6.709      8.776
REMARK  Name = 
REMARK  9 active torsions:
REMARK  status: ('A' for Active; 'I' for Inactive)
REMARK    1  A    between atoms: C_1  and  C_2
REMARK    2  A    between atoms: C_2  and  C_3
REMARK    3  A    between atoms: C_10  and  C_11
REMARK    4  A    between atoms: N_17  and  C_18
REMARK    5  A    between atoms: C_18  and  C_19
REMARK    6  A    between atoms: C_19  and  O_20
REMARK    7  A    between atoms: O_20  and  C_21
REMARK    8  A    between atoms: C_21  and  C_22
REMARK    9  A    between atoms: C_22  and  O_23
REMARK                            x       y       z     vdW  Elec       q    Type
REMARK                         _______ _______ _______ _____ _____    ______ ____
ROOT
ATOM      1  C   UNL     1      -2.685  10.806  15.683  0.00  0.00    +0.000 C 
ATOM      2  C   UNL     1      -3.436  10.789  17.021  0.00  0.00    +0.000 C 
ATOM      3  C   UNL     1      -3.320   9.381  17.629  0.00  0.00    +0.000 C 
ATOM      4  C   UNL     1      -2.834  11.857  17.947  0.00  0.00    +0.000 C 
ATOM      5  C   UNL     1      -3.698  12.176  19.158  0.00  0.00    +0.000 A 
ATOM      6  C   UNL     1      -5.004  11.843  19.085  0.00  0.00    +0.000 A 
ATOM      7  C   UNL     1      -5.869  12.108  20.282  0.00  0.00    +0.000 A 
ATOM      8  S   UNL     1      -7.465  11.569  20.444  0.00  0.00    +0.000 S 
ATOM      9  N   UNL     1      -5.312  12.850  21.288  0.00  0.00    +0.000 NA
ATOM     10  C   UNL     1      -4.053  13.186  21.312  0.00  0.00    +0.000 A 
ATOM     11  N   UNL     1      -3.141  12.823  20.291  0.00  0.00    +0.000 N 
ATOM     12  C   UNL     1      -5.641  11.197  17.878  0.00  0.00    +0.000 C 
ATOM     13  O   UNL     1      -4.789  11.139  16.732  0.00  0.00    +0.000 OA
ENDROOT
BRANCH  10  14
ATOM     14  C   UNL     1      -3.716  14.002  22.544  0.00  0.00    +0.000 A 
ATOM     15  C   UNL     1      -3.838  15.403  22.453  0.00  0.00    +0.000 A 
ATOM     16  C   UNL     1      -3.474  16.229  23.520  0.00  0.00    +0.000 A 
ATOM     17  C   UNL     1      -3.009  15.665  24.704  0.00  0.00    +0.000 A 
ATOM     18  C   UNL     1      -2.874  14.281  24.805  0.00  0.00    +0.000 A 
ATOM     19  C   UNL     1      -3.189  13.459  23.717  0.00  0.00    +0.000 A 
ENDBRANCH  10  14
BRANCH  11  20
ATOM     20  C   UNL     1      -1.707  13.188  20.311  0.00  0.00    +0.000 C 
BRANCH  20  21
ATOM     21  C   UNL     1      -0.762  12.172  20.959  0.00  0.00    +0.000 C 
BRANCH  21  22
ATOM     22  O   UNL     1       0.626  12.408  20.673  0.00  0.00    +0.000 OA
BRANCH  22  23
ATOM     23  C   UNL     1       0.929  11.895  19.361  0.00  0.00    +0.000 C 
BRANCH  23  24
ATOM     24  C   UNL     1       1.842  12.851  18.602  0.00  0.00    +0.000 C 
BRANCH  24  25
ATOM     25  O   UNL     1       2.471  12.176  17.513  0.00  0.00    +0.000 OA
ATOM     26  H   UNL     1       2.694  12.877  16.873  0.00  0.00    +0.000 HD
ENDBRANCH  24  25
ENDBRANCH  23  24
ENDBRANCH  22  23
ENDBRANCH  21  22
ENDBRANCH  20  21
ENDBRANCH  11  20
TORSDOF 7
ENDMDL
MODEL 9
REMARK VINA RESULT:      -5.2      6.523      9.668
REMARK  Name = 
REMARK  9 active torsions:
REMARK  status: ('A' for Active; 'I' for Inactive)
REMARK    1  A    between atoms: C_1  and  C_2
REMARK    2  A    between atoms: C_2  and  C_3
REMARK    3  A    between atoms: C_10  and  C_11
REMARK    4  A    between atoms: N_17  and  C_18
REMARK    5  A    between atoms: C_18  and  C_19
REMARK    6  A    between atoms: C_19  and  O_20
REMARK    7  A    between atoms: O_20  and  C_21
REMARK    8  A    between atoms: C_21  and  C_22
REMARK    9  A    between atoms: C_22  and  O_23
REMARK                            x       y       z     vdW  Elec       q    Type
REMARK                         _______ _______ _______ _____ _____    ______ ____
ROOT
ATOM      1  C   UNL     1      -1.659  14.769  24.209  0.00  0.00    +0.000 C 
ATOM      2  C   UNL     1      -2.721  14.502  23.135  0.00  0.00    +0.000 C 
ATOM      3  C   UNL     1      -3.224  15.853  22.598  0.00  0.00    +0.000 C 
ATOM      4  C   UNL     1      -2.102  13.645  22.020  0.00  0.00    +0.000 C 
ATOM      5  C   UNL     1      -3.127  13.029  21.081  0.00  0.00    +0.000 A 
ATOM      6  C   UNL     1      -4.397  12.938  21.530  0.00  0.00    +0.000 A 
ATOM      7  C   UNL     1      -5.436  12.373  20.607  0.00  0.00    +0.000 A 
ATOM      8  S   UNL     1      -7.098  12.378  20.924  0.00  0.00    +0.000 S 
ATOM      9  N   UNL     1      -4.982  11.808  19.447  0.00  0.00    +0.000 NA
ATOM     10  C   UNL     1      -3.741  11.883  19.056  0.00  0.00    +0.000 A 
ATOM     11  N   UNL     1      -2.738  12.549  19.803  0.00  0.00    +0.000 N 
ATOM     12  C   UNL     1      -4.838  13.394  22.900  0.00  0.00    +0.000 C 
ATOM     13  O   UNL     1      -3.761  13.756  23.768  0.00  0.00    +0.000 OA
ENDROOT
BRANCH  10  14
ATOM     14  C   UNL     1      -3.526  11.171  17.735  0.00  0.00    +0.000 A 
ATOM     15  C   UNL     1      -2.607  10.102  17.711  0.00  0.00    +0.000 A 
ATOM     16  C   UNL     1      -2.299   9.444  16.518  0.00  0.00    +0.000 A 
ATOM     17  C   UNL     1      -2.924   9.826  15.335  0.00  0.00    +0.000 A 
ATOM     18  C   UNL     1      -3.827  10.888  15.342  0.00  0.00    +0.000 A 
ATOM     19  C   UNL     1      -4.096  11.580  16.529  0.00  0.00    +0.000 A 
ENDBRANCH  10  14
BRANCH  11  20
ATOM     20  C   UNL     1      -1.329  12.652  19.367  0.00  0.00    +0.000 C 
BRANCH  20  21
ATOM     21  C   UNL     1      -0.393  11.538  19.843  0.00  0.00    +0.000 C 
BRANCH  21  22
ATOM     22  O   UNL     1       0.845  12.016  20.393  0.00  0.00    +0.000 OA
BRANCH  22  23
ATOM     23  C   UNL     1       1.496  12.859  19.421  0.00  0.00    +0.000 C 
BRANCH  23  24
ATOM     24  C   UNL     1       2.208  12.020  18.366  0.00  0.00    +0.000 C 
BRANCH  24  25
ATOM     25  O   UNL     1       2.505  12.816  17.219  0.00  0.00    +0.000 OA
ATOM     26  H   UNL     1       2.734  13.696  17.571  0.00  0.00    +0.000 HD
ENDBRANCH  24  25
ENDBRANCH  23  24
ENDBRANCH  22  23
ENDBRANCH  21  22
ENDBRANCH  20  21
ENDBRANCH  11  20
TORSDOF 7
ENDMDL
