MODEL 1
REMARK VINA RESULT:      -7.4      0.000      0.000
REMARK  Name = 
REMARK  7 active torsions:
REMARK  status: ('A' for Active; 'I' for Inactive)
REMARK    1  A    between atoms: C_1  and  C_2
REMARK    2  A    between atoms: C_2  and  N_3
REMARK    3  A    between atoms: N_3  and  C_4
REMARK    4  A    between atoms: C_5  and  C_7
REMARK    5  A    between atoms: C_11  and  C_12
REMARK    6  A    between atoms: N_15  and  S_16
REMARK    7  A    between atoms: S_16  and  C_17
REMARK                            x       y       z     vdW  Elec       q    Type
REMARK                         _______ _______ _______ _____ _____    ______ ____
ROOT
ATOM      1  C   UNL     1       0.912   9.235  20.638  0.00  0.00    +0.000 A 
ATOM      2  N   UNL     1       0.788   8.109  21.443  0.00  0.00    +0.000 NA
ATOM      3  C   UNL     1       1.389   7.142  20.790  0.00  0.00    +0.000 A 
ATOM      4  N   UNL     1       1.949   7.566  19.608  0.00  0.00    +0.000 N 
ATOM      5  C   UNL     1       2.702   6.874  18.630  0.00  0.00    +0.000 A 
ATOM      6  C   UNL     1       2.994   7.560  17.504  0.00  0.00    +0.000 A 
ATOM      7  C   UNL     1       2.613   8.995  17.461  0.00  0.00    +0.000 A 
ATOM      8  N   UNL     1       1.979   9.640  18.385  0.00  0.00    +0.000 NA
ATOM      9  C   UNL     1       1.608   8.912  19.480  0.00  0.00    +0.000 A 
ENDROOT
BRANCH   5  10
ATOM     10  C   UNL     1       3.093   5.409  18.868  0.00  0.00    +0.000 C 
ATOM     11  C   UNL     1       4.413   5.246  19.651  0.00  0.00    +0.000 C 
ATOM     12  C   UNL     1       5.637   5.584  18.811  0.00  0.00    +0.000 C 
ATOM     13  N   UNL     1       5.701   4.709  17.608  0.00  0.00    +0.000 NA
ATOM     14  C   UNL     1       4.468   4.780  16.776  0.00  0.00    +0.000 C 
ATOM     15  C   UNL     1       3.212   4.517  17.611  0.00  0.00    +0.000 C 
BRANCH  13  16
ATOM     16  S   UNL     1       7.124   4.941  16.663  0.00  0.00    +0.000 S 
ATOM     17  C   UNL     1       6.643   4.222  15.108  0.00  0.00    +0.000 C 
ATOM     18  O   UNL     1       7.289   6.365  16.453  0.00  0.00    +0.000 OA
ATOM     19  O   UNL     1       8.177   4.142  17.252  0.00  0.00    +0.000 OA
ENDBRANCH  13  16
ENDBRANCH   5  10
BRANCH   1  22
ATOM     20  N   UNL     1      -0.712  11.044  20.166  0.00  0.00    +0.000 N 
ATOM     21  C   UNL     1      -1.360  10.285  19.108  0.00  0.00    +0.000 C 
ATOM     22  C   UNL     1       0.350  10.562  20.950  0.00  0.00    +0.000 C 
ATOM     23  O   UNL     1       0.797  11.242  21.875  0.00  0.00    +0.000 OA
BRANCH  20  25
ATOM     24  C   UNL     1      -0.902  13.349  19.296  0.00  0.00    +0.000 C 
ATOM     25  C   UNL     1      -1.215  12.388  20.433  0.00  0.00    +0.000 C 
ENDBRANCH  20  25
ENDBRANCH   1  22
TORSDOF 4
ENDMDL
MODEL 2
REMARK VINA RESULT:      -7.1      1.414      2.402
REMARK  Name = 
REMARK  7 active torsions:
REMARK  status: ('A' for Active; 'I' for Inactive)
REMARK    1  A    between atoms: C_1  and  C_2
REMARK    2  A    between atoms: C_2  and  N_3
REMARK    3  A    between atoms: N_3  and  C_4
REMARK    4  A    between atoms: C_5  and  C_7
REMARK    5  A    between atoms: C_11  and  C_12
REMARK    6  A    between atoms: N_15  and  S_16
REMARK    7  A    between atoms: S_16  and  C_17
REMARK                            x       y       z     vdW  Elec       q    Type
REMARK                         _______ _______ _______ _____ _____    ______ ____
ROOT
ATOM      1  C   UNL     1       1.432   9.857  18.863  0.00  0.00    +0.000 A 
ATOM      2  N   UNL     1       1.951   9.762  17.577  0.00  0.00    +0.000 NA
ATOM      3  C   UNL     1       2.407   8.535  17.472  0.00  0.00    +0.000 A 
ATOM      4  N   UNL     1       2.184   7.786  18.603  0.00  0.00    +0.000 N 
ATOM      5  C   UNL     1       2.479   6.435  18.900  0.00  0.00    +0.000 A 
ATOM      6  C   UNL     1       2.247   6.037  20.170  0.00  0.00    +0.000 A 
ATOM      7  C   UNL     1       1.592   7.011  21.081  0.00  0.00    +0.000 A 
ATOM      8  N   UNL     1       1.269   8.227  20.785  0.00  0.00    +0.000 NA
ATOM      9  C   UNL     1       1.591   8.646  19.526  0.00  0.00    +0.000 A 
ENDROOT
BRANCH   5  10
ATOM     10  C   UNL     1       3.075   5.529  17.814  0.00  0.00    +0.000 C 
ATOM     11  C   UNL     1       3.712   4.239  18.372  0.00  0.00    +0.000 C 
ATOM     12  C   UNL     1       5.035   4.499  19.080  0.00  0.00    +0.000 C 
ATOM     13  N   UNL     1       6.009   5.131  18.148  0.00  0.00    +0.000 NA
ATOM     14  C   UNL     1       5.493   6.388  17.539  0.00  0.00    +0.000 C 
ATOM     15  C   UNL     1       4.127   6.174  16.883  0.00  0.00    +0.000 C 
BRANCH  13  16
ATOM     16  S   UNL     1       7.575   5.348  18.834  0.00  0.00    +0.000 S 
ATOM     17  C   UNL     1       7.980   6.994  18.291  0.00  0.00    +0.000 C 
ATOM     18  O   UNL     1       7.427   5.388  20.274  0.00  0.00    +0.000 OA
ATOM     19  O   UNL     1       8.468   4.405  18.197  0.00  0.00    +0.000 OA
ENDBRANCH  13  16
ENDBRANCH   5  10
BRANCH   1  22
ATOM     20  N   UNL     1      -0.523  11.333  19.224  0.00  0.00    +0.000 N 
ATOM     21  C   UNL     1      -1.423  10.435  18.518  0.00  0.00    +0.000 C 
ATOM     22  C   UNL     1       0.840  11.074  19.447  0.00  0.00    +0.000 C 
ATOM     23  O   UNL     1       1.519  11.854  20.117  0.00  0.00    +0.000 OA
BRANCH  20  25
ATOM     24  C   UNL     1      -2.055  12.329  20.889  0.00  0.00    +0.000 C 
ATOM     25  C   UNL     1      -1.085  12.577  19.743  0.00  0.00    +0.000 C 
ENDBRANCH  20  25
ENDBRANCH   1  22
TORSDOF 4
ENDMDL
MODEL 3
REMARK VINA RESULT:      -6.9      3.329      8.303
REMARK  Name = 
REMARK  7 active torsions:
REMARK  status: ('A' for Active; 'I' for Inactive)
REMARK    1  A    between atoms: C_1  and  C_2
REMARK    2  A    between atoms: C_2  and  N_3
REMARK    3  A    between atoms: N_3  and  C_4
REMARK    4  A    between atoms: C_5  and  C_7
REMARK    5  A    between atoms: C_11  and  C_12
REMARK    6  A    between atoms: N_15  and  S_16
REMARK    7  A    between atoms: S_16  and  C_17
REMARK                            x       y       z     vdW  Elec       q    Type
REMARK                         _______ _______ _______ _____ _____    ______ ____
ROOT
ATOM      1  C   UNL     1       2.950   6.818  18.765  0.00  0.00    +0.000 A 
ATOM      2  N   UNL     1       3.096   7.504  17.564  0.00  0.00    +0.000 NA
ATOM      3  C   UNL     1       2.354   8.581  17.683  0.00  0.00    +0.000 A 
ATOM      4  N   UNL     1       1.751   8.679  18.914  0.00  0.00    +0.000 N 
ATOM      5  C   UNL     1       0.910   9.674  19.466  0.00  0.00    +0.000 A 
ATOM      6  C   UNL     1       0.369   9.399  20.672  0.00  0.00    +0.000 A 
ATOM      7  C   UNL     1       0.810   8.152  21.350  0.00  0.00    +0.000 A 
ATOM      8  N   UNL     1       1.627   7.275  20.866  0.00  0.00    +0.000 NA
ATOM      9  C   UNL     1       2.096   7.519  19.607  0.00  0.00    +0.000 A 
ENDROOT
BRANCH   5  10
ATOM     10  C   UNL     1       0.623  10.954  18.669  0.00  0.00    +0.000 C 
ATOM     11  C   UNL     1       1.713  12.034  18.829  0.00  0.00    +0.000 C 
ATOM     12  C   UNL     1       1.673  12.707  20.194  0.00  0.00    +0.000 C 
ATOM     13  N   UNL     1       0.348  13.348  20.421  0.00  0.00    +0.000 NA
ATOM     14  C   UNL     1      -0.787  12.394  20.281  0.00  0.00    +0.000 C 
ATOM     15  C   UNL     1      -0.730  11.647  18.946  0.00  0.00    +0.000 C 
BRANCH  13  16
ATOM     16  S   UNL     1       0.258  14.239  21.893  0.00  0.00    +0.000 S 
ATOM     17  C   UNL     1      -0.582  15.717  21.366  0.00  0.00    +0.000 C 
ATOM     18  O   UNL     1      -0.632  13.528  22.787  0.00  0.00    +0.000 OA
ATOM     19  O   UNL     1       1.608  14.574  22.288  0.00  0.00    +0.000 OA
ENDBRANCH  13  16
ENDBRANCH   5  10
BRANCH   1  22
ATOM     20  N   UNL     1       2.892   4.343  18.726  0.00  0.00    +0.000 N 
ATOM     21  C   UNL     1       1.635   4.312  17.996  0.00  0.00    +0.000 C 
ATOM     22  C   UNL     1       3.575   5.520  19.076  0.00  0.00    +0.000 C 
ATOM     23  O   UNL     1       4.673   5.459  19.634  0.00  0.00    +0.000 OA
BRANCH  20  25
ATOM     24  C   UNL     1       3.320   2.017  18.008  0.00  0.00    +0.000 C 
ATOM     25  C   UNL     1       3.482   3.062  19.103  0.00  0.00    +0.000 C 
ENDBRANCH  20  25
ENDBRANCH   1  22
TORSDOF 4
ENDMDL
MODEL 4
REMARK VINA RESULT:      -6.7      3.399      8.282
REMARK  Name = 
REMARK  7 active torsions:
REMARK  status: ('A' for Active; 'I' for Inactive)
REMARK    1  A    between atoms: C_1  and  C_2
REMARK    2  A    between atoms: C_2  and  N_3
REMARK    3  A    between atoms: N_3  and  C_4
REMARK    4  A    between atoms: C_5  and  C_7
REMARK    5  A    between atoms: C_11  and  C_12
REMARK    6  A    between atoms: N_15  and  S_16
REMARK    7  A    between atoms: S_16  and  C_17
REMARK                            x       y       z     vdW  Elec       q    Type
REMARK                         _______ _______ _______ _____ _____    ______ ____
ROOT
ATOM      1  C   UNL     1       2.971   6.831  18.849  0.00  0.00    +0.000 A 
ATOM      2  N   UNL     1       3.145   7.497  17.641  0.00  0.00    +0.000 NA
ATOM      3  C   UNL     1       2.388   8.567  17.718  0.00  0.00    +0.000 A 
ATOM      4  N   UNL     1       1.748   8.680  18.929  0.00  0.00    +0.000 N 
ATOM      5  C   UNL     1       0.880   9.676  19.437  0.00  0.00    +0.000 A 
ATOM      6  C   UNL     1       0.307   9.417  20.631  0.00  0.00    +0.000 A 
ATOM      7  C   UNL     1       0.741   8.188  21.345  0.00  0.00    +0.000 A 
ATOM      8  N   UNL     1       1.582   7.311  20.902  0.00  0.00    +0.000 NA
ATOM      9  C   UNL     1       2.085   7.538  19.653  0.00  0.00    +0.000 A 
ENDROOT
BRANCH   5  10
ATOM     10  C   UNL     1       0.602  10.937  18.608  0.00  0.00    +0.000 C 
ATOM     11  C   UNL     1       1.645  12.055  18.824  0.00  0.00    +0.000 C 
ATOM     12  C   UNL     1       1.497  12.739  20.176  0.00  0.00    +0.000 C 
ATOM     13  N   UNL     1       0.140  13.338  20.310  0.00  0.00    +0.000 NA
ATOM     14  C   UNL     1      -0.952  12.346  20.111  0.00  0.00    +0.000 C 
ATOM     15  C   UNL     1      -0.787  11.588  18.792  0.00  0.00    +0.000 C 
BRANCH  13  16
ATOM     16  S   UNL     1      -0.072  14.241  21.763  0.00  0.00    +0.000 S 
ATOM     17  C   UNL     1      -0.919  13.064  22.796  0.00  0.00    +0.000 C 
ATOM     18  O   UNL     1       1.237  14.465  22.341  0.00  0.00    +0.000 OA
ATOM     19  O   UNL     1      -0.962  15.343  21.470  0.00  0.00    +0.000 OA
ENDBRANCH  13  16
ENDBRANCH   5  10
BRANCH   1  22
ATOM     20  N   UNL     1       2.929   4.356  18.878  0.00  0.00    +0.000 N 
ATOM     21  C   UNL     1       1.680   4.296  18.135  0.00  0.00    +0.000 C 
ATOM     22  C   UNL     1       3.601   5.546  19.203  0.00  0.00    +0.000 C 
ATOM     23  O   UNL     1       4.693   5.507  19.774  0.00  0.00    +0.000 OA
BRANCH  20  25
ATOM     24  C   UNL     1       2.927   2.584  20.602  0.00  0.00    +0.000 C 
ATOM     25  C   UNL     1       3.523   3.089  19.296  0.00  0.00    +0.000 C 
ENDBRANCH  20  25
ENDBRANCH   1  22
TORSDOF 4
ENDMDL
MODEL 5
REMARK VINA RESULT:      -6.7      0.955      1.156
REMARK  Name = 
REMARK  7 active torsions:
REMARK  status: ('A' for Active; 'I' for Inactive)
REMARK    1  A    between atoms: C_1  and  C_2
REMARK    2  A    between atoms: C_2  and  N_3
REMARK    3  A    between atoms: N_3  and  C_4
REMARK    4  A    between atoms: C_5  and  C_7
REMARK    5  A    between atoms: C_11  and  C_12
REMARK    6  A    between atoms: N_15  and  S_16
REMARK    7  A    between atoms: S_16  and  C_17
REMARK                            x       y       z     vdW  Elec       q    Type
REMARK                         _______ _______ _______ _____ _____    ______ ____
ROOT
ATOM      1  C   UNL     1       0.684   9.684  20.756  0.00  0.00    +0.000 A 
ATOM      2  N   UNL     1       0.513   8.611  21.623  0.00  0.00    +0.000 NA
ATOM      3  C   UNL     1       1.072   7.584  21.026  0.00  0.00    +0.000 A 
ATOM      4  N   UNL     1       1.647   7.917  19.823  0.00  0.00    +0.000 N 
ATOM      5  C   UNL     1       2.368   7.139  18.886  0.00  0.00    +0.000 A 
ATOM      6  C   UNL     1       2.687   7.747  17.724  0.00  0.00    +0.000 A 
ATOM      7  C   UNL     1       2.368   9.193  17.599  0.00  0.00    +0.000 A 
ATOM      8  N   UNL     1       1.763   9.914  18.485  0.00  0.00    +0.000 NA
ATOM      9  C   UNL     1       1.364   9.266  19.618  0.00  0.00    +0.000 A 
ENDROOT
BRANCH   5  10
ATOM     10  C   UNL     1       2.697   5.674  19.206  0.00  0.00    +0.000 C 
ATOM     11  C   UNL     1       4.120   5.474  19.770  0.00  0.00    +0.000 C 
ATOM     12  C   UNL     1       5.197   5.631  18.705  0.00  0.00    +0.000 C 
ATOM     13  N   UNL     1       4.991   4.647  17.607  0.00  0.00    +0.000 NA
ATOM     14  C   UNL     1       3.639   4.744  16.991  0.00  0.00    +0.000 C 
ATOM     15  C   UNL     1       2.535   4.664  18.048  0.00  0.00    +0.000 C 
BRANCH  13  16
ATOM     16  S   UNL     1       6.239   4.672  16.418  0.00  0.00    +0.000 S 
ATOM     17  C   UNL     1       7.695   4.481  17.422  0.00  0.00    +0.000 C 
ATOM     18  O   UNL     1       6.105   3.476  15.611  0.00  0.00    +0.000 OA
ATOM     19  O   UNL     1       6.245   5.987  15.815  0.00  0.00    +0.000 OA
ENDBRANCH  13  16
ENDBRANCH   5  10
BRANCH   1  22
ATOM     20  N   UNL     1      -0.867  11.528  20.186  0.00  0.00    +0.000 N 
ATOM     21  C   UNL     1      -1.553  10.736  19.177  0.00  0.00    +0.000 C 
ATOM     22  C   UNL     1       0.180  11.049  20.992  0.00  0.00    +0.000 C 
ATOM     23  O   UNL     1       0.661  11.762  21.874  0.00  0.00    +0.000 OA
BRANCH  20  25
ATOM     24  C   UNL     1      -0.759  13.835  19.306  0.00  0.00    +0.000 C 
ATOM     25  C   UNL     1      -1.312  12.905  20.376  0.00  0.00    +0.000 C 
ENDBRANCH  20  25
ENDBRANCH   1  22
TORSDOF 4
ENDMDL
MODEL 6
REMARK VINA RESULT:      -6.6      1.145      1.298
REMARK  Name = 
REMARK  7 active torsions:
REMARK  status: ('A' for Active; 'I' for Inactive)
REMARK    1  A    between atoms: C_1  and  C_2
REMARK    2  A    between atoms: C_2  and  N_3
REMARK    3  A    between atoms: N_3  and  C_4
REMARK    4  A    between atoms: C_5  and  C_7
REMARK    5  A    between atoms: C_11  and  C_12
REMARK    6  A    between atoms: N_15  and  S_16
REMARK    7  A    between atoms: S_16  and  C_17
REMARK                            x       y       z     vdW  Elec       q    Type
REMARK                         _______ _______ _______ _____ _____    ______ ____
ROOT
ATOM      1  C   UNL     1       1.066   9.498  20.926  0.00  0.00    +0.000 A 
ATOM      2  N   UNL     1       1.069   8.418  21.802  0.00  0.00    +0.000 NA
ATOM      3  C   UNL     1       1.541   7.406  21.111  0.00  0.00    +0.000 A 
ATOM      4  N   UNL     1       1.896   7.757  19.830  0.00  0.00    +0.000 N 
ATOM      5  C   UNL     1       2.464   6.999  18.778  0.00  0.00    +0.000 A 
ATOM      6  C   UNL     1       2.567   7.619  17.583  0.00  0.00    +0.000 A 
ATOM      7  C   UNL     1       2.199   9.057  17.525  0.00  0.00    +0.000 A 
ATOM      8  N   UNL     1       1.738   9.762  18.506  0.00  0.00    +0.000 NA
ATOM      9  C   UNL     1       1.552   9.100  19.686  0.00  0.00    +0.000 A 
ENDROOT
BRANCH   5  10
ATOM     10  C   UNL     1       2.875   5.541  19.026  0.00  0.00    +0.000 C 
ATOM     11  C   UNL     1       4.246   5.401  19.721  0.00  0.00    +0.000 C 
ATOM     12  C   UNL     1       5.408   5.718  18.791  0.00  0.00    +0.000 C 
ATOM     13  N   UNL     1       5.392   4.812  17.610  0.00  0.00    +0.000 NA
ATOM     14  C   UNL     1       4.105   4.859  16.863  0.00  0.00    +0.000 C 
ATOM     15  C   UNL     1       2.910   4.617  17.789  0.00  0.00    +0.000 C 
BRANCH  13  16
ATOM     16  S   UNL     1       6.746   5.020  16.564  0.00  0.00    +0.000 S 
ATOM     17  C   UNL     1       6.233   4.107  15.125  0.00  0.00    +0.000 C 
ATOM     18  O   UNL     1       6.809   6.419  16.193  0.00  0.00    +0.000 OA
ATOM     19  O   UNL     1       7.877   4.353  17.172  0.00  0.00    +0.000 OA
ENDBRANCH  13  16
ENDBRANCH   5  10
BRANCH   1  22
ATOM     20  N   UNL     1      -0.325  10.998  22.319  0.00  0.00    +0.000 N 
ATOM     21  C   UNL     1      -0.759   9.912  23.184  0.00  0.00    +0.000 C 
ATOM     22  C   UNL     1       0.579  10.850  21.255  0.00  0.00    +0.000 C 
ATOM     23  O   UNL     1       0.951  11.834  20.613  0.00  0.00    +0.000 OA
BRANCH  20  25
ATOM     24  C   UNL     1      -2.286  12.485  22.087  0.00  0.00    +0.000 C 
ATOM     25  C   UNL     1      -0.859  12.329  22.593  0.00  0.00    +0.000 C 
ENDBRANCH  20  25
ENDBRANCH   1  22
TORSDOF 4
ENDMDL
MODEL 7
REMARK VINA RESULT:      -6.6      2.421      3.469
REMARK  Name = 
REMARK  7 active torsions:
REMARK  status: ('A' for Active; 'I' for Inactive)
REMARK    1  A    between atoms: C_1  and  C_2
REMARK    2  A    between atoms: C_2  and  N_3
REMARK    3  A    between atoms: N_3  and  C_4
REMARK    4  A    between atoms: C_5  and  C_7
REMARK    5  A    between atoms: C_11  and  C_12
REMARK    6  A    between atoms: N_15  and  S_16
REMARK    7  A    between atoms: S_16  and  C_17
REMARK                            x       y       z     vdW  Elec       q    Type
REMARK                         _______ _______ _______ _____ _____    ______ ____
ROOT
ATOM      1  C   UNL     1       0.883  10.675  19.274  0.00  0.00    +0.000 A 
ATOM      2  N   UNL     1       1.477  10.712  18.017  0.00  0.00    +0.000 NA
ATOM      3  C   UNL     1       2.051   9.541  17.866  0.00  0.00    +0.000 A 
ATOM      4  N   UNL     1       1.840   8.702  18.935  0.00  0.00    +0.000 N 
ATOM      5  C   UNL     1       2.244   7.367  19.168  0.00  0.00    +0.000 A 
ATOM      6  C   UNL     1       1.983   6.868  20.395  0.00  0.00    +0.000 A 
ATOM      7  C   UNL     1       1.191   7.717  21.323  0.00  0.00    +0.000 A 
ATOM      8  N   UNL     1       0.771   8.915  21.081  0.00  0.00    +0.000 NA
ATOM      9  C   UNL     1       1.120   9.443  19.871  0.00  0.00    +0.000 A 
ENDROOT
BRANCH   5  10
ATOM     10  C   UNL     1       2.981   6.592  18.066  0.00  0.00    +0.000 C 
ATOM     11  C   UNL     1       2.187   5.381  17.532  0.00  0.00    +0.000 C 
ATOM     12  C   UNL     1       2.153   4.223  18.520  0.00  0.00    +0.000 C 
ATOM     13  N   UNL     1       3.534   3.768  18.837  0.00  0.00    +0.000 NA
ATOM     14  C   UNL     1       4.399   4.863  19.356  0.00  0.00    +0.000 C 
ATOM     15  C   UNL     1       4.393   6.073  18.418  0.00  0.00    +0.000 C 
BRANCH  13  16
ATOM     16  S   UNL     1       3.584   2.377  19.855  0.00  0.00    +0.000 S 
ATOM     17  C   UNL     1       2.618   2.918  21.248  0.00  0.00    +0.000 C 
ATOM     18  O   UNL     1       2.845   1.320  19.196  0.00  0.00    +0.000 OA
ATOM     19  O   UNL     1       4.956   2.188  20.272  0.00  0.00    +0.000 OA
ENDBRANCH  13  16
ENDBRANCH   5  10
BRANCH   1  22
ATOM     20  N   UNL     1      -1.212  11.958  19.583  0.00  0.00    +0.000 N 
ATOM     21  C   UNL     1      -1.979  11.047  18.748  0.00  0.00    +0.000 C 
ATOM     22  C   UNL     1       0.148  11.793  19.893  0.00  0.00    +0.000 C 
ATOM     23  O   UNL     1       0.708  12.572  20.667  0.00  0.00    +0.000 OA
BRANCH  20  25
ATOM     24  C   UNL     1      -2.792  12.722  21.323  0.00  0.00    +0.000 C 
ATOM     25  C   UNL     1      -1.914  13.109  20.142  0.00  0.00    +0.000 C 
ENDBRANCH  20  25
ENDBRANCH   1  22
TORSDOF 4
ENDMDL
MODEL 8
REMARK VINA RESULT:      -6.6      3.502      8.578
REMARK  Name = 
REMARK  7 active torsions:
REMARK  status: ('A' for Active; 'I' for Inactive)
REMARK    1  A    between atoms: C_1  and  C_2
REMARK    2  A    between atoms: C_2  and  N_3
REMARK    3  A    between atoms: N_3  and  C_4
REMARK    4  A    between atoms: C_5  and  C_7
REMARK    5  A    between atoms: C_11  and  C_12
REMARK    6  A    between atoms: N_15  and  S_16
REMARK    7  A    between atoms: S_16  and  C_17
REMARK                            x       y       z     vdW  Elec       q    Type
REMARK                         _______ _______ _______ _____ _____    ______ ____
ROOT
ATOM      1  C   UNL     1       2.903   6.904  18.753  0.00  0.00    +0.000 A 
ATOM      2  N   UNL     1       3.046   7.639  17.581  0.00  0.00    +0.000 NA
ATOM      3  C   UNL     1       2.310   8.713  17.748  0.00  0.00    +0.000 A 
ATOM      4  N   UNL     1       1.713   8.762  18.985  0.00  0.00    +0.000 N 
ATOM      5  C   UNL     1       0.878   9.737  19.582  0.00  0.00    +0.000 A 
ATOM      6  C   UNL     1       0.342   9.414  20.778  0.00  0.00    +0.000 A 
ATOM      7  C   UNL     1       0.780   8.138  21.401  0.00  0.00    +0.000 A 
ATOM      8  N   UNL     1       1.591   7.278  20.878  0.00  0.00    +0.000 NA
ATOM      9  C   UNL     1       2.056   7.573  19.628  0.00  0.00    +0.000 A 
ENDROOT
BRANCH   5  10
ATOM     10  C   UNL     1       0.593  11.050  18.840  0.00  0.00    +0.000 C 
ATOM     11  C   UNL     1       0.928  12.308  19.669  0.00  0.00    +0.000 C 
ATOM     12  C   UNL     1      -0.076  12.556  20.786  0.00  0.00    +0.000 C 
ATOM     13  N   UNL     1      -1.447  12.720  20.228  0.00  0.00    +0.000 NA
ATOM     14  C   UNL     1      -1.875  11.561  19.396  0.00  0.00    +0.000 C 
ATOM     15  C   UNL     1      -0.846  11.241  18.310  0.00  0.00    +0.000 C 
BRANCH  13  16
ATOM     16  S   UNL     1      -2.629  13.128  21.414  0.00  0.00    +0.000 S 
ATOM     17  C   UNL     1      -4.143  12.819  20.532  0.00  0.00    +0.000 C 
ATOM     18  O   UNL     1      -2.540  12.153  22.482  0.00  0.00    +0.000 OA
ATOM     19  O   UNL     1      -2.514  14.545  21.680  0.00  0.00    +0.000 OA
ENDBRANCH  13  16
ENDBRANCH   5  10
BRANCH   1  22
ATOM     20  N   UNL     1       2.857   4.435  18.565  0.00  0.00    +0.000 N 
ATOM     21  C   UNL     1       1.625   4.444  17.794  0.00  0.00    +0.000 C 
ATOM     22  C   UNL     1       3.523   5.591  19.007  0.00  0.00    +0.000 C 
ATOM     23  O   UNL     1       4.602   5.500  19.595  0.00  0.00    +0.000 OA
BRANCH  20  25
ATOM     24  C   UNL     1       2.946   2.044  17.947  0.00  0.00    +0.000 C 
ATOM     25  C   UNL     1       3.441   3.136  18.884  0.00  0.00    +0.000 C 
ENDBRANCH  20  25
ENDBRANCH   1  22
TORSDOF 4
ENDMDL
MODEL 9
REMARK VINA RESULT:      -6.6      2.836      3.294
REMARK  Name = 
REMARK  7 active torsions:
REMARK  status: ('A' for Active; 'I' for Inactive)
REMARK    1  A    between atoms: C_1  and  C_2
REMARK    2  A    between atoms: C_2  and  N_3
REMARK    3  A    between atoms: N_3  and  C_4
REMARK    4  A    between atoms: C_5  and  C_7
REMARK    5  A    between atoms: C_11  and  C_12
REMARK    6  A    between atoms: N_15  and  S_16
REMARK    7  A    between atoms: S_16  and  C_17
REMARK                            x       y       z     vdW  Elec       q    Type
REMARK                         _______ _______ _______ _____ _____    ______ ____
ROOT
ATOM      1  C   UNL     1       0.117  10.352  20.361  0.00  0.00    +0.000 A 
ATOM      2  N   UNL     1       0.167   9.743  21.611  0.00  0.00    +0.000 NA
ATOM      3  C   UNL     1       0.882   8.655  21.443  0.00  0.00    +0.000 A 
ATOM      4  N   UNL     1       1.353   8.521  20.158  0.00  0.00    +0.000 N 
ATOM      5  C   UNL     1       2.173   7.533  19.563  0.00  0.00    +0.000 A 
ATOM      6  C   UNL     1       2.344   7.623  18.227  0.00  0.00    +0.000 A 
ATOM      7  C   UNL     1       1.768   8.810  17.543  0.00  0.00    +0.000 A 
ATOM      8  N   UNL     1       1.070   9.743  18.104  0.00  0.00    +0.000 NA
ATOM      9  C   UNL     1       0.827   9.593  19.439  0.00  0.00    +0.000 A 
ENDROOT
BRANCH   5  10
ATOM     10  C   UNL     1       2.768   6.415  20.430  0.00  0.00    +0.000 C 
ATOM     11  C   UNL     1       3.959   5.691  19.766  0.00  0.00    +0.000 C 
ATOM     12  C   UNL     1       3.526   4.774  18.631  0.00  0.00    +0.000 C 
ATOM     13  N   UNL     1       2.576   3.742  19.129  0.00  0.00    +0.000 NA
ATOM     14  C   UNL     1       1.384   4.329  19.801  0.00  0.00    +0.000 C 
ATOM     15  C   UNL     1       1.789   5.315  20.899  0.00  0.00    +0.000 C 
BRANCH  13  16
ATOM     16  S   UNL     1       2.130   2.583  17.933  0.00  0.00    +0.000 S 
ATOM     17  C   UNL     1       3.409   1.360  18.123  0.00  0.00    +0.000 C 
ATOM     18  O   UNL     1       0.882   1.977  18.348  0.00  0.00    +0.000 OA
ATOM     19  O   UNL     1       2.264   3.214  16.638  0.00  0.00    +0.000 OA
ENDBRANCH  13  16
ENDBRANCH   5  10
BRANCH   1  22
ATOM     20  N   UNL     1       0.051  12.822  20.204  0.00  0.00    +0.000 N 
ATOM     21  C   UNL     1       1.454  12.954  20.562  0.00  0.00    +0.000 C 
ATOM     22  C   UNL     1      -0.616  11.594  20.056  0.00  0.00    +0.000 C 
ATOM     23  O   UNL     1      -1.789  11.566  19.680  0.00  0.00    +0.000 OA
BRANCH  20  25
ATOM     24  C   UNL     1      -0.016  14.955  18.957  0.00  0.00    +0.000 C 
ATOM     25  C   UNL     1      -0.701  14.051  19.971  0.00  0.00    +0.000 C 
ENDBRANCH  20  25
ENDBRANCH   1  22
TORSDOF 4
ENDMDL
