MODEL 1
REMARK VINA RESULT:      -6.9      0.000      0.000
REMARK  Name = 
REMARK  14 active torsions:
REMARK  status: ('A' for Active; 'I' for Inactive)
REMARK    1  A    between atoms: C_1  and  C_2
REMARK    2  A    between atoms: C_2  and  C_3
REMARK    3  A    between atoms: C_3  and  N_4
REMARK    4  A    between atoms: C_9  and  C_10
REMARK    5  A    between atoms: C_13  and  C_14
REMARK    6  A    between atoms: N_16  and  C_17
REMARK    7  A    between atoms: N_16  and  C_18
REMARK    8  A    between atoms: C_18  and  C_19
REMARK    9  A    between atoms: C_19  and  N_20
REMARK   10  A    between atoms: N_20  and  C_21
REMARK   11  A    between atoms: N_20  and  C_22
REMARK   12  A    between atoms: N_27  and  C_28
REMARK   13  A    between atoms: C_28  and  C_29
REMARK   14  A    between atoms: C_29  and  C_30
REMARK                            x       y       z     vdW  Elec       q    Type
REMARK                         _______ _______ _______ _____ _____    ______ ____
ROOT
ATOM      1  N   UNL     1       4.625   5.663  17.818  0.00  0.00    +0.000 N 
ATOM      2  C   UNL     1       4.365   6.849  17.092  0.00  0.00    +0.000 A 
ATOM      3  O   UNL     1       5.029   7.228  16.138  0.00  0.00    +0.000 OA
ATOM      4  C   UNL     1       3.251   7.605  17.622  0.00  0.00    +0.000 A 
ATOM      5  N   UNL     1       2.791   8.849  17.255  0.00  0.00    +0.000 NA
ATOM      6  C   UNL     1       1.835   9.136  18.120  0.00  0.00    +0.000 A 
ATOM      7  N   UNL     1       1.575   8.052  18.932  0.00  0.00    +0.000 N 
ATOM      8  C   UNL     1       2.553   7.133  18.696  0.00  0.00    +0.000 A 
ATOM      9  N   UNL     1       2.855   6.002  19.418  0.00  0.00    +0.000 N 
ATOM     10  C   UNL     1       4.026   5.309  19.048  0.00  0.00    +0.000 A 
ATOM     11  O   UNL     1       4.499   4.429  19.771  0.00  0.00    +0.000 OA
ATOM     12  H   UNL     1       0.902   8.041  19.688  0.00  0.00    +0.000 HD
ENDROOT
BRANCH   6  13
ATOM     13  C   UNL     1       1.181  10.466  18.381  0.00  0.00    +0.000 C 
ATOM     14  C   UNL     1      -0.346  10.326  18.236  0.00  0.00    +0.000 C 
ATOM     15  C   UNL     1      -1.025   9.703  19.462  0.00  0.00    +0.000 C 
ATOM     16  C   UNL     1      -0.689  10.452  20.755  0.00  0.00    +0.000 C 
ATOM     17  C   UNL     1       0.834  10.553  20.932  0.00  0.00    +0.000 C 
ATOM     18  C   UNL     1       1.585  11.100  19.717  0.00  0.00    +0.000 C 
BRANCH  16  19
ATOM     19  C   UNL     1      -1.388  11.825  20.759  0.00  0.00    +0.000 C 
ATOM     20  O   UNL     1      -1.465  12.484  19.722  0.00  0.00    +0.000 OA
ATOM     21  N   UNL     1      -2.017  12.263  21.922  0.00  0.00    +0.000 N 
ATOM     22  C   UNL     1      -1.967  11.618  23.227  0.00  0.00    +0.000 C 
BRANCH  21  23
ATOM     23  C   UNL     1      -2.770  13.530  21.856  0.00  0.00    +0.000 C 
BRANCH  23  24
ATOM     24  C   UNL     1      -4.185  13.336  21.263  0.00  0.00    +0.000 C 
BRANCH  24  25
ATOM     25  N   UNL     1      -5.105  12.511  22.078  0.00  0.00    +0.000 NA
ATOM     26  C   UNL     1      -5.378  13.126  23.380  0.00  0.00    +0.000 C 
ATOM     27  C   UNL     1      -6.372  12.329  21.358  0.00  0.00    +0.000 C 
ENDBRANCH  24  25
ENDBRANCH  23  24
ENDBRANCH  21  23
ENDBRANCH  16  19
ENDBRANCH   6  13
BRANCH   1  28
ATOM     28  C   UNL     1       5.750   4.846  17.363  0.00  0.00    +0.000 C 
BRANCH  28  30
ATOM     29  C   UNL     1       5.899   4.071  14.927  0.00  0.00    +0.000 C 
ATOM     30  C   UNL     1       5.378   3.776  16.326  0.00  0.00    +0.000 C 
ENDBRANCH  28  30
ENDBRANCH   1  28
BRANCH   9  31
ATOM     31  C   UNL     1       2.092   5.546  20.582  0.00  0.00    +0.000 C 
BRANCH  31  32
ATOM     32  C   UNL     1       1.124   4.393  20.306  0.00  0.00    +0.000 C 
ATOM     33  C   UNL     1       1.392   3.139  21.123  0.00  0.00    +0.000 C 
ENDBRANCH  31  32
ENDBRANCH   9  31
TORSDOF 9
ENDMDL
MODEL 2
REMARK VINA RESULT:      -6.9      1.816      2.464
REMARK  Name = 
REMARK  14 active torsions:
REMARK  status: ('A' for Active; 'I' for Inactive)
REMARK    1  A    between atoms: C_1  and  C_2
REMARK    2  A    between atoms: C_2  and  C_3
REMARK    3  A    between atoms: C_3  and  N_4
REMARK    4  A    between atoms: C_9  and  C_10
REMARK    5  A    between atoms: C_13  and  C_14
REMARK    6  A    between atoms: N_16  and  C_17
REMARK    7  A    between atoms: N_16  and  C_18
REMARK    8  A    between atoms: C_18  and  C_19
REMARK    9  A    between atoms: C_19  and  N_20
REMARK   10  A    between atoms: N_20  and  C_21
REMARK   11  A    between atoms: N_20  and  C_22
REMARK   12  A    between atoms: N_27  and  C_28
REMARK   13  A    between atoms: C_28  and  C_29
REMARK   14  A    between atoms: C_29  and  C_30
REMARK                            x       y       z     vdW  Elec       q    Type
REMARK                         _______ _______ _______ _____ _____    ______ ____
ROOT
ATOM      1  N   UNL     1       4.463   5.228  18.176  0.00  0.00    +0.000 N 
ATOM      2  C   UNL     1       3.845   6.500  18.213  0.00  0.00    +0.000 A 
ATOM      3  O   UNL     1       4.148   7.431  17.479  0.00  0.00    +0.000 OA
ATOM      4  C   UNL     1       2.838   6.612  19.246  0.00  0.00    +0.000 A 
ATOM      5  N   UNL     1       2.127   7.718  19.651  0.00  0.00    +0.000 NA
ATOM      6  C   UNL     1       1.431   7.319  20.701  0.00  0.00    +0.000 A 
ATOM      7  N   UNL     1       1.567   5.958  20.883  0.00  0.00    +0.000 N 
ATOM      8  C   UNL     1       2.551   5.539  20.040  0.00  0.00    +0.000 A 
ATOM      9  N   UNL     1       3.200   4.326  20.019  0.00  0.00    +0.000 N 
ATOM     10  C   UNL     1       4.298   4.210  19.143  0.00  0.00    +0.000 A 
ATOM     11  O   UNL     1       5.074   3.256  19.220  0.00  0.00    +0.000 OA
ATOM     12  H   UNL     1       1.148   5.430  21.638  0.00  0.00    +0.000 HD
ENDROOT
BRANCH   6  13
ATOM     13  C   UNL     1       0.705   8.162  21.714  0.00  0.00    +0.000 C 
ATOM     14  C   UNL     1       1.539   9.416  22.034  0.00  0.00    +0.000 C 
ATOM     15  C   UNL     1       1.425  10.517  20.973  0.00  0.00    +0.000 C 
ATOM     16  C   UNL     1      -0.029  10.912  20.701  0.00  0.00    +0.000 C 
ATOM     17  C   UNL     1      -0.858   9.672  20.332  0.00  0.00    +0.000 C 
ATOM     18  C   UNL     1      -0.734   8.504  21.313  0.00  0.00    +0.000 C 
BRANCH  16  19
ATOM     19  C   UNL     1      -0.596  11.678  21.911  0.00  0.00    +0.000 C 
ATOM     20  O   UNL     1      -0.267  11.362  23.054  0.00  0.00    +0.000 OA
ATOM     21  N   UNL     1      -1.403  12.792  21.691  0.00  0.00    +0.000 N 
ATOM     22  C   UNL     1      -1.913  13.251  20.406  0.00  0.00    +0.000 C 
BRANCH  21  23
ATOM     23  C   UNL     1      -1.837  13.565  22.871  0.00  0.00    +0.000 C 
BRANCH  23  24
ATOM     24  C   UNL     1      -3.294  13.242  23.274  0.00  0.00    +0.000 C 
BRANCH  24  25
ATOM     25  N   UNL     1      -3.864  14.103  24.335  0.00  0.00    +0.000 NA
ATOM     26  C   UNL     1      -2.843  14.957  24.949  0.00  0.00    +0.000 C 
ATOM     27  C   UNL     1      -4.921  14.950  23.768  0.00  0.00    +0.000 C 
ENDBRANCH  24  25
ENDBRANCH  23  24
ENDBRANCH  21  23
ENDBRANCH  16  19
ENDBRANCH   6  13
BRANCH   1  28
ATOM     28  C   UNL     1       5.510   5.034  17.172  0.00  0.00    +0.000 C 
BRANCH  28  30
ATOM     29  C   UNL     1       6.136   4.065  14.887  0.00  0.00    +0.000 C 
ATOM     30  C   UNL     1       5.016   4.429  15.850  0.00  0.00    +0.000 C 
ENDBRANCH  28  30
ENDBRANCH   1  28
BRANCH   9  31
ATOM     31  C   UNL     1       2.874   3.209  20.909  0.00  0.00    +0.000 C 
BRANCH  31  32
ATOM     32  C   UNL     1       1.509   2.565  20.660  0.00  0.00    +0.000 C 
ATOM     33  C   UNL     1       1.231   2.225  19.203  0.00  0.00    +0.000 C 
ENDBRANCH  31  32
ENDBRANCH   9  31
TORSDOF 9
ENDMDL
MODEL 3
REMARK VINA RESULT:      -6.6      1.376      1.914
REMARK  Name = 
REMARK  14 active torsions:
REMARK  status: ('A' for Active; 'I' for Inactive)
REMARK    1  A    between atoms: C_1  and  C_2
REMARK    2  A    between atoms: C_2  and  C_3
REMARK    3  A    between atoms: C_3  and  N_4
REMARK    4  A    between atoms: C_9  and  C_10
REMARK    5  A    between atoms: C_13  and  C_14
REMARK    6  A    between atoms: N_16  and  C_17
REMARK    7  A    between atoms: N_16  and  C_18
REMARK    8  A    between atoms: C_18  and  C_19
REMARK    9  A    between atoms: C_19  and  N_20
REMARK   10  A    between atoms: N_20  and  C_21
REMARK   11  A    between atoms: N_20  and  C_22
REMARK   12  A    between atoms: N_27  and  C_28
REMARK   13  A    between atoms: C_28  and  C_29
REMARK   14  A    between atoms: C_29  and  C_30
REMARK                            x       y       z     vdW  Elec       q    Type
REMARK                         _______ _______ _______ _____ _____    ______ ____
ROOT
ATOM      1  N   UNL     1       4.492   4.854  17.391  0.00  0.00    +0.000 N 
ATOM      2  C   UNL     1       4.251   6.192  17.001  0.00  0.00    +0.000 A 
ATOM      3  O   UNL     1       4.763   6.725  16.026  0.00  0.00    +0.000 OA
ATOM      4  C   UNL     1       3.365   6.895  17.903  0.00  0.00    +0.000 A 
ATOM      5  N   UNL     1       3.007   8.224  17.911  0.00  0.00    +0.000 NA
ATOM      6  C   UNL     1       2.279   8.382  19.003  0.00  0.00    +0.000 A 
ATOM      7  N   UNL     1       2.044   7.166  19.608  0.00  0.00    +0.000 N 
ATOM      8  C   UNL     1       2.832   6.249  18.981  0.00  0.00    +0.000 A 
ATOM      9  N   UNL     1       3.120   4.961  19.370  0.00  0.00    +0.000 N 
ATOM     10  C   UNL     1       4.100   4.277  18.621  0.00  0.00    +0.000 A 
ATOM     11  O   UNL     1       4.587   3.220  19.026  0.00  0.00    +0.000 OA
ATOM     12  H   UNL     1       1.533   7.037  20.472  0.00  0.00    +0.000 HD
ENDROOT
BRANCH   6  13
ATOM     13  C   UNL     1       1.863   9.666  19.669  0.00  0.00    +0.000 C 
ATOM     14  C   UNL     1       1.167  10.577  18.640  0.00  0.00    +0.000 C 
ATOM     15  C   UNL     1      -0.293  10.195  18.369  0.00  0.00    +0.000 C 
ATOM     16  C   UNL     1      -1.124  10.126  19.654  0.00  0.00    +0.000 C 
ATOM     17  C   UNL     1      -0.461   9.179  20.667  0.00  0.00    +0.000 C 
ATOM     18  C   UNL     1       1.020   9.459  20.931  0.00  0.00    +0.000 C 
BRANCH  16  19
ATOM     19  C   UNL     1      -1.342  11.545  20.210  0.00  0.00    +0.000 C 
ATOM     20  O   UNL     1      -0.518  12.045  20.977  0.00  0.00    +0.000 OA
ATOM     21  N   UNL     1      -2.426  12.293  19.755  0.00  0.00    +0.000 N 
ATOM     22  C   UNL     1      -3.501  11.820  18.894  0.00  0.00    +0.000 C 
BRANCH  21  23
ATOM     23  C   UNL     1      -2.540  13.687  20.225  0.00  0.00    +0.000 C 
BRANCH  23  24
ATOM     24  C   UNL     1      -3.861  13.936  20.990  0.00  0.00    +0.000 C 
BRANCH  24  25
ATOM     25  N   UNL     1      -3.717  14.612  22.299  0.00  0.00    +0.000 NA
ATOM     26  C   UNL     1      -3.368  13.667  23.364  0.00  0.00    +0.000 C 
ATOM     27  C   UNL     1      -2.676  15.642  22.210  0.00  0.00    +0.000 C 
ENDBRANCH  24  25
ENDBRANCH  23  24
ENDBRANCH  21  23
ENDBRANCH  16  19
ENDBRANCH   6  13
BRANCH   1  28
ATOM     28  C   UNL     1       5.395   4.074  16.545  0.00  0.00    +0.000 C 
BRANCH  28  30
ATOM     29  C   UNL     1       7.601   4.596  17.734  0.00  0.00    +0.000 C 
ATOM     30  C   UNL     1       6.815   4.648  16.432  0.00  0.00    +0.000 C 
ENDBRANCH  28  30
ENDBRANCH   1  28
BRANCH   9  31
ATOM     31  C   UNL     1       2.543   4.314  20.550  0.00  0.00    +0.000 C 
BRANCH  31  32
ATOM     32  C   UNL     1       1.062   3.951  20.426  0.00  0.00    +0.000 C 
ATOM     33  C   UNL     1       0.776   2.801  19.471  0.00  0.00    +0.000 C 
ENDBRANCH  31  32
ENDBRANCH   9  31
TORSDOF 9
ENDMDL
MODEL 4
REMARK VINA RESULT:      -6.6      1.235      1.654
REMARK  Name = 
REMARK  14 active torsions:
REMARK  status: ('A' for Active; 'I' for Inactive)
REMARK    1  A    between atoms: C_1  and  C_2
REMARK    2  A    between atoms: C_2  and  C_3
REMARK    3  A    between atoms: C_3  and  N_4
REMARK    4  A    between atoms: C_9  and  C_10
REMARK    5  A    between atoms: C_13  and  C_14
REMARK    6  A    between atoms: N_16  and  C_17
REMARK    7  A    between atoms: N_16  and  C_18
REMARK    8  A    between atoms: C_18  and  C_19
REMARK    9  A    between atoms: C_19  and  N_20
REMARK   10  A    between atoms: N_20  and  C_21
REMARK   11  A    between atoms: N_20  and  C_22
REMARK   12  A    between atoms: N_27  and  C_28
REMARK   13  A    between atoms: C_28  and  C_29
REMARK   14  A    between atoms: C_29  and  C_30
REMARK                            x       y       z     vdW  Elec       q    Type
REMARK                         _______ _______ _______ _____ _____    ______ ____
ROOT
ATOM      1  N   UNL     1       4.562   4.917  17.587  0.00  0.00    +0.000 N 
ATOM      2  C   UNL     1       4.297   6.257  17.219  0.00  0.00    +0.000 A 
ATOM      3  O   UNL     1       4.829   6.828  16.277  0.00  0.00    +0.000 OA
ATOM      4  C   UNL     1       3.359   6.913  18.104  0.00  0.00    +0.000 A 
ATOM      5  N   UNL     1       2.963   8.231  18.130  0.00  0.00    +0.000 NA
ATOM      6  C   UNL     1       2.192   8.342  19.197  0.00  0.00    +0.000 A 
ATOM      7  N   UNL     1       1.969   7.104  19.764  0.00  0.00    +0.000 N 
ATOM      8  C   UNL     1       2.806   6.226  19.146  0.00  0.00    +0.000 A 
ATOM      9  N   UNL     1       3.116   4.937  19.514  0.00  0.00    +0.000 N 
ATOM     10  C   UNL     1       4.142   4.299  18.787  0.00  0.00    +0.000 A 
ATOM     11  O   UNL     1       4.643   3.246  19.185  0.00  0.00    +0.000 OA
ATOM     12  H   UNL     1       1.431   6.940  20.606  0.00  0.00    +0.000 HD
ENDROOT
BRANCH   6  13
ATOM     13  C   UNL     1       1.715   9.597  19.877  0.00  0.00    +0.000 C 
ATOM     14  C   UNL     1       1.190  10.587  18.821  0.00  0.00    +0.000 C 
ATOM     15  C   UNL     1      -0.226  10.266  18.326  0.00  0.00    +0.000 C 
ATOM     16  C   UNL     1      -1.230  10.147  19.477  0.00  0.00    +0.000 C 
ATOM     17  C   UNL     1      -0.736   9.123  20.511  0.00  0.00    +0.000 C 
ATOM     18  C   UNL     1       0.699   9.343  20.996  0.00  0.00    +0.000 C 
BRANCH  16  19
ATOM     19  C   UNL     1      -1.492  11.538  20.084  0.00  0.00    +0.000 C 
ATOM     20  O   UNL     1      -0.680  12.039  20.862  0.00  0.00    +0.000 OA
ATOM     21  N   UNL     1      -2.605  12.263  19.664  0.00  0.00    +0.000 N 
ATOM     22  C   UNL     1      -3.670  11.784  18.794  0.00  0.00    +0.000 C 
BRANCH  21  23
ATOM     23  C   UNL     1      -2.763  13.635  20.183  0.00  0.00    +0.000 C 
BRANCH  23  24
ATOM     24  C   UNL     1      -4.004  13.771  21.096  0.00  0.00    +0.000 C 
BRANCH  24  25
ATOM     25  N   UNL     1      -3.949  13.002  22.360  0.00  0.00    +0.000 NA
ATOM     26  C   UNL     1      -2.893  13.493  23.250  0.00  0.00    +0.000 C 
ATOM     27  C   UNL     1      -5.241  13.094  23.050  0.00  0.00    +0.000 C 
ENDBRANCH  24  25
ENDBRANCH  23  24
ENDBRANCH  21  23
ENDBRANCH  16  19
ENDBRANCH   6  13
BRANCH   1  28
ATOM     28  C   UNL     1       5.517   4.183  16.756  0.00  0.00    +0.000 C 
BRANCH  28  30
ATOM     29  C   UNL     1       6.238   4.020  14.305  0.00  0.00    +0.000 C 
ATOM     30  C   UNL     1       5.082   4.007  15.294  0.00  0.00    +0.000 C 
ENDBRANCH  28  30
ENDBRANCH   1  28
BRANCH   9  31
ATOM     31  C   UNL     1       2.515   4.245  20.657  0.00  0.00    +0.000 C 
BRANCH  31  32
ATOM     32  C   UNL     1       1.071   3.786  20.445  0.00  0.00    +0.000 C 
ATOM     33  C   UNL     1       0.878   2.847  19.264  0.00  0.00    +0.000 C 
ENDBRANCH  31  32
ENDBRANCH   9  31
TORSDOF 9
ENDMDL
MODEL 5
REMARK VINA RESULT:      -6.6      2.005      2.867
REMARK  Name = 
REMARK  14 active torsions:
REMARK  status: ('A' for Active; 'I' for Inactive)
REMARK    1  A    between atoms: C_1  and  C_2
REMARK    2  A    between atoms: C_2  and  C_3
REMARK    3  A    between atoms: C_3  and  N_4
REMARK    4  A    between atoms: C_9  and  C_10
REMARK    5  A    between atoms: C_13  and  C_14
REMARK    6  A    between atoms: N_16  and  C_17
REMARK    7  A    between atoms: N_16  and  C_18
REMARK    8  A    between atoms: C_18  and  C_19
REMARK    9  A    between atoms: C_19  and  N_20
REMARK   10  A    between atoms: N_20  and  C_21
REMARK   11  A    between atoms: N_20  and  C_22
REMARK   12  A    between atoms: N_27  and  C_28
REMARK   13  A    between atoms: C_28  and  C_29
REMARK   14  A    between atoms: C_29  and  C_30
REMARK                            x       y       z     vdW  Elec       q    Type
REMARK                         _______ _______ _______ _____ _____    ______ ____
ROOT
ATOM      1  N   UNL     1       4.755   5.860  17.857  0.00  0.00    +0.000 N 
ATOM      2  C   UNL     1       3.937   7.010  17.951  0.00  0.00    +0.000 A 
ATOM      3  O   UNL     1       4.060   7.999  17.241  0.00  0.00    +0.000 OA
ATOM      4  C   UNL     1       2.956   6.924  19.011  0.00  0.00    +0.000 A 
ATOM      5  N   UNL     1       2.084   7.884  19.470  0.00  0.00    +0.000 NA
ATOM      6  C   UNL     1       1.494   7.346  20.522  0.00  0.00    +0.000 A 
ATOM      7  N   UNL     1       1.858   6.022  20.656  0.00  0.00    +0.000 N 
ATOM      8  C   UNL     1       2.873   5.796  19.776  0.00  0.00    +0.000 A 
ATOM      9  N   UNL     1       3.713   4.709  19.700  0.00  0.00    +0.000 N 
ATOM     10  C   UNL     1       4.789   4.802  18.794  0.00  0.00    +0.000 A 
ATOM     11  O   UNL     1       5.714   3.988  18.821  0.00  0.00    +0.000 OA
ATOM     12  H   UNL     1       1.556   5.410  21.403  0.00  0.00    +0.000 HD
ENDROOT
BRANCH   6  13
ATOM     13  C   UNL     1       0.669   8.027  21.580  0.00  0.00    +0.000 C 
ATOM     14  C   UNL     1       1.450   9.225  22.151  0.00  0.00    +0.000 C 
ATOM     15  C   UNL     1       1.407  10.470  21.255  0.00  0.00    +0.000 C 
ATOM     16  C   UNL     1      -0.026  10.892  20.917  0.00  0.00    +0.000 C 
ATOM     17  C   UNL     1      -0.797   9.715  20.301  0.00  0.00    +0.000 C 
ATOM     18  C   UNL     1      -0.736   8.417  21.108  0.00  0.00    +0.000 C 
BRANCH  16  19
ATOM     19  C   UNL     1      -0.708  11.470  22.171  0.00  0.00    +0.000 C 
ATOM     20  O   UNL     1      -0.506  10.964  23.275  0.00  0.00    +0.000 OA
ATOM     21  N   UNL     1      -1.473  12.628  22.055  0.00  0.00    +0.000 N 
ATOM     22  C   UNL     1      -1.837  13.303  20.817  0.00  0.00    +0.000 C 
BRANCH  21  23
ATOM     23  C   UNL     1      -2.019  13.214  23.294  0.00  0.00    +0.000 C 
BRANCH  23  24
ATOM     24  C   UNL     1      -1.155  14.387  23.813  0.00  0.00    +0.000 C 
BRANCH  24  25
ATOM     25  N   UNL     1      -1.873  15.387  24.634  0.00  0.00    +0.000 NA
ATOM     26  C   UNL     1      -3.057  14.813  25.280  0.00  0.00    +0.000 C 
ATOM     27  C   UNL     1      -0.972  15.917  25.665  0.00  0.00    +0.000 C 
ENDBRANCH  24  25
ENDBRANCH  23  24
ENDBRANCH  21  23
ENDBRANCH  16  19
ENDBRANCH   6  13
BRANCH   1  28
ATOM     28  C   UNL     1       5.789   5.870  16.823  0.00  0.00    +0.000 C 
BRANCH  28  30
ATOM     29  C   UNL     1       5.890   3.820  15.294  0.00  0.00    +0.000 C 
ATOM     30  C   UNL     1       5.362   5.233  15.493  0.00  0.00    +0.000 C 
ENDBRANCH  28  30
ENDBRANCH   1  28
BRANCH   9  31
ATOM     31  C   UNL     1       3.603   3.529  20.560  0.00  0.00    +0.000 C 
BRANCH  31  32
ATOM     32  C   UNL     1       2.319   2.716  20.377  0.00  0.00    +0.000 C 
ATOM     33  C   UNL     1       1.458   2.612  21.626  0.00  0.00    +0.000 C 
ENDBRANCH  31  32
ENDBRANCH   9  31
TORSDOF 9
ENDMDL
MODEL 6
REMARK VINA RESULT:      -6.5      1.383      2.038
REMARK  Name = 
REMARK  14 active torsions:
REMARK  status: ('A' for Active; 'I' for Inactive)
REMARK    1  A    between atoms: C_1  and  C_2
REMARK    2  A    between atoms: C_2  and  C_3
REMARK    3  A    between atoms: C_3  and  N_4
REMARK    4  A    between atoms: C_9  and  C_10
REMARK    5  A    between atoms: C_13  and  C_14
REMARK    6  A    between atoms: N_16  and  C_17
REMARK    7  A    between atoms: N_16  and  C_18
REMARK    8  A    between atoms: C_18  and  C_19
REMARK    9  A    between atoms: C_19  and  N_20
REMARK   10  A    between atoms: N_20  and  C_21
REMARK   11  A    between atoms: N_20  and  C_22
REMARK   12  A    between atoms: N_27  and  C_28
REMARK   13  A    between atoms: C_28  and  C_29
REMARK   14  A    between atoms: C_29  and  C_30
REMARK                            x       y       z     vdW  Elec       q    Type
REMARK                         _______ _______ _______ _____ _____    ______ ____
ROOT
ATOM      1  N   UNL     1       4.207   4.947  18.239  0.00  0.00    +0.000 N 
ATOM      2  C   UNL     1       3.767   6.276  18.044  0.00  0.00    +0.000 A 
ATOM      3  O   UNL     1       4.151   7.000  17.136  0.00  0.00    +0.000 OA
ATOM      4  C   UNL     1       2.841   6.722  19.063  0.00  0.00    +0.000 A 
ATOM      5  N   UNL     1       2.306   7.974  19.264  0.00  0.00    +0.000 NA
ATOM      6  C   UNL     1       1.620   7.883  20.390  0.00  0.00    +0.000 A 
ATOM      7  N   UNL     1       1.583   6.576  20.830  0.00  0.00    +0.000 N 
ATOM      8  C   UNL     1       2.456   5.870  20.058  0.00  0.00    +0.000 A 
ATOM      9  N   UNL     1       2.936   4.596  20.256  0.00  0.00    +0.000 N 
ATOM     10  C   UNL     1       3.960   4.163  19.389  0.00  0.00    +0.000 A 
ATOM     11  O   UNL     1       4.606   3.141  19.629  0.00  0.00    +0.000 OA
ATOM     12  H   UNL     1       1.140   6.263  21.684  0.00  0.00    +0.000 HD
ENDROOT
BRANCH   6  13
ATOM     13  C   UNL     1       1.068   8.995  21.240  0.00  0.00    +0.000 C 
ATOM     14  C   UNL     1       1.406  10.352  20.594  0.00  0.00    +0.000 C 
ATOM     15  C   UNL     1       0.482  10.725  19.428  0.00  0.00    +0.000 C 
ATOM     16  C   UNL     1      -0.997  10.688  19.825  0.00  0.00    +0.000 C 
ATOM     17  C   UNL     1      -1.354   9.319  20.425  0.00  0.00    +0.000 C 
ATOM     18  C   UNL     1      -0.426   8.851  21.548  0.00  0.00    +0.000 C 
BRANCH  16  19
ATOM     19  C   UNL     1      -1.311  11.862  20.772  0.00  0.00    +0.000 C 
ATOM     20  O   UNL     1      -0.525  12.161  21.671  0.00  0.00    +0.000 OA
ATOM     21  N   UNL     1      -2.442  12.640  20.537  0.00  0.00    +0.000 N 
ATOM     22  C   UNL     1      -3.482  12.378  19.551  0.00  0.00    +0.000 C 
BRANCH  21  23
ATOM     23  C   UNL     1      -2.651  13.821  21.396  0.00  0.00    +0.000 C 
BRANCH  23  24
ATOM     24  C   UNL     1      -4.085  13.875  21.973  0.00  0.00    +0.000 C 
BRANCH  24  25
ATOM     25  N   UNL     1      -4.492  12.696  22.770  0.00  0.00    +0.000 NA
ATOM     26  C   UNL     1      -3.631  12.508  23.942  0.00  0.00    +0.000 C 
ATOM     27  C   UNL     1      -5.882  12.858  23.215  0.00  0.00    +0.000 C 
ENDBRANCH  24  25
ENDBRANCH  23  24
ENDBRANCH  21  23
ENDBRANCH  16  19
ENDBRANCH   6  13
BRANCH   1  28
ATOM     28  C   UNL     1       5.163   4.420  17.264  0.00  0.00    +0.000 C 
BRANCH  28  30
ATOM     29  C   UNL     1       7.236   5.848  16.794  0.00  0.00    +0.000 C 
ATOM     30  C   UNL     1       6.634   4.706  17.600  0.00  0.00    +0.000 C 
ENDBRANCH  28  30
ENDBRANCH   1  28
BRANCH   9  31
ATOM     31  C   UNL     1       2.513   3.724  21.354  0.00  0.00    +0.000 C 
BRANCH  31  32
ATOM     32  C   UNL     1       1.481   2.661  20.971  0.00  0.00    +0.000 C 
ATOM     33  C   UNL     1       0.752   2.936  19.664  0.00  0.00    +0.000 C 
ENDBRANCH  31  32
ENDBRANCH   9  31
TORSDOF 9
ENDMDL
MODEL 7
REMARK VINA RESULT:      -6.5      1.662      2.062
REMARK  Name = 
REMARK  14 active torsions:
REMARK  status: ('A' for Active; 'I' for Inactive)
REMARK    1  A    between atoms: C_1  and  C_2
REMARK    2  A    between atoms: C_2  and  C_3
REMARK    3  A    between atoms: C_3  and  N_4
REMARK    4  A    between atoms: C_9  and  C_10
REMARK    5  A    between atoms: C_13  and  C_14
REMARK    6  A    between atoms: N_16  and  C_17
REMARK    7  A    between atoms: N_16  and  C_18
REMARK    8  A    between atoms: C_18  and  C_19
REMARK    9  A    between atoms: C_19  and  N_20
REMARK   10  A    between atoms: N_20  and  C_21
REMARK   11  A    between atoms: N_20  and  C_22
REMARK   12  A    between atoms: N_27  and  C_28
REMARK   13  A    between atoms: C_28  and  C_29
REMARK   14  A    between atoms: C_29  and  C_30
REMARK                            x       y       z     vdW  Elec       q    Type
REMARK                         _______ _______ _______ _____ _____    ______ ____
ROOT
ATOM      1  N   UNL     1       4.030   4.740  17.488  0.00  0.00    +0.000 N 
ATOM      2  C   UNL     1       3.779   6.129  17.388  0.00  0.00    +0.000 A 
ATOM      3  O   UNL     1       4.172   6.833  16.469  0.00  0.00    +0.000 OA
ATOM      4  C   UNL     1       3.042   6.654  18.517  0.00  0.00    +0.000 A 
ATOM      5  N   UNL     1       2.727   7.959  18.819  0.00  0.00    +0.000 NA
ATOM      6  C   UNL     1       2.156   7.914  20.010  0.00  0.00    +0.000 A 
ATOM      7  N   UNL     1       1.966   6.606  20.405  0.00  0.00    +0.000 N 
ATOM      8  C   UNL     1       2.637   5.819  19.518  0.00  0.00    +0.000 A 
ATOM      9  N   UNL     1       2.935   4.480  19.619  0.00  0.00    +0.000 N 
ATOM     10  C   UNL     1       3.786   3.945  18.631  0.00  0.00    +0.000 A 
ATOM     11  O   UNL     1       4.291   2.828  18.763  0.00  0.00    +0.000 OA
ATOM     12  H   UNL     1       1.571   6.320  21.292  0.00  0.00    +0.000 HD
ENDROOT
BRANCH   6  13
ATOM     13  C   UNL     1       1.869   9.051  20.952  0.00  0.00    +0.000 C 
ATOM     14  C   UNL     1       1.363  10.267  20.153  0.00  0.00    +0.000 C 
ATOM     15  C   UNL     1      -0.115  10.169  19.755  0.00  0.00    +0.000 C 
ATOM     16  C   UNL     1      -1.025   9.919  20.961  0.00  0.00    +0.000 C 
ATOM     17  C   UNL     1      -0.556   8.677  21.736  0.00  0.00    +0.000 C 
ATOM     18  C   UNL     1       0.930   8.676  22.103  0.00  0.00    +0.000 C 
BRANCH  16  19
ATOM     19  C   UNL     1      -1.090  11.185  21.835  0.00  0.00    +0.000 C 
ATOM     20  O   UNL     1      -0.441  11.253  22.879  0.00  0.00    +0.000 OA
ATOM     21  N   UNL     1      -1.811  12.288  21.380  0.00  0.00    +0.000 N 
ATOM     22  C   UNL     1      -2.662  12.336  20.199  0.00  0.00    +0.000 C 
BRANCH  21  23
ATOM     23  C   UNL     1      -1.760  13.519  22.190  0.00  0.00    +0.000 C 
BRANCH  23  24
ATOM     24  C   UNL     1      -2.825  14.550  21.749  0.00  0.00    +0.000 C 
BRANCH  24  25
ATOM     25  N   UNL     1      -4.020  14.637  22.618  0.00  0.00    +0.000 NA
ATOM     26  C   UNL     1      -3.661  14.624  24.039  0.00  0.00    +0.000 C 
ATOM     27  C   UNL     1      -4.757  15.871  22.320  0.00  0.00    +0.000 C 
ENDBRANCH  24  25
ENDBRANCH  23  24
ENDBRANCH  21  23
ENDBRANCH  16  19
ENDBRANCH   6  13
BRANCH   1  28
ATOM     28  C   UNL     1       4.788   4.129  16.397  0.00  0.00    +0.000 C 
BRANCH  28  30
ATOM     29  C   UNL     1       6.969   4.971  15.354  0.00  0.00    +0.000 C 
ATOM     30  C   UNL     1       6.312   4.264  16.530  0.00  0.00    +0.000 C 
ENDBRANCH  28  30
ENDBRANCH   1  28
BRANCH   9  31
ATOM     31  C   UNL     1       2.501   3.626  20.726  0.00  0.00    +0.000 C 
BRANCH  31  32
ATOM     32  C   UNL     1       1.043   3.165  20.650  0.00  0.00    +0.000 C 
ATOM     33  C   UNL     1       0.659   2.512  19.331  0.00  0.00    +0.000 C 
ENDBRANCH  31  32
ENDBRANCH   9  31
TORSDOF 9
ENDMDL
MODEL 8
REMARK VINA RESULT:      -6.4      1.546      3.090
REMARK  Name = 
REMARK  14 active torsions:
REMARK  status: ('A' for Active; 'I' for Inactive)
REMARK    1  A    between atoms: C_1  and  C_2
REMARK    2  A    between atoms: C_2  and  C_3
REMARK    3  A    between atoms: C_3  and  N_4
REMARK    4  A    between atoms: C_9  and  C_10
REMARK    5  A    between atoms: C_13  and  C_14
REMARK    6  A    between atoms: N_16  and  C_17
REMARK    7  A    between atoms: N_16  and  C_18
REMARK    8  A    between atoms: C_18  and  C_19
REMARK    9  A    between atoms: C_19  and  N_20
REMARK   10  A    between atoms: N_20  and  C_21
REMARK   11  A    between atoms: N_20  and  C_22
REMARK   12  A    between atoms: N_27  and  C_28
REMARK   13  A    between atoms: C_28  and  C_29
REMARK   14  A    between atoms: C_29  and  C_30
REMARK                            x       y       z     vdW  Elec       q    Type
REMARK                         _______ _______ _______ _____ _____    ______ ____
ROOT
ATOM      1  N   UNL     1       3.770   4.689  19.242  0.00  0.00    +0.000 N 
ATOM      2  C   UNL     1       2.836   5.489  19.941  0.00  0.00    +0.000 A 
ATOM      3  O   UNL     1       2.237   5.126  20.943  0.00  0.00    +0.000 OA
ATOM      4  C   UNL     1       2.618   6.778  19.321  0.00  0.00    +0.000 A 
ATOM      5  N   UNL     1       1.706   7.756  19.646  0.00  0.00    +0.000 NA
ATOM      6  C   UNL     1       1.833   8.676  18.706  0.00  0.00    +0.000 A 
ATOM      7  N   UNL     1       2.898   8.381  17.880  0.00  0.00    +0.000 N 
ATOM      8  C   UNL     1       3.311   7.123  18.197  0.00  0.00    +0.000 A 
ATOM      9  N   UNL     1       4.178   6.309  17.505  0.00  0.00    +0.000 N 
ATOM     10  C   UNL     1       4.310   4.984  17.969  0.00  0.00    +0.000 A 
ATOM     11  O   UNL     1       4.876   4.125  17.289  0.00  0.00    +0.000 OA
ATOM     12  H   UNL     1       3.174   8.925  17.073  0.00  0.00    +0.000 HD
ENDROOT
BRANCH   6  13
ATOM     13  C   UNL     1       0.908   9.820  18.389  0.00  0.00    +0.000 C 
ATOM     14  C   UNL     1      -0.433   9.616  19.119  0.00  0.00    +0.000 C 
ATOM     15  C   UNL     1      -0.391  10.005  20.602  0.00  0.00    +0.000 C 
ATOM     16  C   UNL     1       0.107  11.438  20.812  0.00  0.00    +0.000 C 
ATOM     17  C   UNL     1       1.468  11.636  20.128  0.00  0.00    +0.000 C 
ATOM     18  C   UNL     1       1.518  11.199  18.662  0.00  0.00    +0.000 C 
BRANCH  16  19
ATOM     19  C   UNL     1      -0.962  12.436  20.327  0.00  0.00    +0.000 C 
ATOM     20  O   UNL     1      -0.902  12.905  19.191  0.00  0.00    +0.000 OA
ATOM     21  N   UNL     1      -2.048  12.721  21.152  0.00  0.00    +0.000 N 
ATOM     22  C   UNL     1      -2.226  12.283  22.529  0.00  0.00    +0.000 C 
BRANCH  21  23
ATOM     23  C   UNL     1      -3.106  13.594  20.610  0.00  0.00    +0.000 C 
BRANCH  23  24
ATOM     24  C   UNL     1      -4.468  13.356  21.304  0.00  0.00    +0.000 C 
BRANCH  24  25
ATOM     25  N   UNL     1      -5.337  12.345  20.662  0.00  0.00    +0.000 NA
ATOM     26  C   UNL     1      -6.759  12.651  20.848  0.00  0.00    +0.000 C 
ATOM     27  C   UNL     1      -5.043  12.282  19.225  0.00  0.00    +0.000 C 
ENDBRANCH  24  25
ENDBRANCH  23  24
ENDBRANCH  21  23
ENDBRANCH  16  19
ENDBRANCH   6  13
BRANCH   1  28
ATOM     28  C   UNL     1       4.035   3.358  19.789  0.00  0.00    +0.000 C 
BRANCH  28  30
ATOM     29  C   UNL     1       3.348   1.389  18.304  0.00  0.00    +0.000 C 
ATOM     30  C   UNL     1       2.965   2.309  19.453  0.00  0.00    +0.000 C 
ENDBRANCH  28  30
ENDBRANCH   1  28
BRANCH   9  31
ATOM     31  C   UNL     1       4.882   6.711  16.286  0.00  0.00    +0.000 C 
BRANCH  31  32
ATOM     32  C   UNL     1       6.404   6.560  16.341  0.00  0.00    +0.000 C 
ATOM     33  C   UNL     1       7.079   7.397  17.417  0.00  0.00    +0.000 C 
ENDBRANCH  31  32
ENDBRANCH   9  31
TORSDOF 9
ENDMDL
MODEL 9
REMARK VINA RESULT:      -6.4      1.794      2.868
REMARK  Name = 
REMARK  14 active torsions:
REMARK  status: ('A' for Active; 'I' for Inactive)
REMARK    1  A    between atoms: C_1  and  C_2
REMARK    2  A    between atoms: C_2  and  C_3
REMARK    3  A    between atoms: C_3  and  N_4
REMARK    4  A    between atoms: C_9  and  C_10
REMARK    5  A    between atoms: C_13  and  C_14
REMARK    6  A    between atoms: N_16  and  C_17
REMARK    7  A    between atoms: N_16  and  C_18
REMARK    8  A    between atoms: C_18  and  C_19
REMARK    9  A    between atoms: C_19  and  N_20
REMARK   10  A    between atoms: N_20  and  C_21
REMARK   11  A    between atoms: N_20  and  C_22
REMARK   12  A    between atoms: N_27  and  C_28
REMARK   13  A    between atoms: C_28  and  C_29
REMARK   14  A    between atoms: C_29  and  C_30
REMARK                            x       y       z     vdW  Elec       q    Type
REMARK                         _______ _______ _______ _____ _____    ______ ____
ROOT
ATOM      1  N   UNL     1       4.043   5.081  17.951  0.00  0.00    +0.000 N 
ATOM      2  C   UNL     1       3.590   6.420  17.900  0.00  0.00    +0.000 A 
ATOM      3  O   UNL     1       3.907   7.219  17.030  0.00  0.00    +0.000 OA
ATOM      4  C   UNL     1       2.741   6.774  19.017  0.00  0.00    +0.000 A 
ATOM      5  N   UNL     1       2.222   8.001  19.360  0.00  0.00    +0.000 NA
ATOM      6  C   UNL     1       1.620   7.812  20.521  0.00  0.00    +0.000 A 
ATOM      7  N   UNL     1       1.615   6.473  20.852  0.00  0.00    +0.000 N 
ATOM      8  C   UNL     1       2.429   5.840  19.962  0.00  0.00    +0.000 A 
ATOM      9  N   UNL     1       2.922   4.556  20.018  0.00  0.00    +0.000 N 
ATOM     10  C   UNL     1       3.881   4.203  19.046  0.00  0.00    +0.000 A 
ATOM     11  O   UNL     1       4.542   3.168  19.153  0.00  0.00    +0.000 OA
ATOM     12  H   UNL     1       1.235   6.088  21.707  0.00  0.00    +0.000 HD
ENDROOT
BRANCH   6  13
ATOM     13  C   UNL     1       1.131   8.847  21.499  0.00  0.00    +0.000 C 
ATOM     14  C   UNL     1       1.658  10.234  21.086  0.00  0.00    +0.000 C 
ATOM     15  C   UNL     1       0.865  10.878  19.942  0.00  0.00    +0.000 C 
ATOM     16  C   UNL     1      -0.634  10.957  20.247  0.00  0.00    +0.000 C 
ATOM     17  C   UNL     1      -1.178   9.566  20.612  0.00  0.00    +0.000 C 
ATOM     18  C   UNL     1      -0.388   8.835  21.699  0.00  0.00    +0.000 C 
BRANCH  16  19
ATOM     19  C   UNL     1      -0.887  12.009  21.343  0.00  0.00    +0.000 C 
ATOM     20  O   UNL     1      -0.053  12.194  22.230  0.00  0.00    +0.000 OA
ATOM     21  N   UNL     1      -2.019  12.816  21.260  0.00  0.00    +0.000 N 
ATOM     22  C   UNL     1      -3.109  12.680  20.304  0.00  0.00    +0.000 C 
BRANCH  21  23
ATOM     23  C   UNL     1      -2.171  13.886  22.265  0.00  0.00    +0.000 C 
BRANCH  23  24
ATOM     24  C   UNL     1      -1.976  15.292  21.652  0.00  0.00    +0.000 C 
BRANCH  24  25
ATOM     25  N   UNL     1      -0.570  15.738  21.526  0.00  0.00    +0.000 NA
ATOM     26  C   UNL     1      -0.474  17.074  20.931  0.00  0.00    +0.000 C 
ATOM     27  C   UNL     1       0.062  15.755  22.851  0.00  0.00    +0.000 C 
ENDBRANCH  24  25
ENDBRANCH  23  24
ENDBRANCH  21  23
ENDBRANCH  16  19
ENDBRANCH   6  13
BRANCH   1  28
ATOM     28  C   UNL     1       4.926   4.643  16.869  0.00  0.00    +0.000 C 
BRANCH  28  30
ATOM     29  C   UNL     1       7.253   4.811  15.815  0.00  0.00    +0.000 C 
ATOM     30  C   UNL     1       6.399   5.034  17.055  0.00  0.00    +0.000 C 
ENDBRANCH  28  30
ENDBRANCH   1  28
BRANCH   9  31
ATOM     31  C   UNL     1       2.580   3.594  21.067  0.00  0.00    +0.000 C 
BRANCH  31  32
ATOM     32  C   UNL     1       1.181   2.985  20.952  0.00  0.00    +0.000 C 
ATOM     33  C   UNL     1       0.783   2.591  19.537  0.00  0.00    +0.000 C 
ENDBRANCH  31  32
ENDBRANCH   9  31
TORSDOF 9
ENDMDL
