MODEL 1
REMARK VINA RESULT:      -8.7      0.000      0.000
REMARK  Name = 
REMARK  4 active torsions:
REMARK  status: ('A' for Active; 'I' for Inactive)
REMARK    1  A    between atoms: C_1  and  S_2
REMARK    2  A    between atoms: S_2  and  C_3
REMARK    3  A    between atoms: C_8  and  C_9
REMARK    4  A    between atoms: C_13  and  C_14
REMARK                            x       y       z     vdW  Elec       q    Type
REMARK                         _______ _______ _______ _____ _____    ______ ____
ROOT
ATOM      1  C   UNL     1       2.025   7.001  19.962  0.00  0.00    +0.000 A 
ATOM      2  C   UNL     1       1.767   5.875  20.761  0.00  0.00    +0.000 A 
ATOM      3  C   UNL     1       2.463   4.682  20.573  0.00  0.00    +0.000 A 
ATOM      4  C   UNL     1       3.445   4.594  19.586  0.00  0.00    +0.000 A 
ATOM      5  C   UNL     1       3.742   5.682  18.749  0.00  0.00    +0.000 A 
ATOM      6  C   UNL     1       3.003   6.865  18.952  0.00  0.00    +0.000 A 
ENDROOT
BRANCH   5   7
ATOM      7  C   UNL     1       4.801   5.601  17.712  0.00  0.00    +0.000 A 
ATOM      8  C   UNL     1       6.076   6.160  17.918  0.00  0.00    +0.000 A 
ATOM      9  C   UNL     1       7.101   6.090  16.963  0.00  0.00    +0.000 A 
ATOM     10  C   UNL     1       6.826   5.411  15.775  0.00  0.00    +0.000 A 
ATOM     11  N   UNL     1       7.625   5.164  14.682  0.00  0.00    +0.000 N 
ATOM     12  C   UNL     1       6.935   4.441  13.747  0.00  0.00    +0.000 A 
ATOM     13  C   UNL     1       5.667   4.224  14.233  0.00  0.00    +0.000 A 
ATOM     14  C   UNL     1       5.587   4.833  15.515  0.00  0.00    +0.000 A 
ATOM     15  C   UNL     1       4.568   4.943  16.485  0.00  0.00    +0.000 A 
ATOM     16  H   UNL     1       8.584   5.468  14.595  0.00  0.00    +0.000 HD
ENDBRANCH   5   7
BRANCH   1  22
ATOM     17  C   UNL     1       0.192   9.675  21.513  0.00  0.00    +0.000 A 
ATOM     18  N   UNL     1       0.162  10.633  20.593  0.00  0.00    +0.000 NA
ATOM     19  C   UNL     1       0.773  10.335  19.463  0.00  0.00    +0.000 A 
ATOM     20  N   UNL     1       0.788  11.301  18.477  0.00  0.00    +0.000 N 
ATOM     21  N   UNL     1       1.356   9.182  19.195  0.00  0.00    +0.000 NA
ATOM     22  C   UNL     1       1.325   8.283  20.181  0.00  0.00    +0.000 A 
ATOM     23  N   UNL     1       0.747   8.480  21.361  0.00  0.00    +0.000 NA
ATOM     24  H   UNL     1       0.013  11.940  18.592  0.00  0.00    +0.000 HD
ATOM     25  H   UNL     1       0.908  10.879  17.567  0.00  0.00    +0.000 HD
BRANCH  17  27
ATOM     26  C   UNL     1      -1.105  11.704  22.785  0.00  0.00    +0.000 C 
ATOM     27  S   UNL     1      -0.555  10.008  23.090  0.00  0.00    +0.000 S 
ENDBRANCH  17  27
ENDBRANCH   1  22
TORSDOF 3
ENDMDL
MODEL 2
REMARK VINA RESULT:      -8.6      1.276      1.940
REMARK  Name = 
REMARK  4 active torsions:
REMARK  status: ('A' for Active; 'I' for Inactive)
REMARK    1  A    between atoms: C_1  and  S_2
REMARK    2  A    between atoms: S_2  and  C_3
REMARK    3  A    between atoms: C_8  and  C_9
REMARK    4  A    between atoms: C_13  and  C_14
REMARK                            x       y       z     vdW  Elec       q    Type
REMARK                         _______ _______ _______ _____ _____    ______ ____
ROOT
ATOM      1  C   UNL     1       1.978   6.797  20.225  0.00  0.00    +0.000 A 
ATOM      2  C   UNL     1       1.611   5.593  20.848  0.00  0.00    +0.000 A 
ATOM      3  C   UNL     1       2.215   4.386  20.500  0.00  0.00    +0.000 A 
ATOM      4  C   UNL     1       3.213   4.361  19.525  0.00  0.00    +0.000 A 
ATOM      5  C   UNL     1       3.617   5.529  18.859  0.00  0.00    +0.000 A 
ATOM      6  C   UNL     1       2.968   6.727  19.220  0.00  0.00    +0.000 A 
ENDROOT
BRANCH   5   7
ATOM      7  C   UNL     1       4.693   5.511  17.836  0.00  0.00    +0.000 A 
ATOM      8  C   UNL     1       5.951   6.093  18.083  0.00  0.00    +0.000 A 
ATOM      9  C   UNL     1       6.992   6.082  17.142  0.00  0.00    +0.000 A 
ATOM     10  C   UNL     1       6.751   5.440  15.927  0.00  0.00    +0.000 A 
ATOM     11  N   UNL     1       7.573   5.253  14.838  0.00  0.00    +0.000 N 
ATOM     12  C   UNL     1       6.915   4.548  13.866  0.00  0.00    +0.000 A 
ATOM     13  C   UNL     1       5.645   4.283  14.324  0.00  0.00    +0.000 A 
ATOM     14  C   UNL     1       5.530   4.843  15.626  0.00  0.00    +0.000 A 
ATOM     15  C   UNL     1       4.495   4.893  16.583  0.00  0.00    +0.000 A 
ATOM     16  H   UNL     1       8.525   5.582  14.777  0.00  0.00    +0.000 HD
ENDBRANCH   5   7
BRANCH   1  22
ATOM     17  C   UNL     1       0.748  10.171  20.111  0.00  0.00    +0.000 A 
ATOM     18  N   UNL     1       0.196  10.364  21.305  0.00  0.00    +0.000 NA
ATOM     19  C   UNL     1       0.263   9.328  22.119  0.00  0.00    +0.000 A 
ATOM     20  N   UNL     1      -0.309   9.466  23.367  0.00  0.00    +0.000 N 
ATOM     21  N   UNL     1       0.845   8.178  21.839  0.00  0.00    +0.000 NA
ATOM     22  C   UNL     1       1.376   8.087  20.617  0.00  0.00    +0.000 A 
ATOM     23  N   UNL     1       1.358   9.062  19.715  0.00  0.00    +0.000 NA
ATOM     24  H   UNL     1      -0.351  10.440  23.635  0.00  0.00    +0.000 HD
ATOM     25  H   UNL     1       0.111   8.823  24.024  0.00  0.00    +0.000 HD
BRANCH  17  27
ATOM     26  C   UNL     1      -1.140  11.552  18.716  0.00  0.00    +0.000 C 
ATOM     27  S   UNL     1       0.655  11.492  18.927  0.00  0.00    +0.000 S 
ENDBRANCH  17  27
ENDBRANCH   1  22
TORSDOF 3
ENDMDL
MODEL 3
REMARK VINA RESULT:      -8.4      3.199      8.263
REMARK  Name = 
REMARK  4 active torsions:
REMARK  status: ('A' for Active; 'I' for Inactive)
REMARK    1  A    between atoms: C_1  and  S_2
REMARK    2  A    between atoms: S_2  and  C_3
REMARK    3  A    between atoms: C_8  and  C_9
REMARK    4  A    between atoms: C_13  and  C_14
REMARK                            x       y       z     vdW  Elec       q    Type
REMARK                         _______ _______ _______ _____ _____    ______ ____
ROOT
ATOM      1  C   UNL     1       3.976   5.088  19.353  0.00  0.00    +0.000 A 
ATOM      2  C   UNL     1       3.206   3.929  19.542  0.00  0.00    +0.000 A 
ATOM      3  C   UNL     1       1.900   4.002  20.023  0.00  0.00    +0.000 A 
ATOM      4  C   UNL     1       1.330   5.242  20.315  0.00  0.00    +0.000 A 
ATOM      5  C   UNL     1       2.053   6.435  20.155  0.00  0.00    +0.000 A 
ATOM      6  C   UNL     1       3.378   6.323  19.689  0.00  0.00    +0.000 A 
ENDROOT
BRANCH   5   7
ATOM      7  C   UNL     1       1.445   7.759  20.443  0.00  0.00    +0.000 A 
ATOM      8  C   UNL     1       1.414   8.780  19.474  0.00  0.00    +0.000 A 
ATOM      9  C   UNL     1       0.837  10.036  19.711  0.00  0.00    +0.000 A 
ATOM     10  C   UNL     1       0.254  10.249  20.960  0.00  0.00    +0.000 A 
ATOM     11  N   UNL     1      -0.396  11.352  21.466  0.00  0.00    +0.000 N 
ATOM     12  C   UNL     1      -0.821  11.105  22.744  0.00  0.00    +0.000 A 
ATOM     13  C   UNL     1      -0.433   9.828  23.078  0.00  0.00    +0.000 A 
ATOM     14  C   UNL     1       0.247   9.278  21.957  0.00  0.00    +0.000 A 
ATOM     15  C   UNL     1       0.859   8.033  21.697  0.00  0.00    +0.000 A 
ATOM     16  H   UNL     1      -0.542  12.213  20.958  0.00  0.00    +0.000 HD
ENDBRANCH   5   7
BRANCH   1  22
ATOM     17  C   UNL     1       6.732   4.861  17.057  0.00  0.00    +0.000 A 
ATOM     18  N   UNL     1       7.810   5.024  17.816  0.00  0.00    +0.000 NA
ATOM     19  C   UNL     1       7.562   5.207  19.099  0.00  0.00    +0.000 A 
ATOM     20  N   UNL     1       8.646   5.399  19.932  0.00  0.00    +0.000 N 
ATOM     21  N   UNL     1       6.363   5.206  19.648  0.00  0.00    +0.000 NA
ATOM     22  C   UNL     1       5.346   5.027  18.802  0.00  0.00    +0.000 A 
ATOM     23  N   UNL     1       5.479   4.843  17.493  0.00  0.00    +0.000 NA
ATOM     24  H   UNL     1       9.479   4.990  19.533  0.00  0.00    +0.000 HD
ATOM     25  H   UNL     1       8.414   5.142  20.881  0.00  0.00    +0.000 HD
BRANCH  17  27
ATOM     26  C   UNL     1       5.254   4.320  14.834  0.00  0.00    +0.000 C 
ATOM     27  S   UNL     1       6.965   4.666  15.307  0.00  0.00    +0.000 S 
ENDBRANCH  17  27
ENDBRANCH   1  22
TORSDOF 3
ENDMDL
MODEL 4
REMARK VINA RESULT:      -8.4      5.296      8.821
REMARK  Name = 
REMARK  4 active torsions:
REMARK  status: ('A' for Active; 'I' for Inactive)
REMARK    1  A    between atoms: C_1  and  S_2
REMARK    2  A    between atoms: S_2  and  C_3
REMARK    3  A    between atoms: C_8  and  C_9
REMARK    4  A    between atoms: C_13  and  C_14
REMARK                            x       y       z     vdW  Elec       q    Type
REMARK                         _______ _______ _______ _____ _____    ______ ____
ROOT
ATOM      1  C   UNL     1       6.708   4.779  15.939  0.00  0.00    +0.000 A 
ATOM      2  C   UNL     1       7.753   5.201  16.777  0.00  0.00    +0.000 A 
ATOM      3  C   UNL     1       7.578   5.296  18.156  0.00  0.00    +0.000 A 
ATOM      4  C   UNL     1       6.352   4.958  18.730  0.00  0.00    +0.000 A 
ATOM      5  C   UNL     1       5.266   4.539  17.944  0.00  0.00    +0.000 A 
ATOM      6  C   UNL     1       5.472   4.476  16.551  0.00  0.00    +0.000 A 
ENDROOT
BRANCH   5   7
ATOM      7  C   UNL     1       3.966   4.158  18.551  0.00  0.00    +0.000 A 
ATOM      8  C   UNL     1       2.764   4.234  17.822  0.00  0.00    +0.000 A 
ATOM      9  C   UNL     1       1.522   3.871  18.363  0.00  0.00    +0.000 A 
ATOM     10  C   UNL     1       1.508   3.393  19.674  0.00  0.00    +0.000 A 
ATOM     11  N   UNL     1       0.463   2.948  20.451  0.00  0.00    +0.000 N 
ATOM     12  C   UNL     1       0.922   2.557  21.680  0.00  0.00    +0.000 A 
ATOM     13  C   UNL     1       2.282   2.761  21.707  0.00  0.00    +0.000 A 
ATOM     14  C   UNL     1       2.663   3.289  20.444  0.00  0.00    +0.000 A 
ATOM     15  C   UNL     1       3.894   3.687  19.880  0.00  0.00    +0.000 A 
ATOM     16  H   UNL     1      -0.500   2.910  20.148  0.00  0.00    +0.000 HD
ENDBRANCH   5   7
BRANCH   1  22
ATOM     17  C   UNL     1       6.420   3.602  12.555  0.00  0.00    +0.000 A 
ATOM     18  N   UNL     1       7.161   4.447  11.846  0.00  0.00    +0.000 NA
ATOM     19  C   UNL     1       7.741   5.400  12.550  0.00  0.00    +0.000 A 
ATOM     20  N   UNL     1       8.510   6.316  11.861  0.00  0.00    +0.000 N 
ATOM     21  N   UNL     1       7.657   5.535  13.859  0.00  0.00    +0.000 NA
ATOM     22  C   UNL     1       6.895   4.632  14.481  0.00  0.00    +0.000 A 
ATOM     23  N   UNL     1       6.258   3.638  13.871  0.00  0.00    +0.000 NA
ATOM     24  H   UNL     1       8.844   5.922  10.993  0.00  0.00    +0.000 HD
ATOM     25  H   UNL     1       9.196   6.736  12.473  0.00  0.00    +0.000 HD
BRANCH  17  27
ATOM     26  C   UNL     1       4.054   3.237  11.257  0.00  0.00    +0.000 C 
ATOM     27  S   UNL     1       5.552   2.320  11.684  0.00  0.00    +0.000 S 
ENDBRANCH  17  27
ENDBRANCH   1  22
TORSDOF 3
ENDMDL
MODEL 5
REMARK VINA RESULT:      -8.3      3.468      8.464
REMARK  Name = 
REMARK  4 active torsions:
REMARK  status: ('A' for Active; 'I' for Inactive)
REMARK    1  A    between atoms: C_1  and  S_2
REMARK    2  A    between atoms: S_2  and  C_3
REMARK    3  A    between atoms: C_8  and  C_9
REMARK    4  A    between atoms: C_13  and  C_14
REMARK                            x       y       z     vdW  Elec       q    Type
REMARK                         _______ _______ _______ _____ _____    ______ ____
ROOT
ATOM      1  C   UNL     1       2.821   7.030  18.970  0.00  0.00    +0.000 A 
ATOM      2  C   UNL     1       2.986   7.687  17.740  0.00  0.00    +0.000 A 
ATOM      3  C   UNL     1       2.358   8.903  17.481  0.00  0.00    +0.000 A 
ATOM      4  C   UNL     1       1.557   9.498  18.457  0.00  0.00    +0.000 A 
ATOM      5  C   UNL     1       1.345   8.886  19.703  0.00  0.00    +0.000 A 
ATOM      6  C   UNL     1       1.977   7.646  19.921  0.00  0.00    +0.000 A 
ENDROOT
BRANCH   5   7
ATOM      7  C   UNL     1       0.511   9.524  20.752  0.00  0.00    +0.000 A 
ATOM      8  C   UNL     1       0.524   9.063  22.082  0.00  0.00    +0.000 A 
ATOM      9  C   UNL     1      -0.243   9.651  23.099  0.00  0.00    +0.000 A 
ATOM     10  C   UNL     1      -1.025  10.754  22.756  0.00  0.00    +0.000 A 
ATOM     11  N   UNL     1      -1.851  11.539  23.529  0.00  0.00    +0.000 N 
ATOM     12  C   UNL     1      -2.412  12.528  22.767  0.00  0.00    +0.000 A 
ATOM     13  C   UNL     1      -1.953  12.379  21.478  0.00  0.00    +0.000 A 
ATOM     14  C   UNL     1      -1.076  11.260  21.460  0.00  0.00    +0.000 A 
ATOM     15  C   UNL     1      -0.313  10.630  20.454  0.00  0.00    +0.000 A 
ATOM     16  H   UNL     1      -2.008  11.403  24.517  0.00  0.00    +0.000 HD
ENDBRANCH   5   7
BRANCH   1  22
ATOM     17  C   UNL     1       3.552   3.748  20.239  0.00  0.00    +0.000 A 
ATOM     18  N   UNL     1       4.737   3.448  19.718  0.00  0.00    +0.000 NA
ATOM     19  C   UNL     1       5.255   4.382  18.944  0.00  0.00    +0.000 A 
ATOM     20  N   UNL     1       6.477   4.116  18.362  0.00  0.00    +0.000 N 
ATOM     21  N   UNL     1       4.703   5.555  18.696  0.00  0.00    +0.000 NA
ATOM     22  C   UNL     1       3.517   5.763  19.272  0.00  0.00    +0.000 A 
ATOM     23  N   UNL     1       2.900   4.889  20.061  0.00  0.00    +0.000 NA
ATOM     24  H   UNL     1       6.988   3.431  18.902  0.00  0.00    +0.000 HD
ATOM     25  H   UNL     1       6.957   4.976  18.133  0.00  0.00    +0.000 HD
BRANCH  17  27
ATOM     26  C   UNL     1       1.030   2.942  20.877  0.00  0.00    +0.000 C 
ATOM     27  S   UNL     1       2.750   2.526  21.249  0.00  0.00    +0.000 S 
ENDBRANCH  17  27
ENDBRANCH   1  22
TORSDOF 3
ENDMDL
MODEL 6
REMARK VINA RESULT:      -8.2      2.949      8.312
REMARK  Name = 
REMARK  4 active torsions:
REMARK  status: ('A' for Active; 'I' for Inactive)
REMARK    1  A    between atoms: C_1  and  S_2
REMARK    2  A    between atoms: S_2  and  C_3
REMARK    3  A    between atoms: C_8  and  C_9
REMARK    4  A    between atoms: C_13  and  C_14
REMARK                            x       y       z     vdW  Elec       q    Type
REMARK                         _______ _______ _______ _____ _____    ______ ____
ROOT
ATOM      1  C   UNL     1       3.976   5.592  18.636  0.00  0.00    +0.000 A 
ATOM      2  C   UNL     1       3.524   4.366  19.150  0.00  0.00    +0.000 A 
ATOM      3  C   UNL     1       2.449   4.307  20.035  0.00  0.00    +0.000 A 
ATOM      4  C   UNL     1       1.793   5.478  20.417  0.00  0.00    +0.000 A 
ATOM      5  C   UNL     1       2.204   6.735  19.944  0.00  0.00    +0.000 A 
ATOM      6  C   UNL     1       3.309   6.759  19.069  0.00  0.00    +0.000 A 
ENDROOT
BRANCH   5   7
ATOM      7  C   UNL     1       1.497   7.982  20.330  0.00  0.00    +0.000 A 
ATOM      8  C   UNL     1       1.327   9.042  19.419  0.00  0.00    +0.000 A 
ATOM      9  C   UNL     1       0.654  10.228  19.749  0.00  0.00    +0.000 A 
ATOM     10  C   UNL     1       0.118  10.326  21.034  0.00  0.00    +0.000 A 
ATOM     11  N   UNL     1      -0.600  11.339  21.628  0.00  0.00    +0.000 N 
ATOM     12  C   UNL     1      -0.935  10.992  22.909  0.00  0.00    +0.000 A 
ATOM     13  C   UNL     1      -0.419   9.740  23.156  0.00  0.00    +0.000 A 
ATOM     14  C   UNL     1       0.249   9.310  21.977  0.00  0.00    +0.000 A 
ATOM     15  C   UNL     1       0.954   8.141  21.623  0.00  0.00    +0.000 A 
ATOM     16  H   UNL     1      -0.847  12.206  21.174  0.00  0.00    +0.000 HD
ENDBRANCH   5   7
BRANCH   1  22
ATOM     17  C   UNL     1       6.034   5.009  15.748  0.00  0.00    +0.000 A 
ATOM     18  N   UNL     1       7.034   5.876  15.873  0.00  0.00    +0.000 NA
ATOM     19  C   UNL     1       6.975   6.638  16.948  0.00  0.00    +0.000 A 
ATOM     20  N   UNL     1       7.979   7.569  17.120  0.00  0.00    +0.000 N 
ATOM     21  N   UNL     1       6.041   6.570  17.877  0.00  0.00    +0.000 NA
ATOM     22  C   UNL     1       5.086   5.662  17.663  0.00  0.00    +0.000 A 
ATOM     23  N   UNL     1       5.041   4.850  16.613  0.00  0.00    +0.000 NA
ATOM     24  H   UNL     1       8.816   7.286  16.628  0.00  0.00    +0.000 HD
ATOM     25  H   UNL     1       8.076   7.811  18.096  0.00  0.00    +0.000 HD
BRANCH  17  27
ATOM     26  C   UNL     1       7.307   4.789  13.350  0.00  0.00    +0.000 C 
ATOM     27  S   UNL     1       5.998   3.980  14.301  0.00  0.00    +0.000 S 
ENDBRANCH  17  27
ENDBRANCH   1  22
TORSDOF 3
ENDMDL
MODEL 7
REMARK VINA RESULT:      -8.1      2.973      8.286
REMARK  Name = 
REMARK  4 active torsions:
REMARK  status: ('A' for Active; 'I' for Inactive)
REMARK    1  A    between atoms: C_1  and  S_2
REMARK    2  A    between atoms: S_2  and  C_3
REMARK    3  A    between atoms: C_8  and  C_9
REMARK    4  A    between atoms: C_13  and  C_14
REMARK                            x       y       z     vdW  Elec       q    Type
REMARK                         _______ _______ _______ _____ _____    ______ ____
ROOT
ATOM      1  C   UNL     1       3.944   4.850  18.989  0.00  0.00    +0.000 A 
ATOM      2  C   UNL     1       3.361   3.794  19.708  0.00  0.00    +0.000 A 
ATOM      3  C   UNL     1       2.271   4.009  20.549  0.00  0.00    +0.000 A 
ATOM      4  C   UNL     1       1.731   5.289  20.680  0.00  0.00    +0.000 A 
ATOM      5  C   UNL     1       2.275   6.387  19.994  0.00  0.00    +0.000 A 
ATOM      6  C   UNL     1       3.391   6.137  19.170  0.00  0.00    +0.000 A 
ENDROOT
BRANCH   5   7
ATOM      7  C   UNL     1       1.691   7.747  20.113  0.00  0.00    +0.000 A 
ATOM      8  C   UNL     1       1.696   8.646  19.029  0.00  0.00    +0.000 A 
ATOM      9  C   UNL     1       1.142   9.932  19.105  0.00  0.00    +0.000 A 
ATOM     10  C   UNL     1       0.547  10.304  20.311  0.00  0.00    +0.000 A 
ATOM     11  N   UNL     1      -0.087  11.472  20.672  0.00  0.00    +0.000 N 
ATOM     12  C   UNL     1      -0.535  11.387  21.962  0.00  0.00    +0.000 A 
ATOM     13  C   UNL     1      -0.178  10.151  22.452  0.00  0.00    +0.000 A 
ATOM     14  C   UNL     1       0.506   9.458  21.416  0.00  0.00    +0.000 A 
ATOM     15  C   UNL     1       1.094   8.180  21.316  0.00  0.00    +0.000 A 
ATOM     16  H   UNL     1      -0.208  12.268  20.063  0.00  0.00    +0.000 HD
ENDBRANCH   5   7
BRANCH   1  22
ATOM     17  C   UNL     1       5.858   4.389  15.982  0.00  0.00    +0.000 A 
ATOM     18  N   UNL     1       7.119   4.328  16.399  0.00  0.00    +0.000 NA
ATOM     19  C   UNL     1       7.279   4.447  17.702  0.00  0.00    +0.000 A 
ATOM     20  N   UNL     1       8.570   4.408  18.189  0.00  0.00    +0.000 N 
ATOM     21  N   UNL     1       6.301   4.584  18.578  0.00  0.00    +0.000 NA
ATOM     22  C   UNL     1       5.071   4.626  18.061  0.00  0.00    +0.000 A 
ATOM     23  N   UNL     1       4.796   4.527  16.764  0.00  0.00    +0.000 NA
ATOM     24  H   UNL     1       9.176   3.911  17.551  0.00  0.00    +0.000 HD
ATOM     25  H   UNL     1       8.577   4.117  19.156  0.00  0.00    +0.000 HD
BRANCH  17  27
ATOM     26  C   UNL     1       7.176   4.819  13.638  0.00  0.00    +0.000 C 
ATOM     27  S   UNL     1       5.551   4.298  14.235  0.00  0.00    +0.000 S 
ENDBRANCH  17  27
ENDBRANCH   1  22
TORSDOF 3
ENDMDL
MODEL 8
REMARK VINA RESULT:      -8.1      3.248      8.588
REMARK  Name = 
REMARK  4 active torsions:
REMARK  status: ('A' for Active; 'I' for Inactive)
REMARK    1  A    between atoms: C_1  and  S_2
REMARK    2  A    between atoms: S_2  and  C_3
REMARK    3  A    between atoms: C_8  and  C_9
REMARK    4  A    between atoms: C_13  and  C_14
REMARK                            x       y       z     vdW  Elec       q    Type
REMARK                         _______ _______ _______ _____ _____    ______ ____
ROOT
ATOM      1  C   UNL     1       5.379   4.867  16.650  0.00  0.00    +0.000 A 
ATOM      2  C   UNL     1       5.643   3.920  17.653  0.00  0.00    +0.000 A 
ATOM      3  C   UNL     1       5.077   4.036  18.921  0.00  0.00    +0.000 A 
ATOM      4  C   UNL     1       4.220   5.099  19.210  0.00  0.00    +0.000 A 
ATOM      5  C   UNL     1       3.924   6.082  18.252  0.00  0.00    +0.000 A 
ATOM      6  C   UNL     1       4.532   5.946  16.987  0.00  0.00    +0.000 A 
ENDROOT
BRANCH   5   7
ATOM      7  C   UNL     1       2.996   7.203  18.546  0.00  0.00    +0.000 A 
ATOM      8  C   UNL     1       2.743   8.215  17.601  0.00  0.00    +0.000 A 
ATOM      9  C   UNL     1       1.864   9.280  17.844  0.00  0.00    +0.000 A 
ATOM     10  C   UNL     1       1.206   9.301  19.075  0.00  0.00    +0.000 A 
ATOM     11  N   UNL     1       0.286  10.191  19.580  0.00  0.00    +0.000 N 
ATOM     12  C   UNL     1      -0.105   9.805  20.834  0.00  0.00    +0.000 A 
ATOM     13  C   UNL     1       0.578   8.654  21.153  0.00  0.00    +0.000 A 
ATOM     14  C   UNL     1       1.410   8.327  20.048  0.00  0.00    +0.000 A 
ATOM     15  C   UNL     1       2.321   7.282  19.783  0.00  0.00    +0.000 A 
ATOM     16  H   UNL     1      -0.054  11.004  19.087  0.00  0.00    +0.000 HD
ENDBRANCH   5   7
BRANCH   1  22
ATOM     17  C   UNL     1       5.757   4.024  13.177  0.00  0.00    +0.000 A 
ATOM     18  N   UNL     1       6.909   4.585  12.823  0.00  0.00    +0.000 NA
ATOM     19  C   UNL     1       7.526   5.238  13.789  0.00  0.00    +0.000 A 
ATOM     20  N   UNL     1       8.719   5.856  13.473  0.00  0.00    +0.000 N 
ATOM     21  N   UNL     1       7.100   5.335  15.034  0.00  0.00    +0.000 NA
ATOM     22  C   UNL     1       5.938   4.730  15.289  0.00  0.00    +0.000 A 
ATOM     23  N   UNL     1       5.228   4.054  14.392  0.00  0.00    +0.000 NA
ATOM     24  H   UNL     1       9.153   5.409  12.676  0.00  0.00    +0.000 HD
ATOM     25  H   UNL     1       9.287   5.978  14.300  0.00  0.00    +0.000 HD
BRANCH  17  27
ATOM     26  C   UNL     1       6.014   1.865  11.536  0.00  0.00    +0.000 C 
ATOM     27  S   UNL     1       4.826   3.171  11.927  0.00  0.00    +0.000 S 
ENDBRANCH  17  27
ENDBRANCH   1  22
TORSDOF 3
ENDMDL
MODEL 9
REMARK VINA RESULT:      -8.0      3.214      7.942
REMARK  Name = 
REMARK  4 active torsions:
REMARK  status: ('A' for Active; 'I' for Inactive)
REMARK    1  A    between atoms: C_1  and  S_2
REMARK    2  A    between atoms: S_2  and  C_3
REMARK    3  A    between atoms: C_8  and  C_9
REMARK    4  A    between atoms: C_13  and  C_14
REMARK                            x       y       z     vdW  Elec       q    Type
REMARK                         _______ _______ _______ _____ _____    ______ ____
ROOT
ATOM      1  C   UNL     1       4.014   5.057  19.426  0.00  0.00    +0.000 A 
ATOM      2  C   UNL     1       3.283   3.894  19.722  0.00  0.00    +0.000 A 
ATOM      3  C   UNL     1       1.982   3.966  20.216  0.00  0.00    +0.000 A 
ATOM      4  C   UNL     1       1.377   5.208  20.415  0.00  0.00    +0.000 A 
ATOM      5  C   UNL     1       2.059   6.406  20.147  0.00  0.00    +0.000 A 
ATOM      6  C   UNL     1       3.381   6.296  19.670  0.00  0.00    +0.000 A 
ENDROOT
BRANCH   5   7
ATOM      7  C   UNL     1       1.413   7.729  20.335  0.00  0.00    +0.000 A 
ATOM      8  C   UNL     1       0.684   8.031  21.501  0.00  0.00    +0.000 A 
ATOM      9  C   UNL     1       0.072   9.275  21.714  0.00  0.00    +0.000 A 
ATOM     10  C   UNL     1       0.228  10.245  20.724  0.00  0.00    +0.000 A 
ATOM     11  N   UNL     1      -0.230  11.542  20.663  0.00  0.00    +0.000 N 
ATOM     12  C   UNL     1       0.180  12.134  19.499  0.00  0.00    +0.000 A 
ATOM     13  C   UNL     1       0.905  11.207  18.787  0.00  0.00    +0.000 A 
ATOM     14  C   UNL     1       0.942  10.009  19.552  0.00  0.00    +0.000 A 
ATOM     15  C   UNL     1       1.524   8.739  19.356  0.00  0.00    +0.000 A 
ATOM     16  H   UNL     1      -0.780  11.988  21.383  0.00  0.00    +0.000 HD
ENDBRANCH   5   7
BRANCH   1  22
ATOM     17  C   UNL     1       6.743   4.812  17.101  0.00  0.00    +0.000 A 
ATOM     18  N   UNL     1       7.830   4.983  17.846  0.00  0.00    +0.000 NA
ATOM     19  C   UNL     1       7.596   5.178  19.130  0.00  0.00    +0.000 A 
ATOM     20  N   UNL     1       8.689   5.378  19.949  0.00  0.00    +0.000 N 
ATOM     21  N   UNL     1       6.403   5.180  19.693  0.00  0.00    +0.000 NA
ATOM     22  C   UNL     1       5.376   4.992  18.860  0.00  0.00    +0.000 A 
ATOM     23  N   UNL     1       5.495   4.797  17.551  0.00  0.00    +0.000 NA
ATOM     24  H   UNL     1       9.518   4.967  19.544  0.00  0.00    +0.000 HD
ATOM     25  H   UNL     1       8.468   5.130  20.903  0.00  0.00    +0.000 HD
BRANCH  17  27
ATOM     26  C   UNL     1       5.219   4.438  14.874  0.00  0.00    +0.000 C 
ATOM     27  S   UNL     1       6.956   4.601  15.350  0.00  0.00    +0.000 S 
ENDBRANCH  17  27
ENDBRANCH   1  22
TORSDOF 3
ENDMDL
