MODEL 1
REMARK VINA RESULT:      -8.6      0.000      0.000
REMARK  Name = 
REMARK  5 active torsions:
REMARK  status: ('A' for Active; 'I' for Inactive)
REMARK    1  A    between atoms: C_2  and  C_3
REMARK    2  A    between atoms: C_3  and  C_4
REMARK    3  A    between atoms: C_7  and  C_8
REMARK    4  A    between atoms: C_18  and  O_19
REMARK    5  A    between atoms: C_18  and  C_20
REMARK                            x       y       z     vdW  Elec       q    Type
REMARK                         _______ _______ _______ _____ _____    ______ ____
ROOT
ATOM      1  O   UNL     1       1.911   6.082  18.030  0.00  0.00    +0.000 OA
ATOM      2  C   UNL     1       2.986   6.684  17.931  0.00  0.00    +0.000 C 
ATOM      3  N   UNL     1       4.189   6.006  17.795  0.00  0.00    +0.000 N 
ATOM      4  C   UNL     1       4.188   4.554  17.643  0.00  0.00    +0.000 C 
ATOM      5  C   UNL     1       4.701   4.185  16.253  0.00  0.00    +0.000 C 
ATOM      6  C   UNL     1       6.080   4.815  15.985  0.00  0.00    +0.000 C 
ATOM      7  C   UNL     1       6.113   6.321  16.322  0.00  0.00    +0.000 C 
ATOM      8  C   UNL     1       5.519   6.607  17.698  0.00  0.00    +0.000 C 
ENDROOT
BRANCH   6   9
ATOM      9  C   UNL     1       6.522   4.584  14.533  0.00  0.00    +0.000 A 
ATOM     10  C   UNL     1       5.886   3.645  13.721  0.00  0.00    +0.000 A 
ATOM     11  C   UNL     1       6.299   3.499  12.398  0.00  0.00    +0.000 A 
ATOM     12  C   UNL     1       7.328   4.294  11.913  0.00  0.00    +0.000 A 
ATOM     13  C   UNL     1       7.915   5.203  12.784  0.00  0.00    +0.000 A 
ATOM     14  N   UNL     1       7.546   5.359  14.077  0.00  0.00    +0.000 NA
ENDBRANCH   6   9
BRANCH   6  15
ATOM     15  O   UNL     1       7.008   4.148  16.865  0.00  0.00    +0.000 OA
ATOM     16  H   UNL     1       6.445   3.694  17.530  0.00  0.00    +0.000 HD
ENDBRANCH   6  15
BRANCH   2  17
ATOM     17  C   UNL     1       2.985   8.203  17.929  0.00  0.00    +0.000 C 
BRANCH  17  18
ATOM     18  C   UNL     1       1.789   8.760  18.624  0.00  0.00    +0.000 A 
ATOM     19  C   UNL     1       1.547   8.737  19.984  0.00  0.00    +0.000 A 
ATOM     20  S   UNL     1       0.032   9.447  20.326  0.00  0.00    +0.000 S 
ATOM     21  C   UNL     1      -0.221   9.729  18.643  0.00  0.00    +0.000 A 
ATOM     22  N   UNL     1       0.765   9.314  17.866  0.00  0.00    +0.000 NA
BRANCH  21  23
ATOM     23  C   UNL     1      -1.480  10.321  18.149  0.00  0.00    +0.000 A 
ATOM     24  C   UNL     1      -2.179  11.319  18.847  0.00  0.00    +0.000 A 
ATOM     25  C   UNL     1      -3.384  11.833  18.353  0.00  0.00    +0.000 A 
ATOM     26  C   UNL     1      -3.905  11.361  17.152  0.00  0.00    +0.000 A 
ATOM     27  C   UNL     1      -3.219  10.383  16.437  0.00  0.00    +0.000 A 
ATOM     28  C   UNL     1      -2.013   9.873  16.929  0.00  0.00    +0.000 A 
ENDBRANCH  21  23
ENDBRANCH  17  18
ENDBRANCH   2  17
TORSDOF 5
ENDMDL
MODEL 2
REMARK VINA RESULT:      -8.5      1.029      1.661
REMARK  Name = 
REMARK  5 active torsions:
REMARK  status: ('A' for Active; 'I' for Inactive)
REMARK    1  A    between atoms: C_2  and  C_3
REMARK    2  A    between atoms: C_3  and  C_4
REMARK    3  A    between atoms: C_7  and  C_8
REMARK    4  A    between atoms: C_18  and  O_19
REMARK    5  A    between atoms: C_18  and  C_20
REMARK                            x       y       z     vdW  Elec       q    Type
REMARK                         _______ _______ _______ _____ _____    ______ ____
ROOT
ATOM      1  O   UNL     1       1.975   5.692  18.150  0.00  0.00    +0.000 OA
ATOM      2  C   UNL     1       2.996   6.379  18.030  0.00  0.00    +0.000 C 
ATOM      3  N   UNL     1       4.246   5.801  17.862  0.00  0.00    +0.000 N 
ATOM      4  C   UNL     1       4.359   4.355  17.700  0.00  0.00    +0.000 C 
ATOM      5  C   UNL     1       4.867   4.035  16.296  0.00  0.00    +0.000 C 
ATOM      6  C   UNL     1       6.184   4.776  16.000  0.00  0.00    +0.000 C 
ATOM      7  C   UNL     1       6.103   6.278  16.347  0.00  0.00    +0.000 C 
ATOM      8  C   UNL     1       5.521   6.509  17.738  0.00  0.00    +0.000 C 
ENDROOT
BRANCH   6   9
ATOM      9  C   UNL     1       6.608   4.589  14.537  0.00  0.00    +0.000 A 
ATOM     10  C   UNL     1       5.976   3.660  13.710  0.00  0.00    +0.000 A 
ATOM     11  C   UNL     1       6.372   3.554  12.378  0.00  0.00    +0.000 A 
ATOM     12  C   UNL     1       7.381   4.378  11.899  0.00  0.00    +0.000 A 
ATOM     13  C   UNL     1       7.966   5.274  12.785  0.00  0.00    +0.000 A 
ATOM     14  N   UNL     1       7.613   5.392  14.086  0.00  0.00    +0.000 NA
ENDBRANCH   6   9
BRANCH   6  15
ATOM     15  O   UNL     1       7.182   4.182  16.854  0.00  0.00    +0.000 OA
ATOM     16  H   UNL     1       7.244   4.782  17.628  0.00  0.00    +0.000 HD
ENDBRANCH   6  15
BRANCH   2  17
ATOM     17  C   UNL     1       2.872   7.893  18.039  0.00  0.00    +0.000 C 
BRANCH  17  18
ATOM     18  C   UNL     1       1.968   8.372  19.123  0.00  0.00    +0.000 A 
ATOM     19  C   UNL     1       1.861   7.843  20.395  0.00  0.00    +0.000 A 
ATOM     20  S   UNL     1       0.666   8.676  21.284  0.00  0.00    +0.000 S 
ATOM     21  C   UNL     1       0.346   9.683  19.919  0.00  0.00    +0.000 A 
ATOM     22  N   UNL     1       1.086   9.411  18.857  0.00  0.00    +0.000 NA
BRANCH  21  23
ATOM     23  C   UNL     1      -0.722  10.700  19.954  0.00  0.00    +0.000 A 
ATOM     24  C   UNL     1      -1.655  10.863  18.917  0.00  0.00    +0.000 A 
ATOM     25  C   UNL     1      -2.636  11.859  18.981  0.00  0.00    +0.000 A 
ATOM     26  C   UNL     1      -2.703  12.705  20.084  0.00  0.00    +0.000 A 
ATOM     27  C   UNL     1      -1.797  12.550  21.130  0.00  0.00    +0.000 A 
ATOM     28  C   UNL     1      -0.819  11.551  21.067  0.00  0.00    +0.000 A 
ENDBRANCH  21  23
ENDBRANCH  17  18
ENDBRANCH   2  17
TORSDOF 5
ENDMDL
MODEL 3
REMARK VINA RESULT:      -8.3      1.517      1.900
REMARK  Name = 
REMARK  5 active torsions:
REMARK  status: ('A' for Active; 'I' for Inactive)
REMARK    1  A    between atoms: C_2  and  C_3
REMARK    2  A    between atoms: C_3  and  C_4
REMARK    3  A    between atoms: C_7  and  C_8
REMARK    4  A    between atoms: C_18  and  O_19
REMARK    5  A    between atoms: C_18  and  C_20
REMARK                            x       y       z     vdW  Elec       q    Type
REMARK                         _______ _______ _______ _____ _____    ______ ____
ROOT
ATOM      1  O   UNL     1       2.157   5.292  18.501  0.00  0.00    +0.000 OA
ATOM      2  C   UNL     1       2.953   6.175  18.162  0.00  0.00    +0.000 C 
ATOM      3  N   UNL     1       4.294   5.900  17.938  0.00  0.00    +0.000 N 
ATOM      4  C   UNL     1       4.766   4.520  17.983  0.00  0.00    +0.000 C 
ATOM      5  C   UNL     1       5.235   4.094  16.594  0.00  0.00    +0.000 C 
ATOM      6  C   UNL     1       6.289   5.070  16.039  0.00  0.00    +0.000 C 
ATOM      7  C   UNL     1       5.846   6.544  16.165  0.00  0.00    +0.000 C 
ATOM      8  C   UNL     1       5.328   6.864  17.563  0.00  0.00    +0.000 C 
ENDROOT
BRANCH   6   9
ATOM      9  C   UNL     1       6.638   4.741  14.581  0.00  0.00    +0.000 A 
ATOM     10  C   UNL     1       5.928   3.777  13.864  0.00  0.00    +0.000 A 
ATOM     11  C   UNL     1       6.258   3.541  12.531  0.00  0.00    +0.000 A 
ATOM     12  C   UNL     1       7.280   4.272  11.942  0.00  0.00    +0.000 A 
ATOM     13  C   UNL     1       7.944   5.210  12.723  0.00  0.00    +0.000 A 
ATOM     14  N   UNL     1       7.656   5.453  14.022  0.00  0.00    +0.000 NA
ENDBRANCH   6   9
BRANCH   6  15
ATOM     15  O   UNL     1       7.468   4.896  16.851  0.00  0.00    +0.000 OA
ATOM     16  H   UNL     1       7.209   4.245  17.539  0.00  0.00    +0.000 HD
ENDBRANCH   6  15
BRANCH   2  17
ATOM     17  C   UNL     1       2.441   7.591  17.958  0.00  0.00    +0.000 C 
BRANCH  17  18
ATOM     18  C   UNL     1       1.847   8.153  19.205  0.00  0.00    +0.000 A 
ATOM     19  C   UNL     1       1.961   7.627  20.477  0.00  0.00    +0.000 A 
ATOM     20  S   UNL     1       1.081   8.574  21.591  0.00  0.00    +0.000 S 
ATOM     21  C   UNL     1       0.585   9.623  20.313  0.00  0.00    +0.000 A 
ATOM     22  N   UNL     1       1.045   9.284  19.121  0.00  0.00    +0.000 NA
BRANCH  21  23
ATOM     23  C   UNL     1      -0.336  10.749  20.563  0.00  0.00    +0.000 A 
ATOM     24  C   UNL     1      -0.682  11.179  21.855  0.00  0.00    +0.000 A 
ATOM     25  C   UNL     1      -1.580  12.235  22.046  0.00  0.00    +0.000 A 
ATOM     26  C   UNL     1      -2.142  12.881  20.948  0.00  0.00    +0.000 A 
ATOM     27  C   UNL     1      -1.800  12.480  19.660  0.00  0.00    +0.000 A 
ATOM     28  C   UNL     1      -0.899  11.427  19.470  0.00  0.00    +0.000 A 
ENDBRANCH  21  23
ENDBRANCH  17  18
ENDBRANCH   2  17
TORSDOF 5
ENDMDL
MODEL 4
REMARK VINA RESULT:      -8.0      1.790      2.537
REMARK  Name = 
REMARK  5 active torsions:
REMARK  status: ('A' for Active; 'I' for Inactive)
REMARK    1  A    between atoms: C_2  and  C_3
REMARK    2  A    between atoms: C_3  and  C_4
REMARK    3  A    between atoms: C_7  and  C_8
REMARK    4  A    between atoms: C_18  and  O_19
REMARK    5  A    between atoms: C_18  and  C_20
REMARK                            x       y       z     vdW  Elec       q    Type
REMARK                         _______ _______ _______ _____ _____    ______ ____
ROOT
ATOM      1  O   UNL     1       2.057   6.190  18.210  0.00  0.00    +0.000 OA
ATOM      2  C   UNL     1       3.147   6.761  18.092  0.00  0.00    +0.000 C 
ATOM      3  N   UNL     1       4.327   6.050  17.924  0.00  0.00    +0.000 N 
ATOM      4  C   UNL     1       4.280   4.601  17.759  0.00  0.00    +0.000 C 
ATOM      5  C   UNL     1       4.752   4.230  16.355  0.00  0.00    +0.000 C 
ATOM      6  C   UNL     1       6.143   4.822  16.062  0.00  0.00    +0.000 C 
ATOM      7  C   UNL     1       6.227   6.323  16.413  0.00  0.00    +0.000 C 
ATOM      8  C   UNL     1       5.671   6.613  17.804  0.00  0.00    +0.000 C 
ENDROOT
BRANCH   6   9
ATOM      9  C   UNL     1       6.546   4.594  14.599  0.00  0.00    +0.000 A 
ATOM     10  C   UNL     1       5.871   3.675  13.794  0.00  0.00    +0.000 A 
ATOM     11  C   UNL     1       6.250   3.530  12.461  0.00  0.00    +0.000 A 
ATOM     12  C   UNL     1       7.285   4.307  11.959  0.00  0.00    +0.000 A 
ATOM     13  C   UNL     1       7.912   5.196  12.823  0.00  0.00    +0.000 A 
ATOM     14  N   UNL     1       7.576   5.349  14.125  0.00  0.00    +0.000 NA
ENDBRANCH   6   9
BRANCH   6  15
ATOM     15  O   UNL     1       7.069   4.120  16.916  0.00  0.00    +0.000 OA
ATOM     16  H   UNL     1       7.857   3.955  16.354  0.00  0.00    +0.000 HD
ENDBRANCH   6  15
BRANCH   2  17
ATOM     17  C   UNL     1       3.191   8.279  18.105  0.00  0.00    +0.000 C 
BRANCH  17  18
ATOM     18  C   UNL     1       1.845   8.874  18.350  0.00  0.00    +0.000 A 
ATOM     19  C   UNL     1       0.890   9.160  17.395  0.00  0.00    +0.000 A 
ATOM     20  S   UNL     1      -0.479   9.875  18.122  0.00  0.00    +0.000 S 
ATOM     21  C   UNL     1       0.285   9.777  19.666  0.00  0.00    +0.000 A 
ATOM     22  N   UNL     1       1.496   9.245  19.643  0.00  0.00    +0.000 NA
BRANCH  21  23
ATOM     23  C   UNL     1      -0.364  10.319  20.876  0.00  0.00    +0.000 A 
ATOM     24  C   UNL     1      -1.098  11.516  20.875  0.00  0.00    +0.000 A 
ATOM     25  C   UNL     1      -1.675  12.008  22.052  0.00  0.00    +0.000 A 
ATOM     26  C   UNL     1      -1.531  11.307  23.246  0.00  0.00    +0.000 A 
ATOM     27  C   UNL     1      -0.820  10.110  23.264  0.00  0.00    +0.000 A 
ATOM     28  C   UNL     1      -0.248   9.618  22.087  0.00  0.00    +0.000 A 
ENDBRANCH  21  23
ENDBRANCH  17  18
ENDBRANCH   2  17
TORSDOF 5
ENDMDL
MODEL 5
REMARK VINA RESULT:      -7.9      1.736      2.275
REMARK  Name = 
REMARK  5 active torsions:
REMARK  status: ('A' for Active; 'I' for Inactive)
REMARK    1  A    between atoms: C_2  and  C_3
REMARK    2  A    between atoms: C_3  and  C_4
REMARK    3  A    between atoms: C_7  and  C_8
REMARK    4  A    between atoms: C_18  and  O_19
REMARK    5  A    between atoms: C_18  and  C_20
REMARK                            x       y       z     vdW  Elec       q    Type
REMARK                         _______ _______ _______ _____ _____    ______ ____
ROOT
ATOM      1  O   UNL     1       3.627   4.442  19.818  0.00  0.00    +0.000 OA
ATOM      2  C   UNL     1       3.513   5.359  18.997  0.00  0.00    +0.000 C 
ATOM      3  N   UNL     1       4.613   5.883  18.334  0.00  0.00    +0.000 N 
ATOM      4  C   UNL     1       5.925   5.267  18.510  0.00  0.00    +0.000 C 
ATOM      5  C   UNL     1       6.383   4.651  17.190  0.00  0.00    +0.000 C 
ATOM      6  C   UNL     1       6.356   5.690  16.053  0.00  0.00    +0.000 C 
ATOM      7  C   UNL     1       5.020   6.461  15.995  0.00  0.00    +0.000 C 
ATOM      8  C   UNL     1       4.603   6.981  17.367  0.00  0.00    +0.000 C 
ENDROOT
BRANCH   6   9
ATOM      9  C   UNL     1       6.654   5.037  14.697  0.00  0.00    +0.000 A 
ATOM     10  C   UNL     1       5.836   4.032  14.179  0.00  0.00    +0.000 A 
ATOM     11  C   UNL     1       6.126   3.497  12.926  0.00  0.00    +0.000 A 
ATOM     12  C   UNL     1       7.218   3.976  12.217  0.00  0.00    +0.000 A 
ATOM     13  C   UNL     1       7.988   4.974  12.801  0.00  0.00    +0.000 A 
ATOM     14  N   UNL     1       7.740   5.505  14.020  0.00  0.00    +0.000 NA
ENDBRANCH   6   9
BRANCH   6  15
ATOM     15  O   UNL     1       7.398   6.642  16.351  0.00  0.00    +0.000 OA
ATOM     16  H   UNL     1       7.994   6.178  16.979  0.00  0.00    +0.000 HD
ENDBRANCH   6  15
BRANCH   2  17
ATOM     17  C   UNL     1       2.130   5.904  18.687  0.00  0.00    +0.000 C 
BRANCH  17  18
ATOM     18  C   UNL     1       1.835   7.147  19.456  0.00  0.00    +0.000 A 
ATOM     19  C   UNL     1       1.851   7.283  20.830  0.00  0.00    +0.000 A 
ATOM     20  S   UNL     1       1.405   8.870  21.273  0.00  0.00    +0.000 S 
ATOM     21  C   UNL     1       1.201   9.282  19.610  0.00  0.00    +0.000 A 
ATOM     22  N   UNL     1       1.447   8.291  18.769  0.00  0.00    +0.000 NA
BRANCH  21  23
ATOM     23  C   UNL     1       0.721  10.617  19.206  0.00  0.00    +0.000 A 
ATOM     24  C   UNL     1      -0.626  10.888  18.915  0.00  0.00    +0.000 A 
ATOM     25  C   UNL     1      -1.033  12.164  18.511  0.00  0.00    +0.000 A 
ATOM     26  C   UNL     1      -0.101  13.192  18.396  0.00  0.00    +0.000 A 
ATOM     27  C   UNL     1       1.237  12.948  18.695  0.00  0.00    +0.000 A 
ATOM     28  C   UNL     1       1.642  11.673  19.103  0.00  0.00    +0.000 A 
ENDBRANCH  21  23
ENDBRANCH  17  18
ENDBRANCH   2  17
TORSDOF 5
ENDMDL
MODEL 6
REMARK VINA RESULT:      -7.8      0.611      1.325
REMARK  Name = 
REMARK  5 active torsions:
REMARK  status: ('A' for Active; 'I' for Inactive)
REMARK    1  A    between atoms: C_2  and  C_3
REMARK    2  A    between atoms: C_3  and  C_4
REMARK    3  A    between atoms: C_7  and  C_8
REMARK    4  A    between atoms: C_18  and  O_19
REMARK    5  A    between atoms: C_18  and  C_20
REMARK                            x       y       z     vdW  Elec       q    Type
REMARK                         _______ _______ _______ _____ _____    ______ ____
ROOT
ATOM      1  O   UNL     1       1.855   6.074  18.066  0.00  0.00    +0.000 OA
ATOM      2  C   UNL     1       2.923   6.680  17.922  0.00  0.00    +0.000 C 
ATOM      3  N   UNL     1       4.125   6.008  17.760  0.00  0.00    +0.000 N 
ATOM      4  C   UNL     1       4.129   4.554  17.634  0.00  0.00    +0.000 C 
ATOM      5  C   UNL     1       4.600   4.162  16.235  0.00  0.00    +0.000 C 
ATOM      6  C   UNL     1       5.966   4.796  15.911  0.00  0.00    +0.000 C 
ATOM      7  C   UNL     1       5.999   6.308  16.221  0.00  0.00    +0.000 C 
ATOM      8  C   UNL     1       5.448   6.616  17.610  0.00  0.00    +0.000 C 
ENDROOT
BRANCH   6   9
ATOM      9  C   UNL     1       6.363   4.543  14.451  0.00  0.00    +0.000 A 
ATOM     10  C   UNL     1       7.431   5.219  13.860  0.00  0.00    +0.000 A 
ATOM     11  C   UNL     1       7.777   4.926  12.543  0.00  0.00    +0.000 A 
ATOM     12  C   UNL     1       7.057   3.965  11.847  0.00  0.00    +0.000 A 
ATOM     13  C   UNL     1       6.004   3.339  12.501  0.00  0.00    +0.000 A 
ATOM     14  N   UNL     1       5.635   3.610  13.774  0.00  0.00    +0.000 NA
ENDBRANCH   6   9
BRANCH   6  15
ATOM     15  O   UNL     1       6.925   4.151  16.774  0.00  0.00    +0.000 OA
ATOM     16  H   UNL     1       7.792   4.536  16.522  0.00  0.00    +0.000 HD
ENDBRANCH   6  15
BRANCH   2  17
ATOM     17  C   UNL     1       2.912   8.199  17.894  0.00  0.00    +0.000 C 
BRANCH  17  18
ATOM     18  C   UNL     1       1.761   8.762  18.657  0.00  0.00    +0.000 A 
ATOM     19  C   UNL     1       1.599   8.744  20.028  0.00  0.00    +0.000 A 
ATOM     20  S   UNL     1       0.110   9.460  20.458  0.00  0.00    +0.000 S 
ATOM     21  C   UNL     1      -0.242   9.739  18.792  0.00  0.00    +0.000 A 
ATOM     22  N   UNL     1       0.695   9.318  17.959  0.00  0.00    +0.000 NA
BRANCH  21  23
ATOM     23  C   UNL     1      -1.525  10.333  18.371  0.00  0.00    +0.000 A 
ATOM     24  C   UNL     1      -2.263   9.859  17.274  0.00  0.00    +0.000 A 
ATOM     25  C   UNL     1      -3.464  10.470  16.895  0.00  0.00    +0.000 A 
ATOM     26  C   UNL     1      -3.948  11.562  17.610  0.00  0.00    +0.000 A 
ATOM     27  C   UNL     1      -3.240  12.038  18.710  0.00  0.00    +0.000 A 
ATOM     28  C   UNL     1      -2.042  11.423  19.091  0.00  0.00    +0.000 A 
ENDBRANCH  21  23
ENDBRANCH  17  18
ENDBRANCH   2  17
TORSDOF 5
ENDMDL
MODEL 7
REMARK VINA RESULT:      -7.6      1.562      2.267
REMARK  Name = 
REMARK  5 active torsions:
REMARK  status: ('A' for Active; 'I' for Inactive)
REMARK    1  A    between atoms: C_2  and  C_3
REMARK    2  A    between atoms: C_3  and  C_4
REMARK    3  A    between atoms: C_7  and  C_8
REMARK    4  A    between atoms: C_18  and  O_19
REMARK    5  A    between atoms: C_18  and  C_20
REMARK                            x       y       z     vdW  Elec       q    Type
REMARK                         _______ _______ _______ _____ _____    ______ ____
ROOT
ATOM      1  O   UNL     1       2.129   5.336  18.460  0.00  0.00    +0.000 OA
ATOM      2  C   UNL     1       2.958   6.187  18.117  0.00  0.00    +0.000 C 
ATOM      3  N   UNL     1       4.279   5.853  17.858  0.00  0.00    +0.000 N 
ATOM      4  C   UNL     1       4.687   4.452  17.868  0.00  0.00    +0.000 C 
ATOM      5  C   UNL     1       5.104   4.029  16.462  0.00  0.00    +0.000 C 
ATOM      6  C   UNL     1       6.189   4.965  15.899  0.00  0.00    +0.000 C 
ATOM      7  C   UNL     1       5.820   6.455  16.060  0.00  0.00    +0.000 C 
ATOM      8  C   UNL     1       5.349   6.775  17.475  0.00  0.00    +0.000 C 
ENDROOT
BRANCH   6   9
ATOM      9  C   UNL     1       6.490   4.646  14.429  0.00  0.00    +0.000 A 
ATOM     10  C   UNL     1       7.515   5.294  13.739  0.00  0.00    +0.000 A 
ATOM     11  C   UNL     1       7.774   4.942  12.416  0.00  0.00    +0.000 A 
ATOM     12  C   UNL     1       7.012   3.951  11.813  0.00  0.00    +0.000 A 
ATOM     13  C   UNL     1       6.005   3.355  12.563  0.00  0.00    +0.000 A 
ATOM     14  N   UNL     1       5.721   3.684  13.844  0.00  0.00    +0.000 NA
ENDBRANCH   6   9
BRANCH   6  15
ATOM     15  O   UNL     1       7.377   4.721  16.681  0.00  0.00    +0.000 OA
ATOM     16  H   UNL     1       7.903   4.084  16.152  0.00  0.00    +0.000 HD
ENDBRANCH   6  15
BRANCH   2  17
ATOM     17  C   UNL     1       2.509   7.628  17.950  0.00  0.00    +0.000 C 
BRANCH  17  18
ATOM     18  C   UNL     1       1.875   8.163  19.189  0.00  0.00    +0.000 A 
ATOM     19  C   UNL     1       1.952   7.610  20.452  0.00  0.00    +0.000 A 
ATOM     20  S   UNL     1       1.034   8.531  21.558  0.00  0.00    +0.000 S 
ATOM     21  C   UNL     1       0.574   9.605  20.288  0.00  0.00    +0.000 A 
ATOM     22  N   UNL     1       1.072   9.293  19.103  0.00  0.00    +0.000 NA
BRANCH  21  23
ATOM     23  C   UNL     1      -0.358  10.722  20.533  0.00  0.00    +0.000 A 
ATOM     24  C   UNL     1      -1.147  11.293  19.521  0.00  0.00    +0.000 A 
ATOM     25  C   UNL     1      -1.999  12.370  19.793  0.00  0.00    +0.000 A 
ATOM     26  C   UNL     1      -2.079  12.889  21.083  0.00  0.00    +0.000 A 
ATOM     27  C   UNL     1      -1.317  12.326  22.103  0.00  0.00    +0.000 A 
ATOM     28  C   UNL     1      -0.470  11.248  21.831  0.00  0.00    +0.000 A 
ENDBRANCH  21  23
ENDBRANCH  17  18
ENDBRANCH   2  17
TORSDOF 5
ENDMDL
MODEL 8
REMARK VINA RESULT:      -7.6      7.362      8.904
REMARK  Name = 
REMARK  5 active torsions:
REMARK  status: ('A' for Active; 'I' for Inactive)
REMARK    1  A    between atoms: C_2  and  C_3
REMARK    2  A    between atoms: C_3  and  C_4
REMARK    3  A    between atoms: C_7  and  C_8
REMARK    4  A    between atoms: C_18  and  O_19
REMARK    5  A    between atoms: C_18  and  C_20
REMARK                            x       y       z     vdW  Elec       q    Type
REMARK                         _______ _______ _______ _____ _____    ______ ____
ROOT
ATOM      1  O   UNL     1      -0.898  10.662  23.417  0.00  0.00    +0.000 OA
ATOM      2  C   UNL     1      -0.956  11.693  22.738  0.00  0.00    +0.000 C 
ATOM      3  N   UNL     1      -0.491  11.732  21.431  0.00  0.00    +0.000 N 
ATOM      4  C   UNL     1      -0.032  10.504  20.791  0.00  0.00    +0.000 C 
ATOM      5  C   UNL     1      -0.968  10.146  19.639  0.00  0.00    +0.000 C 
ATOM      6  C   UNL     1      -1.108  11.320  18.653  0.00  0.00    +0.000 C 
ATOM      7  C   UNL     1      -1.419  12.653  19.367  0.00  0.00    +0.000 C 
ATOM      8  C   UNL     1      -0.482  12.897  20.546  0.00  0.00    +0.000 C 
ENDROOT
BRANCH   6   9
ATOM      9  C   UNL     1      -2.173  11.026  17.588  0.00  0.00    +0.000 A 
ATOM     10  C   UNL     1      -3.424  11.643  17.621  0.00  0.00    +0.000 A 
ATOM     11  C   UNL     1      -4.344  11.372  16.610  0.00  0.00    +0.000 A 
ATOM     12  C   UNL     1      -3.996  10.499  15.589  0.00  0.00    +0.000 A 
ATOM     13  C   UNL     1      -2.734   9.920  15.627  0.00  0.00    +0.000 A 
ATOM     14  N   UNL     1      -1.825  10.153  16.601  0.00  0.00    +0.000 NA
ENDBRANCH   6   9
BRANCH   6  15
ATOM     15  O   UNL     1       0.173  11.459  18.004  0.00  0.00    +0.000 OA
ATOM     16  H   UNL     1       0.389  12.414  18.071  0.00  0.00    +0.000 HD
ENDBRANCH   6  15
BRANCH   2  17
ATOM     17  C   UNL     1      -1.578  12.941  23.342  0.00  0.00    +0.000 C 
BRANCH  17  18
ATOM     18  C   UNL     1      -3.057  12.973  23.156  0.00  0.00    +0.000 A 
ATOM     19  C   UNL     1      -4.008  12.988  24.157  0.00  0.00    +0.000 A 
ATOM     20  S   UNL     1      -5.577  12.976  23.483  0.00  0.00    +0.000 S 
ATOM     21  C   UNL     1      -4.899  12.934  21.896  0.00  0.00    +0.000 A 
ATOM     22  N   UNL     1      -3.577  12.925  21.868  0.00  0.00    +0.000 NA
BRANCH  21  23
ATOM     23  C   UNL     1      -5.759  12.842  20.701  0.00  0.00    +0.000 A 
ATOM     24  C   UNL     1      -5.983  13.927  19.837  0.00  0.00    +0.000 A 
ATOM     25  C   UNL     1      -6.828  13.803  18.728  0.00  0.00    +0.000 A 
ATOM     26  C   UNL     1      -7.457  12.590  18.462  0.00  0.00    +0.000 A 
ATOM     27  C   UNL     1      -7.236  11.498  19.297  0.00  0.00    +0.000 A 
ATOM     28  C   UNL     1      -6.388  11.623  20.403  0.00  0.00    +0.000 A 
ENDBRANCH  21  23
ENDBRANCH  17  18
ENDBRANCH   2  17
TORSDOF 5
ENDMDL
MODEL 9
REMARK VINA RESULT:      -7.5      6.472      9.249
REMARK  Name = 
REMARK  5 active torsions:
REMARK  status: ('A' for Active; 'I' for Inactive)
REMARK    1  A    between atoms: C_2  and  C_3
REMARK    2  A    between atoms: C_3  and  C_4
REMARK    3  A    between atoms: C_7  and  C_8
REMARK    4  A    between atoms: C_18  and  O_19
REMARK    5  A    between atoms: C_18  and  C_20
REMARK                            x       y       z     vdW  Elec       q    Type
REMARK                         _______ _______ _______ _____ _____    ______ ____
ROOT
ATOM      1  O   UNL     1      -5.208  12.308  23.223  0.00  0.00    +0.000 OA
ATOM      2  C   UNL     1      -4.620  13.006  22.390  0.00  0.00    +0.000 C 
ATOM      3  N   UNL     1      -3.241  13.155  22.408  0.00  0.00    +0.000 N 
ATOM      4  C   UNL     1      -2.442  12.381  23.353  0.00  0.00    +0.000 C 
ATOM      5  C   UNL     1      -1.559  11.396  22.590  0.00  0.00    +0.000 C 
ATOM      6  C   UNL     1      -0.704  12.120  21.534  0.00  0.00    +0.000 C 
ATOM      7  C   UNL     1      -1.540  13.075  20.656  0.00  0.00    +0.000 C 
ATOM      8  C   UNL     1      -2.443  13.974  21.495  0.00  0.00    +0.000 C 
ENDROOT
BRANCH   6   9
ATOM      9  C   UNL     1       0.058  11.118  20.656  0.00  0.00    +0.000 A 
ATOM     10  C   UNL     1       0.453   9.873  21.148  0.00  0.00    +0.000 A 
ATOM     11  C   UNL     1       1.108   8.983  20.300  0.00  0.00    +0.000 A 
ATOM     12  C   UNL     1       1.351   9.349  18.983  0.00  0.00    +0.000 A 
ATOM     13  C   UNL     1       0.933  10.607  18.569  0.00  0.00    +0.000 A 
ATOM     14  N   UNL     1       0.306  11.498  19.371  0.00  0.00    +0.000 NA
ENDBRANCH   6   9
BRANCH   6  15
ATOM     15  O   UNL     1       0.250  12.918  22.265  0.00  0.00    +0.000 OA
ATOM     16  H   UNL     1       0.320  13.757  21.758  0.00  0.00    +0.000 HD
ENDBRANCH   6  15
BRANCH   2  17
ATOM     17  C   UNL     1      -5.427  13.694  21.302  0.00  0.00    +0.000 C 
BRANCH  17  18
ATOM     18  C   UNL     1      -5.691  12.788  20.147  0.00  0.00    +0.000 A 
ATOM     19  C   UNL     1      -6.902  12.211  19.819  0.00  0.00    +0.000 A 
ATOM     20  S   UNL     1      -6.727  11.211  18.446  0.00  0.00    +0.000 S 
ATOM     21  C   UNL     1      -5.046  11.592  18.376  0.00  0.00    +0.000 A 
ATOM     22  N   UNL     1      -4.634  12.415  19.326  0.00  0.00    +0.000 NA
BRANCH  21  23
ATOM     23  C   UNL     1      -4.163  10.972  17.369  0.00  0.00    +0.000 A 
ATOM     24  C   UNL     1      -4.471  10.944  15.999  0.00  0.00    +0.000 A 
ATOM     25  C   UNL     1      -3.616  10.322  15.082  0.00  0.00    +0.000 A 
ATOM     26  C   UNL     1      -2.438   9.722  15.519  0.00  0.00    +0.000 A 
ATOM     27  C   UNL     1      -2.108   9.753  16.871  0.00  0.00    +0.000 A 
ATOM     28  C   UNL     1      -2.961  10.379  17.786  0.00  0.00    +0.000 A 
ENDBRANCH  21  23
ENDBRANCH  17  18
ENDBRANCH   2  17
TORSDOF 5
ENDMDL
