MODEL 1
REMARK VINA RESULT:      -6.0      0.000      0.000
REMARK  Name = 
REMARK  5 active torsions:
REMARK  status: ('A' for Active; 'I' for Inactive)
REMARK    1  A    between atoms: C_1  and  N_2
REMARK    2  A    between atoms: N_2  and  C_3
REMARK    3  A    between atoms: N_2  and  C_4
REMARK    4  A    between atoms: N_6  and  C_7
REMARK    5  A    between atoms: C_12  and  C_13
REMARK                            x       y       z     vdW  Elec       q    Type
REMARK                         _______ _______ _______ _____ _____    ______ ____
ROOT
ATOM      1  C   UNL     1       5.487   4.451  17.243  0.00  0.00    +0.000 A 
ATOM      2  N   UNL     1       4.913   4.076  16.068  0.00  0.00    +0.000 NA
ATOM      3  C   UNL     1       5.689   4.124  14.956  0.00  0.00    +0.000 A 
ATOM      4  C   UNL     1       7.008   4.525  14.980  0.00  0.00    +0.000 A 
ATOM      5  N   UNL     1       7.616   4.896  16.125  0.00  0.00    +0.000 NA
ATOM      6  C   UNL     1       6.840   4.845  17.246  0.00  0.00    +0.000 A 
ENDROOT
BRANCH   1   9
ATOM      7  C   UNL     1       3.022   3.670  19.380  0.00  0.00    +0.000 C 
ATOM      8  C   UNL     1       3.426   4.970  18.661  0.00  0.00    +0.000 C 
ATOM      9  N   UNL     1       4.712   4.396  18.414  0.00  0.00    +0.000 N 
ATOM     10  C   UNL     1       4.527   3.325  19.349  0.00  0.00    +0.000 C 
BRANCH   7  12
ATOM     11  C   UNL     1       1.293   4.718  20.701  0.00  0.00    +0.000 C 
ATOM     12  N   UNL     1       2.542   3.946  20.758  0.00  0.00    +0.000 NA
ATOM     13  C   UNL     1       2.271   2.669  21.427  0.00  0.00    +0.000 C 
ENDBRANCH   7  12
ENDBRANCH   1   9
BRANCH   6  14
ATOM     14  C   UNL     1       7.538   5.187  18.452  0.00  0.00    +0.000 C 
ATOM     15  N   UNL     1       8.092   5.458  19.439  0.00  0.00    +0.000 NA
ENDBRANCH   6  14
TORSDOF 3
ENDMDL
MODEL 2
REMARK VINA RESULT:      -5.7      0.620      1.306
REMARK  Name = 
REMARK  5 active torsions:
REMARK  status: ('A' for Active; 'I' for Inactive)
REMARK    1  A    between atoms: C_1  and  N_2
REMARK    2  A    between atoms: N_2  and  C_3
REMARK    3  A    between atoms: N_2  and  C_4
REMARK    4  A    between atoms: N_6  and  C_7
REMARK    5  A    between atoms: C_12  and  C_13
REMARK                            x       y       z     vdW  Elec       q    Type
REMARK                         _______ _______ _______ _____ _____    ______ ____
ROOT
ATOM      1  C   UNL     1       5.204   4.340  16.860  0.00  0.00    +0.000 A 
ATOM      2  N   UNL     1       5.018   4.042  15.546  0.00  0.00    +0.000 NA
ATOM      3  C   UNL     1       6.043   4.310  14.698  0.00  0.00    +0.000 A 
ATOM      4  C   UNL     1       7.238   4.857  15.118  0.00  0.00    +0.000 A 
ATOM      5  N   UNL     1       7.465   5.159  16.412  0.00  0.00    +0.000 NA
ATOM      6  C   UNL     1       6.438   4.887  17.268  0.00  0.00    +0.000 A 
ENDROOT
BRANCH   1   9
ATOM      7  C   UNL     1       3.479   4.077  19.725  0.00  0.00    +0.000 C 
ATOM      8  C   UNL     1       4.111   3.046  18.773  0.00  0.00    +0.000 C 
ATOM      9  N   UNL     1       4.165   4.058  17.764  0.00  0.00    +0.000 N 
ATOM     10  C   UNL     1       3.284   4.946  18.463  0.00  0.00    +0.000 C 
BRANCH   7  12
ATOM     11  C   UNL     1       2.430   2.794  21.482  0.00  0.00    +0.000 C 
ATOM     12  N   UNL     1       2.187   3.586  20.267  0.00  0.00    +0.000 NA
ATOM     13  C   UNL     1       1.355   4.741  20.623  0.00  0.00    +0.000 C 
ENDBRANCH   7  12
ENDBRANCH   1   9
BRANCH   6  14
ATOM     14  C   UNL     1       6.738   5.163  18.643  0.00  0.00    +0.000 C 
ATOM     15  N   UNL     1       6.997   5.394  19.755  0.00  0.00    +0.000 NA
ENDBRANCH   6  14
TORSDOF 3
ENDMDL
MODEL 3
REMARK VINA RESULT:      -5.4      1.683      5.554
REMARK  Name = 
REMARK  5 active torsions:
REMARK  status: ('A' for Active; 'I' for Inactive)
REMARK    1  A    between atoms: C_1  and  N_2
REMARK    2  A    between atoms: N_2  and  C_3
REMARK    3  A    between atoms: N_2  and  C_4
REMARK    4  A    between atoms: N_6  and  C_7
REMARK    5  A    between atoms: C_12  and  C_13
REMARK                            x       y       z     vdW  Elec       q    Type
REMARK                         _______ _______ _______ _____ _____    ______ ____
ROOT
ATOM      1  C   UNL     1       3.299   3.812  19.566  0.00  0.00    +0.000 A 
ATOM      2  N   UNL     1       2.165   4.527  19.335  0.00  0.00    +0.000 NA
ATOM      3  C   UNL     1       1.048   4.151  20.008  0.00  0.00    +0.000 A 
ATOM      4  C   UNL     1       1.029   3.098  20.899  0.00  0.00    +0.000 A 
ATOM      5  N   UNL     1       2.134   2.371  21.162  0.00  0.00    +0.000 NA
ATOM      6  C   UNL     1       3.260   2.749  20.490  0.00  0.00    +0.000 A 
ENDROOT
BRANCH   1   9
ATOM      7  C   UNL     1       5.441   5.544  17.651  0.00  0.00    +0.000 C 
ATOM      8  C   UNL     1       4.743   4.181  17.490  0.00  0.00    +0.000 C 
ATOM      9  N   UNL     1       4.476   4.189  18.895  0.00  0.00    +0.000 N 
ATOM     10  C   UNL     1       5.392   5.257  19.168  0.00  0.00    +0.000 C 
BRANCH   7  12
ATOM     11  C   UNL     1       6.801   5.175  15.689  0.00  0.00    +0.000 C 
ATOM     12  N   UNL     1       6.828   5.502  17.122  0.00  0.00    +0.000 NA
ATOM     13  C   UNL     1       7.435   6.828  17.285  0.00  0.00    +0.000 C 
ENDBRANCH   7  12
ENDBRANCH   1   9
BRANCH   6  14
ATOM     14  C   UNL     1       4.427   1.993  20.841  0.00  0.00    +0.000 C 
ATOM     15  N   UNL     1       5.375   1.387  21.142  0.00  0.00    +0.000 NA
ENDBRANCH   6  14
TORSDOF 3
ENDMDL
MODEL 4
REMARK VINA RESULT:      -5.4      1.618      5.630
REMARK  Name = 
REMARK  5 active torsions:
REMARK  status: ('A' for Active; 'I' for Inactive)
REMARK    1  A    between atoms: C_1  and  N_2
REMARK    2  A    between atoms: N_2  and  C_3
REMARK    3  A    between atoms: N_2  and  C_4
REMARK    4  A    between atoms: N_6  and  C_7
REMARK    5  A    between atoms: C_12  and  C_13
REMARK                            x       y       z     vdW  Elec       q    Type
REMARK                         _______ _______ _______ _____ _____    ______ ____
ROOT
ATOM      1  C   UNL     1       3.161   3.392  19.589  0.00  0.00    +0.000 A 
ATOM      2  N   UNL     1       2.019   4.114  19.433  0.00  0.00    +0.000 NA
ATOM      3  C   UNL     1       1.069   3.987  20.395  0.00  0.00    +0.000 A 
ATOM      4  C   UNL     1       1.225   3.175  21.499  0.00  0.00    +0.000 A 
ATOM      5  N   UNL     1       2.346   2.451  21.694  0.00  0.00    +0.000 NA
ATOM      6  C   UNL     1       3.304   2.579  20.731  0.00  0.00    +0.000 A 
ENDROOT
BRANCH   1   9
ATOM      7  C   UNL     1       4.914   4.534  16.967  0.00  0.00    +0.000 C 
ATOM      8  C   UNL     1       4.091   3.257  17.213  0.00  0.00    +0.000 C 
ATOM      9  N   UNL     1       4.169   3.516  18.617  0.00  0.00    +0.000 N 
ATOM     10  C   UNL     1       5.207   4.495  18.483  0.00  0.00    +0.000 C 
BRANCH   7  12
ATOM     11  C   UNL     1       5.761   4.151  14.737  0.00  0.00    +0.000 C 
ATOM     12  N   UNL     1       6.126   4.244  16.159  0.00  0.00    +0.000 NA
ATOM     13  C   UNL     1       7.078   5.348  16.323  0.00  0.00    +0.000 C 
ENDBRANCH   7  12
ENDBRANCH   1   9
BRANCH   6  14
ATOM     14  C   UNL     1       4.504   1.843  21.005  0.00  0.00    +0.000 C 
ATOM     15  N   UNL     1       5.470   1.233  21.233  0.00  0.00    +0.000 NA
ENDBRANCH   6  14
TORSDOF 3
ENDMDL
MODEL 5
REMARK VINA RESULT:      -5.4      1.290      1.656
REMARK  Name = 
REMARK  5 active torsions:
REMARK  status: ('A' for Active; 'I' for Inactive)
REMARK    1  A    between atoms: C_1  and  N_2
REMARK    2  A    between atoms: N_2  and  C_3
REMARK    3  A    between atoms: N_2  and  C_4
REMARK    4  A    between atoms: N_6  and  C_7
REMARK    5  A    between atoms: C_12  and  C_13
REMARK                            x       y       z     vdW  Elec       q    Type
REMARK                         _______ _______ _______ _____ _____    ______ ____
ROOT
ATOM      1  C   UNL     1       5.056   4.480  16.359  0.00  0.00    +0.000 A 
ATOM      2  N   UNL     1       5.079   4.313  15.010  0.00  0.00    +0.000 NA
ATOM      3  C   UNL     1       6.267   4.505  14.381  0.00  0.00    +0.000 A 
ATOM      4  C   UNL     1       7.421   4.851  15.052  0.00  0.00    +0.000 A 
ATOM      5  N   UNL     1       7.442   5.018  16.390  0.00  0.00    +0.000 NA
ATOM      6  C   UNL     1       6.250   4.822  17.025  0.00  0.00    +0.000 A 
ENDROOT
BRANCH   1   9
ATOM      7  C   UNL     1       2.857   4.009  18.848  0.00  0.00    +0.000 C 
ATOM      8  C   UNL     1       3.396   3.102  17.728  0.00  0.00    +0.000 C 
ATOM      9  N   UNL     1       3.843   4.272  17.039  0.00  0.00    +0.000 N 
ATOM     10  C   UNL     1       3.076   5.169  17.852  0.00  0.00    +0.000 C 
BRANCH   7  12
ATOM     11  C   UNL     1       1.152   2.309  19.048  0.00  0.00    +0.000 C 
ATOM     12  N   UNL     1       1.415   3.755  19.099  0.00  0.00    +0.000 NA
ATOM     13  C   UNL     1       1.077   4.243  20.440  0.00  0.00    +0.000 C 
ENDBRANCH   7  12
ENDBRANCH   1   9
BRANCH   6  14
ATOM     14  C   UNL     1       6.325   4.947  18.452  0.00  0.00    +0.000 C 
ATOM     15  N   UNL     1       6.371   5.042  19.612  0.00  0.00    +0.000 NA
ENDBRANCH   6  14
TORSDOF 3
ENDMDL
MODEL 6
REMARK VINA RESULT:      -5.3      1.938      5.105
REMARK  Name = 
REMARK  5 active torsions:
REMARK  status: ('A' for Active; 'I' for Inactive)
REMARK    1  A    between atoms: C_1  and  N_2
REMARK    2  A    between atoms: N_2  and  C_3
REMARK    3  A    between atoms: N_2  and  C_4
REMARK    4  A    between atoms: N_6  and  C_7
REMARK    5  A    between atoms: C_12  and  C_13
REMARK                            x       y       z     vdW  Elec       q    Type
REMARK                         _______ _______ _______ _____ _____    ______ ____
ROOT
ATOM      1  C   UNL     1       3.504   3.753  18.563  0.00  0.00    +0.000 A 
ATOM      2  N   UNL     1       2.450   4.267  17.874  0.00  0.00    +0.000 NA
ATOM      3  C   UNL     1       1.242   3.678  18.059  0.00  0.00    +0.000 A 
ATOM      4  C   UNL     1       1.054   2.606  18.907  0.00  0.00    +0.000 A 
ATOM      5  N   UNL     1       2.071   2.074  19.614  0.00  0.00    +0.000 NA
ATOM      6  C   UNL     1       3.286   2.666  19.433  0.00  0.00    +0.000 A 
ENDROOT
BRANCH   1   9
ATOM      7  C   UNL     1       5.865   6.057  17.949  0.00  0.00    +0.000 C 
ATOM      8  C   UNL     1       5.397   4.796  17.199  0.00  0.00    +0.000 C 
ATOM      9  N   UNL     1       4.766   4.353  18.403  0.00  0.00    +0.000 N 
ATOM     10  C   UNL     1       5.446   5.305  19.232  0.00  0.00    +0.000 C 
BRANCH   7  12
ATOM     11  C   UNL     1       7.657   7.606  17.480  0.00  0.00    +0.000 C 
ATOM     12  N   UNL     1       7.338   6.221  17.856  0.00  0.00    +0.000 NA
ATOM     13  C   UNL     1       7.927   5.948  19.171  0.00  0.00    +0.000 C 
ENDBRANCH   7  12
ENDBRANCH   1   9
BRANCH   6  14
ATOM     14  C   UNL     1       4.329   2.113  20.248  0.00  0.00    +0.000 C 
ATOM     15  N   UNL     1       5.181   1.679  20.913  0.00  0.00    +0.000 NA
ENDBRANCH   6  14
TORSDOF 3
ENDMDL
MODEL 7
REMARK VINA RESULT:      -5.2      1.891      3.105
REMARK  Name = 
REMARK  5 active torsions:
REMARK  status: ('A' for Active; 'I' for Inactive)
REMARK    1  A    between atoms: C_1  and  N_2
REMARK    2  A    between atoms: N_2  and  C_3
REMARK    3  A    between atoms: N_2  and  C_4
REMARK    4  A    between atoms: N_6  and  C_7
REMARK    5  A    between atoms: C_12  and  C_13
REMARK                            x       y       z     vdW  Elec       q    Type
REMARK                         _______ _______ _______ _____ _____    ______ ____
ROOT
ATOM      1  C   UNL     1       5.749   5.511  18.597  0.00  0.00    +0.000 A 
ATOM      2  N   UNL     1       6.546   5.284  19.676  0.00  0.00    +0.000 NA
ATOM      3  C   UNL     1       7.787   5.833  19.656  0.00  0.00    +0.000 A 
ATOM      4  C   UNL     1       8.250   6.598  18.606  0.00  0.00    +0.000 A 
ATOM      5  N   UNL     1       7.488   6.854  17.523  0.00  0.00    +0.000 NA
ATOM      6  C   UNL     1       6.238   6.306  17.542  0.00  0.00    +0.000 A 
ENDROOT
BRANCH   1   9
ATOM      7  C   UNL     1       3.047   3.753  19.528  0.00  0.00    +0.000 C 
ATOM      8  C   UNL     1       4.052   3.614  18.370  0.00  0.00    +0.000 C 
ATOM      9  N   UNL     1       4.452   4.967  18.597  0.00  0.00    +0.000 N 
ATOM     10  C   UNL     1       3.325   5.269  19.430  0.00  0.00    +0.000 C 
BRANCH   7  12
ATOM     11  C   UNL     1       1.584   1.968  18.815  0.00  0.00    +0.000 C 
ATOM     12  N   UNL     1       1.671   3.410  19.088  0.00  0.00    +0.000 NA
ATOM     13  C   UNL     1       0.736   3.735  20.171  0.00  0.00    +0.000 C 
ENDBRANCH   7  12
ENDBRANCH   1   9
BRANCH   6  14
ATOM     14  C   UNL     1       5.436   6.650  16.403  0.00  0.00    +0.000 C 
ATOM     15  N   UNL     1       4.795   6.943  15.477  0.00  0.00    +0.000 NA
ENDBRANCH   6  14
TORSDOF 3
ENDMDL
MODEL 8
REMARK VINA RESULT:      -5.1      1.574      5.589
REMARK  Name = 
REMARK  5 active torsions:
REMARK  status: ('A' for Active; 'I' for Inactive)
REMARK    1  A    between atoms: C_1  and  N_2
REMARK    2  A    between atoms: N_2  and  C_3
REMARK    3  A    between atoms: N_2  and  C_4
REMARK    4  A    between atoms: N_6  and  C_7
REMARK    5  A    between atoms: C_12  and  C_13
REMARK                            x       y       z     vdW  Elec       q    Type
REMARK                         _______ _______ _______ _____ _____    ______ ____
ROOT
ATOM      1  C   UNL     1       3.697   3.648  19.521  0.00  0.00    +0.000 A 
ATOM      2  N   UNL     1       3.629   2.527  20.288  0.00  0.00    +0.000 NA
ATOM      3  C   UNL     1       2.803   2.561  21.364  0.00  0.00    +0.000 A 
ATOM      4  C   UNL     1       2.046   3.667  21.692  0.00  0.00    +0.000 A 
ATOM      5  N   UNL     1       2.078   4.793  20.952  0.00  0.00    +0.000 NA
ATOM      6  C   UNL     1       2.905   4.761  19.868  0.00  0.00    +0.000 A 
ENDROOT
BRANCH   1   9
ATOM      7  C   UNL     1       5.163   4.584  16.653  0.00  0.00    +0.000 C 
ATOM      8  C   UNL     1       4.173   3.463  17.017  0.00  0.00    +0.000 C 
ATOM      9  N   UNL     1       4.532   3.636  18.390  0.00  0.00    +0.000 N 
ATOM     10  C   UNL     1       5.694   4.421  18.094  0.00  0.00    +0.000 C 
BRANCH   7  12
ATOM     11  C   UNL     1       5.562   4.228  14.297  0.00  0.00    +0.000 C 
ATOM     12  N   UNL     1       6.148   4.122  15.641  0.00  0.00    +0.000 NA
ATOM     13  C   UNL     1       7.330   4.989  15.704  0.00  0.00    +0.000 C 
ENDBRANCH   7  12
ENDBRANCH   1   9
BRANCH   6  14
ATOM     14  C   UNL     1       2.865   5.954  19.072  0.00  0.00    +0.000 C 
ATOM     15  N   UNL     1       2.847   6.917  18.417  0.00  0.00    +0.000 NA
ENDBRANCH   6  14
TORSDOF 3
ENDMDL
MODEL 9
REMARK VINA RESULT:      -5.1      1.910      2.229
REMARK  Name = 
REMARK  5 active torsions:
REMARK  status: ('A' for Active; 'I' for Inactive)
REMARK    1  A    between atoms: C_1  and  N_2
REMARK    2  A    between atoms: N_2  and  C_3
REMARK    3  A    between atoms: N_2  and  C_4
REMARK    4  A    between atoms: N_6  and  C_7
REMARK    5  A    between atoms: C_12  and  C_13
REMARK                            x       y       z     vdW  Elec       q    Type
REMARK                         _______ _______ _______ _____ _____    ______ ____
ROOT
ATOM      1  C   UNL     1       4.938   4.246  16.625  0.00  0.00    +0.000 A 
ATOM      2  N   UNL     1       5.722   3.412  15.890  0.00  0.00    +0.000 NA
ATOM      3  C   UNL     1       6.510   3.977  14.941  0.00  0.00    +0.000 A 
ATOM      4  C   UNL     1       6.543   5.336  14.708  0.00  0.00    +0.000 A 
ATOM      5  N   UNL     1       5.789   6.197  15.420  0.00  0.00    +0.000 NA
ATOM      6  C   UNL     1       4.998   5.632  16.377  0.00  0.00    +0.000 A 
ENDROOT
BRANCH   1   9
ATOM      7  C   UNL     1       2.835   4.000  19.227  0.00  0.00    +0.000 C 
ATOM      8  C   UNL     1       4.330   3.679  19.041  0.00  0.00    +0.000 C 
ATOM      9  N   UNL     1       4.123   3.690  17.626  0.00  0.00    +0.000 N 
ATOM     10  C   UNL     1       2.694   3.642  17.731  0.00  0.00    +0.000 C 
BRANCH   7  12
ATOM     11  C   UNL     1       2.253   3.440  21.504  0.00  0.00    +0.000 C 
ATOM     12  N   UNL     1       2.177   2.998  20.104  0.00  0.00    +0.000 NA
ATOM     13  C   UNL     1       0.763   2.896  19.724  0.00  0.00    +0.000 C 
ENDBRANCH   7  12
ENDBRANCH   1   9
BRANCH   6  14
ATOM     14  C   UNL     1       4.257   6.584  17.154  0.00  0.00    +0.000 C 
ATOM     15  N   UNL     1       3.642   7.350  17.780  0.00  0.00    +0.000 NA
ENDBRANCH   6  14
TORSDOF 3
ENDMDL
