MODEL 1
REMARK VINA RESULT:      -8.1      0.000      0.000
REMARK  Name = 
REMARK  6 active torsions:
REMARK  status: ('A' for Active; 'I' for Inactive)
REMARK    1  A    between atoms: C_1  and  O_2
REMARK    2  A    between atoms: O_2  and  C_3
REMARK    3  A    between atoms: C_6  and  S_7
REMARK    4  A    between atoms: S_7  and  N_10
REMARK    5  A    between atoms: C_21  and  O_22
REMARK    6  A    between atoms: O_22  and  C_23
REMARK                            x       y       z     vdW  Elec       q    Type
REMARK                         _______ _______ _______ _____ _____    ______ ____
ROOT
ATOM      1  S   UNL     1       2.016   3.949  20.435  0.00  0.00    +0.000 S 
ATOM      2  O   UNL     1       2.452   4.071  21.815  0.00  0.00    +0.000 OA
ATOM      3  O   UNL     1       0.701   3.440  20.090  0.00  0.00    +0.000 OA
ENDROOT
BRANCH   1   4
ATOM      4  N   UNL     1       3.477   2.904  19.371  0.00  0.00    +0.000 N 
ATOM      5  C   UNL     1       4.581   3.614  18.394  0.00  0.00    +0.000 A 
ATOM      6  N   UNL     1       5.654   3.926  19.056  0.00  0.00    +0.000 NA
ATOM      7  O   UNL     1       6.262   4.852  18.311  0.00  0.00    +0.000 OA
ATOM      8  C   UNL     1       6.036   4.589  16.982  0.00  0.00    +0.000 A 
ATOM      9  C   UNL     1       7.102   5.252  16.192  0.00  0.00    +0.000 A 
ATOM     10  C   UNL     1       7.320   5.096  14.849  0.00  0.00    +0.000 A 
ATOM     11  C   UNL     1       6.363   4.326  14.292  0.00  0.00    +0.000 A 
ATOM     12  C   UNL     1       5.230   3.797  15.172  0.00  0.00    +0.000 A 
ATOM     13  C   UNL     1       4.908   3.702  16.703  0.00  0.00    +0.000 A 
ATOM     14  H   UNL     1       4.019   2.702  20.217  0.00  0.00    +0.000 HD
ENDBRANCH   1   4
BRANCH   1  18
ATOM     15  C   UNL     1       1.820   8.723  19.240  0.00  0.00    +0.000 A 
ATOM     16  C   UNL     1       2.161   7.776  18.248  0.00  0.00    +0.000 A 
ATOM     17  C   UNL     1       2.188   6.345  18.522  0.00  0.00    +0.000 A 
ATOM     18  C   UNL     1       1.903   5.835  19.832  0.00  0.00    +0.000 A 
ATOM     19  C   UNL     1       1.571   6.776  20.786  0.00  0.00    +0.000 A 
ATOM     20  C   UNL     1       1.494   8.181  20.510  0.00  0.00    +0.000 A 
BRANCH  15  22
ATOM     21  C   UNL     1       0.324  10.600  18.637  0.00  0.00    +0.000 C 
ATOM     22  O   UNL     1       1.634  10.017  18.774  0.00  0.00    +0.000 OA
ENDBRANCH  15  22
BRANCH  20  23
ATOM     23  O   UNL     1       0.990   8.778  21.643  0.00  0.00    +0.000 OA
ATOM     24  C   UNL     1      -0.400   8.737  21.792  0.00  0.00    +0.000 C 
ENDBRANCH  20  23
ENDBRANCH   1  18
TORSDOF 4
ENDMDL
MODEL 2
REMARK VINA RESULT:      -8.0      3.697      5.428
REMARK  Name = 
REMARK  6 active torsions:
REMARK  status: ('A' for Active; 'I' for Inactive)
REMARK    1  A    between atoms: C_1  and  O_2
REMARK    2  A    between atoms: O_2  and  C_3
REMARK    3  A    between atoms: C_6  and  S_7
REMARK    4  A    between atoms: S_7  and  N_10
REMARK    5  A    between atoms: C_21  and  O_22
REMARK    6  A    between atoms: O_22  and  C_23
REMARK                            x       y       z     vdW  Elec       q    Type
REMARK                         _______ _______ _______ _____ _____    ______ ____
ROOT
ATOM      1  S   UNL     1       1.146   9.983  18.872  0.00  0.00    +0.000 S 
ATOM      2  O   UNL     1       1.958  11.105  18.436  0.00  0.00    +0.000 OA
ATOM      3  O   UNL     1       1.071   9.590  20.267  0.00  0.00    +0.000 OA
ENDROOT
BRANCH   1   4
ATOM      4  N   UNL     1       1.628   8.325  17.699  0.00  0.00    +0.000 N 
ATOM      5  C   UNL     1       2.879   7.316  18.011  0.00  0.00    +0.000 A 
ATOM      6  N   UNL     1       2.507   6.339  18.780  0.00  0.00    +0.000 NA
ATOM      7  O   UNL     1       3.637   5.865  19.308  0.00  0.00    +0.000 OA
ATOM      8  C   UNL     1       4.655   5.988  18.393  0.00  0.00    +0.000 A 
ATOM      9  C   UNL     1       5.717   5.017  18.749  0.00  0.00    +0.000 A 
ATOM     10  C   UNL     1       6.820   4.721  17.993  0.00  0.00    +0.000 A 
ATOM     11  C   UNL     1       6.882   5.512  16.902  0.00  0.00    +0.000 A 
ATOM     12  C   UNL     1       5.803   6.575  16.694  0.00  0.00    +0.000 A 
ATOM     13  C   UNL     1       4.409   6.939  17.310  0.00  0.00    +0.000 A 
ATOM     14  H   UNL     1       0.819   7.792  18.032  0.00  0.00    +0.000 HD
ENDBRANCH   1   4
BRANCH   1  18
ATOM     15  C   UNL     1      -3.517  11.216  17.878  0.00  0.00    +0.000 A 
ATOM     16  C   UNL     1      -2.835  11.879  18.924  0.00  0.00    +0.000 A 
ATOM     17  C   UNL     1      -1.439  11.597  19.237  0.00  0.00    +0.000 A 
ATOM     18  C   UNL     1      -0.704  10.601  18.514  0.00  0.00    +0.000 A 
ATOM     19  C   UNL     1      -1.387   9.966  17.497  0.00  0.00    +0.000 A 
ATOM     20  C   UNL     1      -2.745  10.274  17.151  0.00  0.00    +0.000 A 
BRANCH  15  22
ATOM     21  C   UNL     1      -5.986  11.116  18.011  0.00  0.00    +0.000 C 
ATOM     22  O   UNL     1      -4.764  11.739  17.569  0.00  0.00    +0.000 OA
ENDBRANCH  15  22
BRANCH  20  23
ATOM     23  O   UNL     1      -3.030   9.563  16.007  0.00  0.00    +0.000 OA
ATOM     24  C   UNL     1      -3.060  10.300  14.819  0.00  0.00    +0.000 C 
ENDBRANCH  20  23
ENDBRANCH   1  18
TORSDOF 4
ENDMDL
MODEL 3
REMARK VINA RESULT:      -7.9      0.992      2.038
REMARK  Name = 
REMARK  6 active torsions:
REMARK  status: ('A' for Active; 'I' for Inactive)
REMARK    1  A    between atoms: C_1  and  O_2
REMARK    2  A    between atoms: O_2  and  C_3
REMARK    3  A    between atoms: C_6  and  S_7
REMARK    4  A    between atoms: S_7  and  N_10
REMARK    5  A    between atoms: C_21  and  O_22
REMARK    6  A    between atoms: O_22  and  C_23
REMARK                            x       y       z     vdW  Elec       q    Type
REMARK                         _______ _______ _______ _____ _____    ______ ____
ROOT
ATOM      1  S   UNL     1       1.791   3.525  20.648  0.00  0.00    +0.000 S 
ATOM      2  O   UNL     1       2.219   3.434  22.033  0.00  0.00    +0.000 OA
ATOM      3  O   UNL     1       0.451   3.149  20.235  0.00  0.00    +0.000 OA
ENDROOT
BRANCH   1   4
ATOM      4  N   UNL     1       3.196   2.544  19.457  0.00  0.00    +0.000 N 
ATOM      5  C   UNL     1       4.390   3.305  18.635  0.00  0.00    +0.000 A 
ATOM      6  N   UNL     1       5.461   3.409  19.362  0.00  0.00    +0.000 NA
ATOM      7  O   UNL     1       6.170   4.387  18.794  0.00  0.00    +0.000 OA
ATOM      8  C   UNL     1       5.971   4.366  17.435  0.00  0.00    +0.000 A 
ATOM      9  C   UNL     1       7.115   5.053  16.789  0.00  0.00    +0.000 A 
ATOM     10  C   UNL     1       7.367   5.100  15.445  0.00  0.00    +0.000 A 
ATOM     11  C   UNL     1       6.370   4.520  14.747  0.00  0.00    +0.000 A 
ATOM     12  C   UNL     1       5.166   3.956  15.503  0.00  0.00    +0.000 A 
ATOM     13  C   UNL     1       4.783   3.640  16.989  0.00  0.00    +0.000 A 
ATOM     14  H   UNL     1       3.690   2.160  20.268  0.00  0.00    +0.000 HD
ENDBRANCH   1   4
BRANCH   1  18
ATOM     15  C   UNL     1       1.760   8.309  19.479  0.00  0.00    +0.000 A 
ATOM     16  C   UNL     1       1.322   7.908  20.761  0.00  0.00    +0.000 A 
ATOM     17  C   UNL     1       1.352   6.516  21.189  0.00  0.00    +0.000 A 
ATOM     18  C   UNL     1       1.799   5.478  20.304  0.00  0.00    +0.000 A 
ATOM     19  C   UNL     1       2.223   5.890  19.057  0.00  0.00    +0.000 A 
ATOM     20  C   UNL     1       2.242   7.265  18.649  0.00  0.00    +0.000 A 
BRANCH  15  22
ATOM     21  C   UNL     1       0.975  10.411  18.433  0.00  0.00    +0.000 C 
ATOM     22  O   UNL     1       1.866   9.681  19.299  0.00  0.00    +0.000 OA
ENDBRANCH  15  22
BRANCH  20  23
ATOM     23  O   UNL     1       2.865   7.302  17.421  0.00  0.00    +0.000 OA
ATOM     24  C   UNL     1       4.262   7.279  17.441  0.00  0.00    +0.000 C 
ENDBRANCH  20  23
ENDBRANCH   1  18
TORSDOF 4
ENDMDL
MODEL 4
REMARK VINA RESULT:      -7.8      3.866      8.081
REMARK  Name = 
REMARK  6 active torsions:
REMARK  status: ('A' for Active; 'I' for Inactive)
REMARK    1  A    between atoms: C_1  and  O_2
REMARK    2  A    between atoms: O_2  and  C_3
REMARK    3  A    between atoms: C_6  and  S_7
REMARK    4  A    between atoms: S_7  and  N_10
REMARK    5  A    between atoms: C_21  and  O_22
REMARK    6  A    between atoms: O_22  and  C_23
REMARK                            x       y       z     vdW  Elec       q    Type
REMARK                         _______ _______ _______ _____ _____    ______ ____
ROOT
ATOM      1  S   UNL     1       0.952   8.550  21.026  0.00  0.00    +0.000 S 
ATOM      2  O   UNL     1      -0.349   8.011  21.380  0.00  0.00    +0.000 OA
ATOM      3  O   UNL     1       1.888   9.014  22.035  0.00  0.00    +0.000 OA
ENDROOT
BRANCH   1   4
ATOM      4  N   UNL     1       0.683  10.032  19.582  0.00  0.00    +0.000 N 
ATOM      5  C   UNL     1      -0.779  10.508  19.021  0.00  0.00    +0.000 A 
ATOM      6  N   UNL     1      -1.256  11.481  19.736  0.00  0.00    +0.000 NA
ATOM      7  O   UNL     1      -2.568  11.482  19.488  0.00  0.00    +0.000 OA
ATOM      8  C   UNL     1      -2.787  11.092  18.189  0.00  0.00    +0.000 A 
ATOM      9  C   UNL     1      -4.118  11.595  17.773  0.00  0.00    +0.000 A 
ATOM     10  C   UNL     1      -4.632  11.552  16.505  0.00  0.00    +0.000 A 
ATOM     11  C   UNL     1      -3.804  10.890  15.671  0.00  0.00    +0.000 A 
ATOM     12  C   UNL     1      -2.511  10.294  16.230  0.00  0.00    +0.000 A 
ATOM     13  C   UNL     1      -1.676  10.387  17.552  0.00  0.00    +0.000 A 
ATOM     14  H   UNL     1       0.931  10.782  20.233  0.00  0.00    +0.000 HD
ENDBRANCH   1   4
BRANCH   1  18
ATOM     15  C   UNL     1       3.084   4.457  19.307  0.00  0.00    +0.000 A 
ATOM     16  C   UNL     1       3.149   5.643  18.542  0.00  0.00    +0.000 A 
ATOM     17  C   UNL     1       2.583   6.900  19.015  0.00  0.00    +0.000 A 
ATOM     18  C   UNL     1       1.898   6.978  20.273  0.00  0.00    +0.000 A 
ATOM     19  C   UNL     1       1.847   5.810  21.005  0.00  0.00    +0.000 A 
ATOM     20  C   UNL     1       2.445   4.582  20.568  0.00  0.00    +0.000 A 
BRANCH  15  22
ATOM     21  C   UNL     1       3.248   2.187  18.334  0.00  0.00    +0.000 C 
ATOM     22  O   UNL     1       3.846   3.404  18.820  0.00  0.00    +0.000 OA
ENDBRANCH  15  22
BRANCH  20  23
ATOM     23  O   UNL     1       2.328   3.693  21.612  0.00  0.00    +0.000 OA
ATOM     24  C   UNL     1       1.342   2.711  21.474  0.00  0.00    +0.000 C 
ENDBRANCH  20  23
ENDBRANCH   1  18
TORSDOF 4
ENDMDL
MODEL 5
REMARK VINA RESULT:      -7.8      3.853      8.152
REMARK  Name = 
REMARK  6 active torsions:
REMARK  status: ('A' for Active; 'I' for Inactive)
REMARK    1  A    between atoms: C_1  and  O_2
REMARK    2  A    between atoms: O_2  and  C_3
REMARK    3  A    between atoms: C_6  and  S_7
REMARK    4  A    between atoms: S_7  and  N_10
REMARK    5  A    between atoms: C_21  and  O_22
REMARK    6  A    between atoms: O_22  and  C_23
REMARK                            x       y       z     vdW  Elec       q    Type
REMARK                         _______ _______ _______ _____ _____    ______ ____
ROOT
ATOM      1  S   UNL     1       0.873   8.522  21.133  0.00  0.00    +0.000 S 
ATOM      2  O   UNL     1      -0.448   8.051  21.507  0.00  0.00    +0.000 OA
ATOM      3  O   UNL     1       1.827   8.991  22.121  0.00  0.00    +0.000 OA
ENDROOT
BRANCH   1   4
ATOM      4  N   UNL     1       0.662   9.951  19.626  0.00  0.00    +0.000 N 
ATOM      5  C   UNL     1      -0.780  10.449  19.033  0.00  0.00    +0.000 A 
ATOM      6  N   UNL     1      -1.231  11.466  19.704  0.00  0.00    +0.000 NA
ATOM      7  O   UNL     1      -2.540  11.497  19.445  0.00  0.00    +0.000 OA
ATOM      8  C   UNL     1      -2.762  11.061  18.161  0.00  0.00    +0.000 A 
ATOM      9  C   UNL     1      -4.074  11.588  17.713  0.00  0.00    +0.000 A 
ATOM     10  C   UNL     1      -4.579  11.510  16.443  0.00  0.00    +0.000 A 
ATOM     11  C   UNL     1      -3.766  10.788  15.645  0.00  0.00    +0.000 A 
ATOM     12  C   UNL     1      -2.497  10.175  16.238  0.00  0.00    +0.000 A 
ATOM     13  C   UNL     1      -1.669  10.296  17.563  0.00  0.00    +0.000 A 
ATOM     14  H   UNL     1       0.929  10.719  20.248  0.00  0.00    +0.000 HD
ENDBRANCH   1   4
BRANCH   1  18
ATOM     15  C   UNL     1       3.306   4.643  19.318  0.00  0.00    +0.000 A 
ATOM     16  C   UNL     1       2.497   4.477  20.465  0.00  0.00    +0.000 A 
ATOM     17  C   UNL     1       1.712   5.570  21.023  0.00  0.00    +0.000 A 
ATOM     18  C   UNL     1       1.756   6.884  20.448  0.00  0.00    +0.000 A 
ATOM     19  C   UNL     1       2.551   7.025  19.329  0.00  0.00    +0.000 A 
ATOM     20  C   UNL     1       3.287   5.941  18.746  0.00  0.00    +0.000 A 
BRANCH  15  22
ATOM     21  C   UNL     1       4.053   2.301  19.602  0.00  0.00    +0.000 C 
ATOM     22  O   UNL     1       3.821   3.468  18.790  0.00  0.00    +0.000 OA
ENDBRANCH  15  22
BRANCH  20  23
ATOM     23  O   UNL     1       3.828   6.418  17.573  0.00  0.00    +0.000 OA
ATOM     24  C   UNL     1       5.215   6.300  17.444  0.00  0.00    +0.000 C 
ENDBRANCH  20  23
ENDBRANCH   1  18
TORSDOF 4
ENDMDL
MODEL 6
REMARK VINA RESULT:      -7.6      3.261      5.260
REMARK  Name = 
REMARK  6 active torsions:
REMARK  status: ('A' for Active; 'I' for Inactive)
REMARK    1  A    between atoms: C_1  and  O_2
REMARK    2  A    between atoms: O_2  and  C_3
REMARK    3  A    between atoms: C_6  and  S_7
REMARK    4  A    between atoms: S_7  and  N_10
REMARK    5  A    between atoms: C_21  and  O_22
REMARK    6  A    between atoms: O_22  and  C_23
REMARK                            x       y       z     vdW  Elec       q    Type
REMARK                         _______ _______ _______ _____ _____    ______ ____
ROOT
ATOM      1  S   UNL     1       1.210   9.712  18.404  0.00  0.00    +0.000 S 
ATOM      2  O   UNL     1       0.274   9.145  17.449  0.00  0.00    +0.000 OA
ATOM      3  O   UNL     1       2.225  10.670  18.003  0.00  0.00    +0.000 OA
ENDROOT
BRANCH   1   4
ATOM      4  N   UNL     1       2.098   8.150  19.466  0.00  0.00    +0.000 N 
ATOM      5  C   UNL     1       2.397   6.669  18.836  0.00  0.00    +0.000 A 
ATOM      6  N   UNL     1       3.575   6.625  18.293  0.00  0.00    +0.000 NA
ATOM      7  O   UNL     1       3.534   5.581  17.463  0.00  0.00    +0.000 OA
ATOM      8  C   UNL     1       2.720   4.609  17.991  0.00  0.00    +0.000 A 
ATOM      9  C   UNL     1       3.090   3.311  17.378  0.00  0.00    +0.000 A 
ATOM     10  C   UNL     1       2.623   2.081  17.757  0.00  0.00    +0.000 A 
ATOM     11  C   UNL     1       1.681   2.199  18.715  0.00  0.00    +0.000 A 
ATOM     12  C   UNL     1       1.275   3.595  19.189  0.00  0.00    +0.000 A 
ATOM     13  C   UNL     1       1.798   5.063  19.031  0.00  0.00    +0.000 A 
ATOM     14  H   UNL     1       3.020   8.595  19.447  0.00  0.00    +0.000 HD
ENDBRANCH   1   4
BRANCH   1  18
ATOM     15  C   UNL     1      -1.444  12.425  21.542  0.00  0.00    +0.000 A 
ATOM     16  C   UNL     1      -1.635  12.593  20.152  0.00  0.00    +0.000 A 
ATOM     17  C   UNL     1      -0.919  11.787  19.170  0.00  0.00    +0.000 A 
ATOM     18  C   UNL     1       0.045  10.806  19.578  0.00  0.00    +0.000 A 
ATOM     19  C   UNL     1       0.216  10.657  20.939  0.00  0.00    +0.000 A 
ATOM     20  C   UNL     1      -0.522  11.412  21.910  0.00  0.00    +0.000 A 
BRANCH  15  22
ATOM     21  C   UNL     1      -3.527  12.485  22.877  0.00  0.00    +0.000 C 
ATOM     22  O   UNL     1      -2.345  13.112  22.343  0.00  0.00    +0.000 OA
ENDBRANCH  15  22
BRANCH  20  23
ATOM     23  O   UNL     1      -0.201  10.888  23.142  0.00  0.00    +0.000 OA
ATOM     24  C   UNL     1      -0.183   9.492  23.229  0.00  0.00    +0.000 C 
ENDBRANCH  20  23
ENDBRANCH   1  18
TORSDOF 4
ENDMDL
MODEL 7
REMARK VINA RESULT:      -7.6      3.895      7.671
REMARK  Name = 
REMARK  6 active torsions:
REMARK  status: ('A' for Active; 'I' for Inactive)
REMARK    1  A    between atoms: C_1  and  O_2
REMARK    2  A    between atoms: O_2  and  C_3
REMARK    3  A    between atoms: C_6  and  S_7
REMARK    4  A    between atoms: S_7  and  N_10
REMARK    5  A    between atoms: C_21  and  O_22
REMARK    6  A    between atoms: O_22  and  C_23
REMARK                            x       y       z     vdW  Elec       q    Type
REMARK                         _______ _______ _______ _____ _____    ______ ____
ROOT
ATOM      1  S   UNL     1       7.380   5.470  17.193  0.00  0.00    +0.000 S 
ATOM      2  O   UNL     1       8.339   4.468  17.623  0.00  0.00    +0.000 OA
ATOM      3  O   UNL     1       7.793   6.803  16.796  0.00  0.00    +0.000 OA
ENDROOT
BRANCH   1   4
ATOM      4  N   UNL     1       5.871   5.599  18.630  0.00  0.00    +0.000 N 
ATOM      5  C   UNL     1       4.716   4.461  18.849  0.00  0.00    +0.000 A 
ATOM      6  N   UNL     1       5.102   3.567  19.709  0.00  0.00    +0.000 NA
ATOM      7  O   UNL     1       4.321   2.509  19.480  0.00  0.00    +0.000 OA
ATOM      8  C   UNL     1       3.078   2.936  19.082  0.00  0.00    +0.000 A 
ATOM      9  C   UNL     1       2.108   1.846  19.347  0.00  0.00    +0.000 A 
ATOM     10  C   UNL     1       0.746   1.940  19.238  0.00  0.00    +0.000 A 
ATOM     11  C   UNL     1       0.384   3.144  18.749  0.00  0.00    +0.000 A 
ATOM     12  C   UNL     1       1.472   4.153  18.382  0.00  0.00    +0.000 A 
ATOM     13  C   UNL     1       3.016   4.313  18.597  0.00  0.00    +0.000 A 
ATOM     14  H   UNL     1       6.521   5.414  19.400  0.00  0.00    +0.000 HD
ENDBRANCH   1   4
BRANCH   1  18
ATOM     15  C   UNL     1       5.965   3.616  12.856  0.00  0.00    +0.000 A 
ATOM     16  C   UNL     1       5.220   3.305  14.016  0.00  0.00    +0.000 A 
ATOM     17  C   UNL     1       5.554   3.860  15.321  0.00  0.00    +0.000 A 
ATOM     18  C   UNL     1       6.686   4.725  15.491  0.00  0.00    +0.000 A 
ATOM     19  C   UNL     1       7.399   5.017  14.346  0.00  0.00    +0.000 A 
ATOM     20  C   UNL     1       7.046   4.513  13.051  0.00  0.00    +0.000 A 
BRANCH  15  22
ATOM     21  C   UNL     1       4.002   3.368  11.367  0.00  0.00    +0.000 C 
ATOM     22  O   UNL     1       5.400   3.182  11.664  0.00  0.00    +0.000 OA
ENDBRANCH  15  22
BRANCH  20  23
ATOM     23  O   UNL     1       7.878   5.134  12.147  0.00  0.00    +0.000 OA
ATOM     24  C   UNL     1       8.834   6.000  12.687  0.00  0.00    +0.000 C 
ENDBRANCH  20  23
ENDBRANCH   1  18
TORSDOF 4
ENDMDL
MODEL 8
REMARK VINA RESULT:      -7.5      2.100      7.043
REMARK  Name = 
REMARK  6 active torsions:
REMARK  status: ('A' for Active; 'I' for Inactive)
REMARK    1  A    between atoms: C_1  and  O_2
REMARK    2  A    between atoms: O_2  and  C_3
REMARK    3  A    between atoms: C_6  and  S_7
REMARK    4  A    between atoms: S_7  and  N_10
REMARK    5  A    between atoms: C_21  and  O_22
REMARK    6  A    between atoms: O_22  and  C_23
REMARK                            x       y       z     vdW  Elec       q    Type
REMARK                         _______ _______ _______ _____ _____    ______ ____
ROOT
ATOM      1  S   UNL     1       4.840   4.031  19.329  0.00  0.00    +0.000 S 
ATOM      2  O   UNL     1       4.881   2.584  19.448  0.00  0.00    +0.000 OA
ATOM      3  O   UNL     1       5.681   4.889  20.143  0.00  0.00    +0.000 OA
ENDROOT
BRANCH   1   4
ATOM      4  N   UNL     1       2.852   4.649  19.475  0.00  0.00    +0.000 N 
ATOM      5  C   UNL     1       2.366   6.207  19.351  0.00  0.00    +0.000 A 
ATOM      6  N   UNL     1       2.100   6.513  18.117  0.00  0.00    +0.000 NA
ATOM      7  O   UNL     1       2.153   7.846  18.073  0.00  0.00    +0.000 OA
ATOM      8  C   UNL     1       1.718   8.361  19.270  0.00  0.00    +0.000 A 
ATOM      9  C   UNL     1       1.279   9.758  19.041  0.00  0.00    +0.000 A 
ATOM     10  C   UNL     1       0.633  10.555  19.948  0.00  0.00    +0.000 A 
ATOM     11  C   UNL     1       0.530   9.939  21.143  0.00  0.00    +0.000 A 
ATOM     12  C   UNL     1       1.135   8.545  21.314  0.00  0.00    +0.000 A 
ATOM     13  C   UNL     1       1.723   7.423  20.391  0.00  0.00    +0.000 A 
ATOM     14  H   UNL     1       2.612   4.263  18.557  0.00  0.00    +0.000 HD
ENDBRANCH   1   4
BRANCH   1  18
ATOM     15  C   UNL     1       6.898   4.932  14.946  0.00  0.00    +0.000 A 
ATOM     16  C   UNL     1       5.948   3.892  15.063  0.00  0.00    +0.000 A 
ATOM     17  C   UNL     1       5.265   3.606  16.318  0.00  0.00    +0.000 A 
ATOM     18  C   UNL     1       5.558   4.351  17.508  0.00  0.00    +0.000 A 
ATOM     19  C   UNL     1       6.486   5.363  17.373  0.00  0.00    +0.000 A 
ATOM     20  C   UNL     1       7.125   5.682  16.129  0.00  0.00    +0.000 A 
BRANCH  15  22
ATOM     21  C   UNL     1       7.020   4.326  12.550  0.00  0.00    +0.000 C 
ATOM     22  O   UNL     1       7.300   5.215  13.648  0.00  0.00    +0.000 OA
ENDBRANCH  15  22
BRANCH  20  23
ATOM     23  O   UNL     1       7.857   6.828  16.345  0.00  0.00    +0.000 OA
ATOM     24  C   UNL     1       7.590   7.510  17.536  0.00  0.00    +0.000 C 
ENDBRANCH  20  23
ENDBRANCH   1  18
TORSDOF 4
ENDMDL
MODEL 9
REMARK VINA RESULT:      -7.5      3.598      5.058
REMARK  Name = 
REMARK  6 active torsions:
REMARK  status: ('A' for Active; 'I' for Inactive)
REMARK    1  A    between atoms: C_1  and  O_2
REMARK    2  A    between atoms: O_2  and  C_3
REMARK    3  A    between atoms: C_6  and  S_7
REMARK    4  A    between atoms: S_7  and  N_10
REMARK    5  A    between atoms: C_21  and  O_22
REMARK    6  A    between atoms: O_22  and  C_23
REMARK                            x       y       z     vdW  Elec       q    Type
REMARK                         _______ _______ _______ _____ _____    ______ ____
ROOT
ATOM      1  S   UNL     1       1.109   9.816  18.782  0.00  0.00    +0.000 S 
ATOM      2  O   UNL     1       1.885  10.959  18.332  0.00  0.00    +0.000 OA
ATOM      3  O   UNL     1       1.029   9.452  20.185  0.00  0.00    +0.000 OA
ENDROOT
BRANCH   1   4
ATOM      4  N   UNL     1       1.669   8.152  17.653  0.00  0.00    +0.000 N 
ATOM      5  C   UNL     1       2.963   7.209  17.992  0.00  0.00    +0.000 A 
ATOM      6  N   UNL     1       2.633   6.236  18.787  0.00  0.00    +0.000 NA
ATOM      7  O   UNL     1       3.783   5.828  19.328  0.00  0.00    +0.000 OA
ATOM      8  C   UNL     1       4.796   5.974  18.412  0.00  0.00    +0.000 A 
ATOM      9  C   UNL     1       5.901   5.062  18.795  0.00  0.00    +0.000 A 
ATOM     10  C   UNL     1       7.017   4.797  18.048  0.00  0.00    +0.000 A 
ATOM     11  C   UNL     1       7.047   5.561  16.937  0.00  0.00    +0.000 A 
ATOM     12  C   UNL     1       5.921   6.568  16.700  0.00  0.00    +0.000 A 
ATOM     13  C   UNL     1       4.511   6.884  17.304  0.00  0.00    +0.000 A 
ATOM     14  H   UNL     1       0.883   7.592  17.998  0.00  0.00    +0.000 HD
ENDBRANCH   1   4
BRANCH   1  18
ATOM     15  C   UNL     1      -3.452  11.456  17.908  0.00  0.00    +0.000 A 
ATOM     16  C   UNL     1      -2.916  10.434  17.091  0.00  0.00    +0.000 A 
ATOM     17  C   UNL     1      -1.594   9.870  17.326  0.00  0.00    +0.000 A 
ATOM     18  C   UNL     1      -0.757  10.357  18.385  0.00  0.00    +0.000 A 
ATOM     19  C   UNL     1      -1.298  11.353  19.172  0.00  0.00    +0.000 A 
ATOM     20  C   UNL     1      -2.619  11.878  18.976  0.00  0.00    +0.000 A 
BRANCH  15  22
ATOM     21  C   UNL     1      -5.846  10.909  18.219  0.00  0.00    +0.000 C 
ATOM     22  O   UNL     1      -4.793  11.738  17.689  0.00  0.00    +0.000 OA
ENDBRANCH  15  22
BRANCH  20  23
ATOM     23  O   UNL     1      -2.864  12.729  20.030  0.00  0.00    +0.000 OA
ATOM     24  C   UNL     1      -2.129  12.490  21.195  0.00  0.00    +0.000 C 
ENDBRANCH  20  23
ENDBRANCH   1  18
TORSDOF 4
ENDMDL
