MODEL 1
REMARK VINA RESULT:      -8.4      0.000      0.000
REMARK  Name = 
REMARK  5 active torsions:
REMARK  status: ('A' for Active; 'I' for Inactive)
REMARK    1  A    between atoms: C_2  and  C_3
REMARK    2  A    between atoms: C_4  and  C_5
REMARK    3  A    between atoms: N_11  and  C_12
REMARK    4  A    between atoms: C_17  and  C_18
REMARK    5  A    between atoms: C_18  and  O_20
REMARK                            x       y       z     vdW  Elec       q    Type
REMARK                         _______ _______ _______ _____ _____    ______ ____
ROOT
ATOM      1  O   UNL     1       8.035   6.689  18.736  0.00  0.00    +0.000 OA
ATOM      2  C   UNL     1       7.591   7.549  17.982  0.00  0.00    +0.000 C 
ATOM      3  N   UNL     1       6.474   7.438  17.178  0.00  0.00    +0.000 N 
ATOM      4  H   UNL     1       6.354   8.131  16.436  0.00  0.00    +0.000 HD
ENDROOT
BRANCH   3   5
ATOM      5  C   UNL     1       5.537   6.364  17.172  0.00  0.00    +0.000 A 
ATOM      6  C   UNL     1       4.246   6.528  17.696  0.00  0.00    +0.000 A 
ATOM      7  C   UNL     1       3.315   5.487  17.684  0.00  0.00    +0.000 A 
ATOM      8  C   UNL     1       3.653   4.253  17.149  0.00  0.00    +0.000 A 
ATOM      9  C   UNL     1       4.926   4.058  16.618  0.00  0.00    +0.000 A 
ATOM     10  C   UNL     1       5.866   5.111  16.603  0.00  0.00    +0.000 A 
BRANCH  10  11
ATOM     11  C   UNL     1       7.221   4.867  16.039  0.00  0.00    +0.000 C 
ATOM     12  O   UNL     1       7.546   5.239  14.922  0.00  0.00    +0.000 OA
BRANCH  11  13
ATOM     13  O   UNL     1       8.044   4.139  16.825  0.00  0.00    +0.000 OA
ATOM     14  H   UNL     1       8.831   3.769  16.389  0.00  0.00    +0.000 HD
ENDBRANCH  11  13
ENDBRANCH  10  11
ENDBRANCH   3   5
BRANCH   2  15
ATOM     15  C   UNL     1       8.275   8.867  17.865  0.00  0.00    +0.000 C 
ATOM     16  C   UNL     1       8.930   9.363  18.931  0.00  0.00    +0.000 C 
BRANCH  16  17
ATOM     17  C   UNL     1       9.605  10.669  18.972  0.00  0.00    +0.000 A 
ATOM     18  C   UNL     1       9.834  11.286  20.210  0.00  0.00    +0.000 A 
ATOM     19  C   UNL     1      10.493  12.518  20.283  0.00  0.00    +0.000 A 
ATOM     20  C   UNL     1      10.939  13.140  19.120  0.00  0.00    +0.000 A 
ATOM     21  C   UNL     1      10.737  12.527  17.886  0.00  0.00    +0.000 A 
ATOM     22  C   UNL     1      10.082  11.297  17.812  0.00  0.00    +0.000 A 
ENDBRANCH  16  17
ENDBRANCH   2  15
TORSDOF 5
ENDMDL
MODEL 2
REMARK VINA RESULT:      -8.3      0.634      1.028
REMARK  Name = 
REMARK  5 active torsions:
REMARK  status: ('A' for Active; 'I' for Inactive)
REMARK    1  A    between atoms: C_2  and  C_3
REMARK    2  A    between atoms: C_4  and  C_5
REMARK    3  A    between atoms: N_11  and  C_12
REMARK    4  A    between atoms: C_17  and  C_18
REMARK    5  A    between atoms: C_18  and  O_20
REMARK                            x       y       z     vdW  Elec       q    Type
REMARK                         _______ _______ _______ _____ _____    ______ ____
ROOT
ATOM      1  O   UNL     1       7.989   6.783  18.725  0.00  0.00    +0.000 OA
ATOM      2  C   UNL     1       7.568   7.550  17.866  0.00  0.00    +0.000 C 
ATOM      3  N   UNL     1       6.467   7.351  17.057  0.00  0.00    +0.000 N 
ATOM      4  H   UNL     1       6.369   7.953  16.235  0.00  0.00    +0.000 HD
ENDROOT
BRANCH   3   5
ATOM      5  C   UNL     1       5.521   6.290  17.157  0.00  0.00    +0.000 A 
ATOM      6  C   UNL     1       4.231   6.516  17.658  0.00  0.00    +0.000 A 
ATOM      7  C   UNL     1       3.292   5.487  17.750  0.00  0.00    +0.000 A 
ATOM      8  C   UNL     1       3.621   4.202  17.345  0.00  0.00    +0.000 A 
ATOM      9  C   UNL     1       4.894   3.944  16.841  0.00  0.00    +0.000 A 
ATOM     10  C   UNL     1       5.842   4.982  16.721  0.00  0.00    +0.000 A 
BRANCH  10  11
ATOM     11  C   UNL     1       7.196   4.672  16.188  0.00  0.00    +0.000 C 
ATOM     12  O   UNL     1       7.502   4.855  15.021  0.00  0.00    +0.000 OA
BRANCH  11  13
ATOM     13  O   UNL     1       8.042   4.105  17.076  0.00  0.00    +0.000 OA
ATOM     14  H   UNL     1       7.989   3.136  17.154  0.00  0.00    +0.000 HD
ENDBRANCH  11  13
ENDBRANCH  10  11
ENDBRANCH   3   5
BRANCH   2  15
ATOM     15  C   UNL     1       8.266   8.841  17.609  0.00  0.00    +0.000 C 
ATOM     16  C   UNL     1       8.726   9.558  18.651  0.00  0.00    +0.000 C 
BRANCH  16  17
ATOM     17  C   UNL     1       9.386  10.867  18.547  0.00  0.00    +0.000 A 
ATOM     18  C   UNL     1       8.767  11.894  17.820  0.00  0.00    +0.000 A 
ATOM     19  C   UNL     1       9.360  13.157  17.720  0.00  0.00    +0.000 A 
ATOM     20  C   UNL     1      10.572  13.410  18.355  0.00  0.00    +0.000 A 
ATOM     21  C   UNL     1      11.187  12.405  19.098  0.00  0.00    +0.000 A 
ATOM     22  C   UNL     1      10.596  11.145  19.200  0.00  0.00    +0.000 A 
ENDBRANCH  16  17
ENDBRANCH   2  15
TORSDOF 5
ENDMDL
MODEL 3
REMARK VINA RESULT:      -8.2      5.555      7.040
REMARK  Name = 
REMARK  5 active torsions:
REMARK  status: ('A' for Active; 'I' for Inactive)
REMARK    1  A    between atoms: C_2  and  C_3
REMARK    2  A    between atoms: C_4  and  C_5
REMARK    3  A    between atoms: N_11  and  C_12
REMARK    4  A    between atoms: C_17  and  C_18
REMARK    5  A    between atoms: C_18  and  O_20
REMARK                            x       y       z     vdW  Elec       q    Type
REMARK                         _______ _______ _______ _____ _____    ______ ____
ROOT
ATOM      1  O   UNL     1       6.201   4.708  19.165  0.00  0.00    +0.000 OA
ATOM      2  C   UNL     1       5.632   4.325  18.148  0.00  0.00    +0.000 C 
ATOM      3  N   UNL     1       4.356   3.804  18.069  0.00  0.00    +0.000 N 
ATOM      4  H   UNL     1       4.097   3.314  17.209  0.00  0.00    +0.000 HD
ENDROOT
BRANCH   3   5
ATOM      5  C   UNL     1       3.397   3.743  19.122  0.00  0.00    +0.000 A 
ATOM      6  C   UNL     1       2.373   4.696  19.225  0.00  0.00    +0.000 A 
ATOM      7  C   UNL     1       1.421   4.638  20.245  0.00  0.00    +0.000 A 
ATOM      8  C   UNL     1       1.472   3.626  21.192  0.00  0.00    +0.000 A 
ATOM      9  C   UNL     1       2.475   2.663  21.117  0.00  0.00    +0.000 A 
ATOM     10  C   UNL     1       3.426   2.698  20.076  0.00  0.00    +0.000 A 
BRANCH  10  11
ATOM     11  C   UNL     1       4.492   1.660  20.030  0.00  0.00    +0.000 C 
ATOM     12  O   UNL     1       5.338   1.546  20.903  0.00  0.00    +0.000 OA
BRANCH  11  13
ATOM     13  O   UNL     1       4.499   0.898  18.914  0.00  0.00    +0.000 OA
ATOM     14  H   UNL     1       4.792   1.341  18.099  0.00  0.00    +0.000 HD
ENDBRANCH  11  13
ENDBRANCH  10  11
ENDBRANCH   3   5
BRANCH   2  15
ATOM     15  C   UNL     1       6.326   4.394  16.832  0.00  0.00    +0.000 C 
ATOM     16  C   UNL     1       5.599   4.319  15.702  0.00  0.00    +0.000 C 
BRANCH  16  17
ATOM     17  C   UNL     1       6.156   4.324  14.341  0.00  0.00    +0.000 A 
ATOM     18  C   UNL     1       7.255   5.145  14.051  0.00  0.00    +0.000 A 
ATOM     19  C   UNL     1       7.821   5.156  12.772  0.00  0.00    +0.000 A 
ATOM     20  C   UNL     1       7.301   4.339  11.772  0.00  0.00    +0.000 A 
ATOM     21  C   UNL     1       6.222   3.503  12.053  0.00  0.00    +0.000 A 
ATOM     22  C   UNL     1       5.658   3.489  13.330  0.00  0.00    +0.000 A 
ENDBRANCH  16  17
ENDBRANCH   2  15
TORSDOF 5
ENDMDL
MODEL 4
REMARK VINA RESULT:      -8.1      5.355      7.020
REMARK  Name = 
REMARK  5 active torsions:
REMARK  status: ('A' for Active; 'I' for Inactive)
REMARK    1  A    between atoms: C_2  and  C_3
REMARK    2  A    between atoms: C_4  and  C_5
REMARK    3  A    between atoms: N_11  and  C_12
REMARK    4  A    between atoms: C_17  and  C_18
REMARK    5  A    between atoms: C_18  and  O_20
REMARK                            x       y       z     vdW  Elec       q    Type
REMARK                         _______ _______ _______ _____ _____    ______ ____
ROOT
ATOM      1  O   UNL     1       5.778   5.497  19.140  0.00  0.00    +0.000 OA
ATOM      2  C   UNL     1       5.331   4.905  18.164  0.00  0.00    +0.000 C 
ATOM      3  N   UNL     1       4.207   4.106  18.133  0.00  0.00    +0.000 N 
ATOM      4  H   UNL     1       4.083   3.494  17.323  0.00  0.00    +0.000 HD
ENDROOT
BRANCH   3   5
ATOM      5  C   UNL     1       3.264   3.926  19.187  0.00  0.00    +0.000 A 
ATOM      6  C   UNL     1       2.216   4.837  19.384  0.00  0.00    +0.000 A 
ATOM      7  C   UNL     1       1.280   4.664  20.406  0.00  0.00    +0.000 A 
ATOM      8  C   UNL     1       1.371   3.576  21.261  0.00  0.00    +0.000 A 
ATOM      9  C   UNL     1       2.399   2.651  21.091  0.00  0.00    +0.000 A 
ATOM     10  C   UNL     1       3.335   2.803  20.046  0.00  0.00    +0.000 A 
BRANCH  10  11
ATOM     11  C   UNL     1       4.428   1.804  19.899  0.00  0.00    +0.000 C 
ATOM     12  O   UNL     1       5.298   1.650  20.741  0.00  0.00    +0.000 OA
BRANCH  11  13
ATOM     13  O   UNL     1       4.428   1.128  18.729  0.00  0.00    +0.000 OA
ATOM     14  H   UNL     1       3.581   1.107  18.250  0.00  0.00    +0.000 HD
ENDBRANCH  11  13
ENDBRANCH  10  11
ENDBRANCH   3   5
BRANCH   2  15
ATOM     15  C   UNL     1       6.020   5.008  16.847  0.00  0.00    +0.000 C 
ATOM     16  C   UNL     1       5.524   4.336  15.792  0.00  0.00    +0.000 C 
BRANCH  16  17
ATOM     17  C   UNL     1       6.128   4.308  14.451  0.00  0.00    +0.000 A 
ATOM     18  C   UNL     1       5.546   3.514  13.452  0.00  0.00    +0.000 A 
ATOM     19  C   UNL     1       6.085   3.483  12.161  0.00  0.00    +0.000 A 
ATOM     20  C   UNL     1       7.202   4.254  11.853  0.00  0.00    +0.000 A 
ATOM     21  C   UNL     1       7.776   5.064  12.831  0.00  0.00    +0.000 A 
ATOM     22  C   UNL     1       7.238   5.097  14.119  0.00  0.00    +0.000 A 
ENDBRANCH  16  17
ENDBRANCH   2  15
TORSDOF 5
ENDMDL
MODEL 5
REMARK VINA RESULT:      -8.1      5.638      7.183
REMARK  Name = 
REMARK  5 active torsions:
REMARK  status: ('A' for Active; 'I' for Inactive)
REMARK    1  A    between atoms: C_2  and  C_3
REMARK    2  A    between atoms: C_4  and  C_5
REMARK    3  A    between atoms: N_11  and  C_12
REMARK    4  A    between atoms: C_17  and  C_18
REMARK    5  A    between atoms: C_18  and  O_20
REMARK                            x       y       z     vdW  Elec       q    Type
REMARK                         _______ _______ _______ _____ _____    ______ ____
ROOT
ATOM      1  O   UNL     1       5.650   5.120  19.133  0.00  0.00    +0.000 OA
ATOM      2  C   UNL     1       5.360   4.292  18.276  0.00  0.00    +0.000 C 
ATOM      3  N   UNL     1       4.353   3.350  18.352  0.00  0.00    +0.000 N 
ATOM      4  H   UNL     1       4.373   2.581  17.677  0.00  0.00    +0.000 HD
ENDROOT
BRANCH   3   5
ATOM      5  C   UNL     1       3.363   3.247  19.371  0.00  0.00    +0.000 A 
ATOM      6  C   UNL     1       3.620   2.554  20.563  0.00  0.00    +0.000 A 
ATOM      7  C   UNL     1       2.662   2.457  21.574  0.00  0.00    +0.000 A 
ATOM      8  C   UNL     1       1.418   3.050  21.417  0.00  0.00    +0.000 A 
ATOM      9  C   UNL     1       1.131   3.748  20.247  0.00  0.00    +0.000 A 
ATOM     10  C   UNL     1       2.101   3.872  19.230  0.00  0.00    +0.000 A 
BRANCH  10  11
ATOM     11  C   UNL     1       1.759   4.615  17.986  0.00  0.00    +0.000 C 
ATOM     12  O   UNL     1       1.066   4.137  17.103  0.00  0.00    +0.000 OA
BRANCH  11  13
ATOM     13  O   UNL     1       2.332   5.834  17.875  0.00  0.00    +0.000 OA
ATOM     14  H   UNL     1       3.091   5.892  17.269  0.00  0.00    +0.000 HD
ENDBRANCH  11  13
ENDBRANCH  10  11
ENDBRANCH   3   5
BRANCH   2  15
ATOM     15  C   UNL     1       6.130   4.234  17.002  0.00  0.00    +0.000 C 
ATOM     16  C   UNL     1       5.494   4.466  15.839  0.00  0.00    +0.000 C 
BRANCH  16  17
ATOM     17  C   UNL     1       6.117   4.393  14.509  0.00  0.00    +0.000 A 
ATOM     18  C   UNL     1       5.547   3.570  13.527  0.00  0.00    +0.000 A 
ATOM     19  C   UNL     1       6.104   3.497  12.246  0.00  0.00    +0.000 A 
ATOM     20  C   UNL     1       7.230   4.252  11.930  0.00  0.00    +0.000 A 
ATOM     21  C   UNL     1       7.793   5.090  12.891  0.00  0.00    +0.000 A 
ATOM     22  C   UNL     1       7.236   5.166  14.168  0.00  0.00    +0.000 A 
ENDBRANCH  16  17
ENDBRANCH   2  15
TORSDOF 5
ENDMDL
MODEL 6
REMARK VINA RESULT:      -8.0      5.619      7.177
REMARK  Name = 
REMARK  5 active torsions:
REMARK  status: ('A' for Active; 'I' for Inactive)
REMARK    1  A    between atoms: C_2  and  C_3
REMARK    2  A    between atoms: C_4  and  C_5
REMARK    3  A    between atoms: N_11  and  C_12
REMARK    4  A    between atoms: C_17  and  C_18
REMARK    5  A    between atoms: C_18  and  O_20
REMARK                            x       y       z     vdW  Elec       q    Type
REMARK                         _______ _______ _______ _____ _____    ______ ____
ROOT
ATOM      1  O   UNL     1       5.612   5.234  19.015  0.00  0.00    +0.000 OA
ATOM      2  C   UNL     1       5.347   4.370  18.185  0.00  0.00    +0.000 C 
ATOM      3  N   UNL     1       4.381   3.391  18.300  0.00  0.00    +0.000 N 
ATOM      4  H   UNL     1       4.425   2.604  17.648  0.00  0.00    +0.000 HD
ENDROOT
BRANCH   3   5
ATOM      5  C   UNL     1       3.407   3.277  19.334  0.00  0.00    +0.000 A 
ATOM      6  C   UNL     1       3.661   2.523  20.488  0.00  0.00    +0.000 A 
ATOM      7  C   UNL     1       2.718   2.414  21.513  0.00  0.00    +0.000 A 
ATOM      8  C   UNL     1       1.494   3.058  21.408  0.00  0.00    +0.000 A 
ATOM      9  C   UNL     1       1.211   3.817  20.275  0.00  0.00    +0.000 A 
ATOM     10  C   UNL     1       2.166   3.952  19.245  0.00  0.00    +0.000 A 
BRANCH  10  11
ATOM     11  C   UNL     1       1.828   4.762  18.043  0.00  0.00    +0.000 C 
ATOM     12  O   UNL     1       2.239   5.900  17.879  0.00  0.00    +0.000 OA
BRANCH  11  13
ATOM     13  O   UNL     1       0.974   4.171  17.179  0.00  0.00    +0.000 OA
ATOM     14  H   UNL     1       1.111   4.377  16.238  0.00  0.00    +0.000 HD
ENDBRANCH  11  13
ENDBRANCH  10  11
ENDBRANCH   3   5
BRANCH   2  15
ATOM     15  C   UNL     1       6.106   4.306  16.905  0.00  0.00    +0.000 C 
ATOM     16  C   UNL     1       5.450   4.489  15.744  0.00  0.00    +0.000 C 
BRANCH  16  17
ATOM     17  C   UNL     1       6.062   4.404  14.409  0.00  0.00    +0.000 A 
ATOM     18  C   UNL     1       7.204   5.167  14.127  0.00  0.00    +0.000 A 
ATOM     19  C   UNL     1       7.822   5.092  12.874  0.00  0.00    +0.000 A 
ATOM     20  C   UNL     1       7.311   4.245  11.894  0.00  0.00    +0.000 A 
ATOM     21  C   UNL     1       6.189   3.465  12.170  0.00  0.00    +0.000 A 
ATOM     22  C   UNL     1       5.574   3.538  13.420  0.00  0.00    +0.000 A 
ENDBRANCH  16  17
ENDBRANCH   2  15
TORSDOF 5
ENDMDL
MODEL 7
REMARK VINA RESULT:      -7.9      5.672      7.059
REMARK  Name = 
REMARK  5 active torsions:
REMARK  status: ('A' for Active; 'I' for Inactive)
REMARK    1  A    between atoms: C_2  and  C_3
REMARK    2  A    between atoms: C_4  and  C_5
REMARK    3  A    between atoms: N_11  and  C_12
REMARK    4  A    between atoms: C_17  and  C_18
REMARK    5  A    between atoms: C_18  and  O_20
REMARK                            x       y       z     vdW  Elec       q    Type
REMARK                         _______ _______ _______ _____ _____    ______ ____
ROOT
ATOM      1  O   UNL     1       4.175   6.335  18.372  0.00  0.00    +0.000 OA
ATOM      2  C   UNL     1       4.136   5.373  17.612  0.00  0.00    +0.000 C 
ATOM      3  N   UNL     1       3.574   4.141  17.877  0.00  0.00    +0.000 N 
ATOM      4  H   UNL     1       3.815   3.367  17.253  0.00  0.00    +0.000 HD
ENDROOT
BRANCH   3   5
ATOM      5  C   UNL     1       2.804   3.788  19.023  0.00  0.00    +0.000 A 
ATOM      6  C   UNL     1       1.471   4.204  19.156  0.00  0.00    +0.000 A 
ATOM      7  C   UNL     1       0.704   3.854  20.269  0.00  0.00    +0.000 A 
ATOM      8  C   UNL     1       1.252   3.080  21.281  0.00  0.00    +0.000 A 
ATOM      9  C   UNL     1       2.573   2.649  21.179  0.00  0.00    +0.000 A 
ATOM     10  C   UNL     1       3.349   2.976  20.047  0.00  0.00    +0.000 A 
BRANCH  10  11
ATOM     11  C   UNL     1       4.760   2.509  19.973  0.00  0.00    +0.000 C 
ATOM     12  O   UNL     1       5.143   1.483  20.514  0.00  0.00    +0.000 OA
BRANCH  11  13
ATOM     13  O   UNL     1       5.603   3.341  19.324  0.00  0.00    +0.000 OA
ATOM     14  H   UNL     1       6.278   3.776  19.874  0.00  0.00    +0.000 HD
ENDBRANCH  11  13
ENDBRANCH  10  11
ENDBRANCH   3   5
BRANCH   2  15
ATOM     15  C   UNL     1       4.738   5.469  16.253  0.00  0.00    +0.000 C 
ATOM     16  C   UNL     1       5.282   4.370  15.697  0.00  0.00    +0.000 C 
BRANCH  16  17
ATOM     17  C   UNL     1       5.952   4.333  14.388  0.00  0.00    +0.000 A 
ATOM     18  C   UNL     1       7.111   5.096  14.187  0.00  0.00    +0.000 A 
ATOM     19  C   UNL     1       7.783   5.064  12.961  0.00  0.00    +0.000 A 
ATOM     20  C   UNL     1       7.310   4.261  11.926  0.00  0.00    +0.000 A 
ATOM     21  C   UNL     1       6.171   3.482  12.121  0.00  0.00    +0.000 A 
ATOM     22  C   UNL     1       5.502   3.511  13.345  0.00  0.00    +0.000 A 
ENDBRANCH  16  17
ENDBRANCH   2  15
TORSDOF 5
ENDMDL
MODEL 8
REMARK VINA RESULT:      -7.8      1.057      1.498
REMARK  Name = 
REMARK  5 active torsions:
REMARK  status: ('A' for Active; 'I' for Inactive)
REMARK    1  A    between atoms: C_2  and  C_3
REMARK    2  A    between atoms: C_4  and  C_5
REMARK    3  A    between atoms: N_11  and  C_12
REMARK    4  A    between atoms: C_17  and  C_18
REMARK    5  A    between atoms: C_18  and  O_20
REMARK                            x       y       z     vdW  Elec       q    Type
REMARK                         _______ _______ _______ _____ _____    ______ ____
ROOT
ATOM      1  O   UNL     1       6.597   8.055  16.608  0.00  0.00    +0.000 OA
ATOM      2  C   UNL     1       7.077   7.649  17.662  0.00  0.00    +0.000 C 
ATOM      3  N   UNL     1       6.635   6.572  18.403  0.00  0.00    +0.000 N 
ATOM      4  H   UNL     1       6.974   6.489  19.365  0.00  0.00    +0.000 HD
ENDROOT
BRANCH   3   5
ATOM      5  C   UNL     1       5.632   5.635  18.023  0.00  0.00    +0.000 A 
ATOM      6  C   UNL     1       4.336   5.706  18.554  0.00  0.00    +0.000 A 
ATOM      7  C   UNL     1       3.341   4.800  18.179  0.00  0.00    +0.000 A 
ATOM      8  C   UNL     1       3.619   3.796  17.264  0.00  0.00    +0.000 A 
ATOM      9  C   UNL     1       4.896   3.699  16.716  0.00  0.00    +0.000 A 
ATOM     10  C   UNL     1       5.901   4.624  17.069  0.00  0.00    +0.000 A 
BRANCH  10  11
ATOM     11  C   UNL     1       7.257   4.486  16.473  0.00  0.00    +0.000 C 
ATOM     12  O   UNL     1       7.474   4.650  15.283  0.00  0.00    +0.000 OA
BRANCH  11  13
ATOM     13  O   UNL     1       8.221   4.095  17.335  0.00  0.00    +0.000 OA
ATOM     14  H   UNL     1       8.265   3.140  17.519  0.00  0.00    +0.000 HD
ENDBRANCH  11  13
ENDBRANCH  10  11
ENDBRANCH   3   5
BRANCH   2  15
ATOM     15  C   UNL     1       8.252   8.340  18.263  0.00  0.00    +0.000 C 
ATOM     16  C   UNL     1       8.316   9.684  18.221  0.00  0.00    +0.000 C 
BRANCH  16  17
ATOM     17  C   UNL     1       9.435  10.490  18.731  0.00  0.00    +0.000 A 
ATOM     18  C   UNL     1      10.367  11.021  17.827  0.00  0.00    +0.000 A 
ATOM     19  C   UNL     1      11.430  11.810  18.278  0.00  0.00    +0.000 A 
ATOM     20  C   UNL     1      11.567  12.085  19.636  0.00  0.00    +0.000 A 
ATOM     21  C   UNL     1      10.636  11.581  20.542  0.00  0.00    +0.000 A 
ATOM     22  C   UNL     1       9.573  10.797  20.092  0.00  0.00    +0.000 A 
ENDBRANCH  16  17
ENDBRANCH   2  15
TORSDOF 5
ENDMDL
MODEL 9
REMARK VINA RESULT:      -7.8      5.587      7.108
REMARK  Name = 
REMARK  5 active torsions:
REMARK  status: ('A' for Active; 'I' for Inactive)
REMARK    1  A    between atoms: C_2  and  C_3
REMARK    2  A    between atoms: C_4  and  C_5
REMARK    3  A    between atoms: N_11  and  C_12
REMARK    4  A    between atoms: C_17  and  C_18
REMARK    5  A    between atoms: C_18  and  O_20
REMARK                            x       y       z     vdW  Elec       q    Type
REMARK                         _______ _______ _______ _____ _____    ______ ____
ROOT
ATOM      1  O   UNL     1       5.954   4.127  19.189  0.00  0.00    +0.000 OA
ATOM      2  C   UNL     1       5.331   4.160  18.133  0.00  0.00    +0.000 C 
ATOM      3  N   UNL     1       3.979   3.929  17.971  0.00  0.00    +0.000 N 
ATOM      4  H   UNL     1       3.639   3.759  17.021  0.00  0.00    +0.000 HD
ENDROOT
BRANCH   3   5
ATOM      5  C   UNL     1       3.018   3.752  19.008  0.00  0.00    +0.000 A 
ATOM      6  C   UNL     1       2.744   2.480  19.531  0.00  0.00    +0.000 A 
ATOM      7  C   UNL     1       1.814   2.295  20.556  0.00  0.00    +0.000 A 
ATOM      8  C   UNL     1       1.130   3.381  21.083  0.00  0.00    +0.000 A 
ATOM      9  C   UNL     1       1.381   4.659  20.588  0.00  0.00    +0.000 A 
ATOM     10  C   UNL     1       2.337   4.858  19.569  0.00  0.00    +0.000 A 
BRANCH  10  11
ATOM     11  C   UNL     1       2.574   6.234  19.055  0.00  0.00    +0.000 C 
ATOM     12  O   UNL     1       2.793   6.468  17.876  0.00  0.00    +0.000 OA
BRANCH  11  13
ATOM     13  O   UNL     1       2.600   7.200  19.999  0.00  0.00    +0.000 OA
ATOM     14  H   UNL     1       1.844   7.216  20.612  0.00  0.00    +0.000 HD
ENDBRANCH  11  13
ENDBRANCH  10  11
ENDBRANCH   3   5
BRANCH   2  15
ATOM     15  C   UNL     1       6.036   4.467  16.858  0.00  0.00    +0.000 C 
ATOM     16  C   UNL     1       5.531   4.003  15.700  0.00  0.00    +0.000 C 
BRANCH  16  17
ATOM     17  C   UNL     1       6.147   4.189  14.377  0.00  0.00    +0.000 A 
ATOM     18  C   UNL     1       7.214   5.087  14.237  0.00  0.00    +0.000 A 
ATOM     19  C   UNL     1       7.836   5.270  12.997  0.00  0.00    +0.000 A 
ATOM     20  C   UNL     1       7.405   4.548  11.888  0.00  0.00    +0.000 A 
ATOM     21  C   UNL     1       6.359   3.636  12.019  0.00  0.00    +0.000 A 
ATOM     22  C   UNL     1       5.740   3.452  13.256  0.00  0.00    +0.000 A 
ENDBRANCH  16  17
ENDBRANCH   2  15
TORSDOF 5
ENDMDL
