MODEL 1
REMARK VINA RESULT:      -8.6      0.000      0.000
REMARK  Name = 
REMARK  4 active torsions:
REMARK  status: ('A' for Active; 'I' for Inactive)
REMARK    1  A    between atoms: C_1  and  C_2
REMARK    2  A    between atoms: C_4  and  C_5
REMARK    3  A    between atoms: C_5  and  C_6
REMARK    4  A    between atoms: C_12  and  C_13
REMARK                            x       y       z     vdW  Elec       q    Type
REMARK                         _______ _______ _______ _____ _____    ______ ____
ROOT
ATOM      1  C   UNL     1       6.003   4.908  18.078  0.00  0.00    +0.000 C 
ATOM      2  O   UNL     1       5.999   4.151  19.054  0.00  0.00    +0.000 OA
ATOM      3  N   UNL     1       4.920   5.720  17.793  0.00  0.00    +0.000 N 
ATOM      4  C   UNL     1       4.754   6.626  16.668  0.00  0.00    +0.000 C 
ATOM      5  C   UNL     1       4.031   7.812  17.279  0.00  0.00    +0.000 C 
ATOM      6  C   UNL     1       3.108   7.175  18.315  0.00  0.00    +0.000 C 
ATOM      7  C   UNL     1       3.848   5.903  18.771  0.00  0.00    +0.000 C 
ENDROOT
BRANCH   7   8
ATOM      8  C   UNL     1       2.889   4.733  18.898  0.00  0.00    +0.000 A 
ATOM      9  C   UNL     1       2.200   4.204  17.795  0.00  0.00    +0.000 A 
ATOM     10  C   UNL     1       1.302   3.146  17.953  0.00  0.00    +0.000 A 
ATOM     11  C   UNL     1       1.071   2.606  19.217  0.00  0.00    +0.000 A 
ATOM     12  C   UNL     1       1.743   3.127  20.319  0.00  0.00    +0.000 A 
ATOM     13 BR   UNL     1       1.433   2.397  22.036  0.00  0.00    +0.000 Br
ATOM     14  C   UNL     1       2.643   4.183  20.168  0.00  0.00    +0.000 A 
ENDBRANCH   7   8
BRANCH   1  15
ATOM     15  C   UNL     1       7.247   5.019  17.223  0.00  0.00    +0.000 C 
BRANCH  15  19
ATOM     16  C   UNL     1       5.883   3.292  12.613  0.00  0.00    +0.000 C 
ATOM     17  C   UNL     1       6.397   4.021  13.793  0.00  0.00    +0.000 A 
ATOM     18  C   UNL     1       6.179   3.862  15.143  0.00  0.00    +0.000 A 
ATOM     19  C   UNL     1       6.992   4.837  15.771  0.00  0.00    +0.000 A 
ATOM     20  N   UNL     1       7.650   5.579  14.868  0.00  0.00    +0.000 NA
ATOM     21  N   UNL     1       7.282   5.058  13.684  0.00  0.00    +0.000 N 
ATOM     22  H   UNL     1       7.688   5.448  12.841  0.00  0.00    +0.000 HD
ENDBRANCH  15  19
ENDBRANCH   1  15
TORSDOF 3
ENDMDL
MODEL 2
REMARK VINA RESULT:      -8.4      2.475      3.574
REMARK  Name = 
REMARK  4 active torsions:
REMARK  status: ('A' for Active; 'I' for Inactive)
REMARK    1  A    between atoms: C_1  and  C_2
REMARK    2  A    between atoms: C_4  and  C_5
REMARK    3  A    between atoms: C_5  and  C_6
REMARK    4  A    between atoms: C_12  and  C_13
REMARK                            x       y       z     vdW  Elec       q    Type
REMARK                         _______ _______ _______ _____ _____    ______ ____
ROOT
ATOM      1  C   UNL     1       4.893   5.144  17.137  0.00  0.00    +0.000 C 
ATOM      2  O   UNL     1       4.655   6.294  16.753  0.00  0.00    +0.000 OA
ATOM      3  N   UNL     1       3.930   4.389  17.782  0.00  0.00    +0.000 N 
ATOM      4  C   UNL     1       4.065   3.049  18.331  0.00  0.00    +0.000 C 
ATOM      5  C   UNL     1       2.725   2.408  18.018  0.00  0.00    +0.000 C 
ATOM      6  C   UNL     1       1.733   3.557  18.172  0.00  0.00    +0.000 C 
ATOM      7  C   UNL     1       2.533   4.820  17.800  0.00  0.00    +0.000 C 
ENDROOT
BRANCH   7   8
ATOM      8  C   UNL     1       2.224   5.959  18.755  0.00  0.00    +0.000 A 
ATOM      9  C   UNL     1       2.061   5.758  20.135  0.00  0.00    +0.000 A 
ATOM     10  C   UNL     1       1.747   6.824  20.981  0.00  0.00    +0.000 A 
ATOM     11  C   UNL     1       1.584   8.106  20.461  0.00  0.00    +0.000 A 
ATOM     12  C   UNL     1       1.737   8.316  19.093  0.00  0.00    +0.000 A 
ATOM     13 BR   UNL     1       1.516  10.055  18.384  0.00  0.00    +0.000 Br
ATOM     14  C   UNL     1       2.051   7.256  18.242  0.00  0.00    +0.000 A 
ENDBRANCH   7   8
BRANCH   1  15
ATOM     15  C   UNL     1       6.232   4.512  16.825  0.00  0.00    +0.000 C 
BRANCH  15  19
ATOM     16  C   UNL     1       7.157   3.994  11.828  0.00  0.00    +0.000 C 
ATOM     17  C   UNL     1       7.053   4.395  13.249  0.00  0.00    +0.000 A 
ATOM     18  C   UNL     1       6.263   3.941  14.280  0.00  0.00    +0.000 A 
ATOM     19  C   UNL     1       6.662   4.689  15.415  0.00  0.00    +0.000 A 
ATOM     20  N   UNL     1       7.619   5.576  15.103  0.00  0.00    +0.000 NA
ATOM     21  N   UNL     1       7.843   5.369  13.794  0.00  0.00    +0.000 N 
ATOM     22  H   UNL     1       8.565   5.917  13.338  0.00  0.00    +0.000 HD
ENDBRANCH  15  19
ENDBRANCH   1  15
TORSDOF 3
ENDMDL
MODEL 3
REMARK VINA RESULT:      -8.1      1.695      2.596
REMARK  Name = 
REMARK  4 active torsions:
REMARK  status: ('A' for Active; 'I' for Inactive)
REMARK    1  A    between atoms: C_1  and  C_2
REMARK    2  A    between atoms: C_4  and  C_5
REMARK    3  A    between atoms: C_5  and  C_6
REMARK    4  A    between atoms: C_12  and  C_13
REMARK                            x       y       z     vdW  Elec       q    Type
REMARK                         _______ _______ _______ _____ _____    ______ ____
ROOT
ATOM      1  C   UNL     1       6.218   4.182  15.887  0.00  0.00    +0.000 C 
ATOM      2  O   UNL     1       5.579   3.129  15.970  0.00  0.00    +0.000 OA
ATOM      3  N   UNL     1       6.353   5.028  16.973  0.00  0.00    +0.000 N 
ATOM      4  C   UNL     1       7.031   6.314  17.026  0.00  0.00    +0.000 C 
ATOM      5  C   UNL     1       7.683   6.309  18.396  0.00  0.00    +0.000 C 
ATOM      6  C   UNL     1       6.675   5.569  19.271  0.00  0.00    +0.000 C 
ATOM      7  C   UNL     1       5.971   4.587  18.314  0.00  0.00    +0.000 C 
ENDROOT
BRANCH   7   8
ATOM      8  C   UNL     1       4.476   4.552  18.576  0.00  0.00    +0.000 A 
ATOM      9  C   UNL     1       3.561   5.287  17.805  0.00  0.00    +0.000 A 
ATOM     10  C   UNL     1       2.195   5.255  18.094  0.00  0.00    +0.000 A 
ATOM     11  C   UNL     1       1.722   4.495  19.161  0.00  0.00    +0.000 A 
ATOM     12  C   UNL     1       2.621   3.768  19.937  0.00  0.00    +0.000 A 
ATOM     13 BR   UNL     1       1.982   2.735  21.387  0.00  0.00    +0.000 Br
ATOM     14  C   UNL     1       3.987   3.794  19.654  0.00  0.00    +0.000 A 
ENDBRANCH   7   8
BRANCH   1  15
ATOM     15  C   UNL     1       6.943   4.519  14.602  0.00  0.00    +0.000 C 
BRANCH  15  19
ATOM     16  C   UNL     1       3.700   2.988  10.964  0.00  0.00    +0.000 C 
ATOM     17  C   UNL     1       4.845   3.286  11.853  0.00  0.00    +0.000 A 
ATOM     18  C   UNL     1       4.989   4.152  12.913  0.00  0.00    +0.000 A 
ATOM     19  C   UNL     1       6.307   3.945  13.389  0.00  0.00    +0.000 A 
ATOM     20  N   UNL     1       6.954   3.031  12.651  0.00  0.00    +0.000 NA
ATOM     21  N   UNL     1       6.046   2.642  11.740  0.00  0.00    +0.000 N 
ATOM     22  H   UNL     1       6.308   1.918  11.080  0.00  0.00    +0.000 HD
ENDBRANCH  15  19
ENDBRANCH   1  15
TORSDOF 3
ENDMDL
MODEL 4
REMARK VINA RESULT:      -8.1      1.136      1.354
REMARK  Name = 
REMARK  4 active torsions:
REMARK  status: ('A' for Active; 'I' for Inactive)
REMARK    1  A    between atoms: C_1  and  C_2
REMARK    2  A    between atoms: C_4  and  C_5
REMARK    3  A    between atoms: C_5  and  C_6
REMARK    4  A    between atoms: C_12  and  C_13
REMARK                            x       y       z     vdW  Elec       q    Type
REMARK                         _______ _______ _______ _____ _____    ______ ____
ROOT
ATOM      1  C   UNL     1       4.988   6.355  18.108  0.00  0.00    +0.000 C 
ATOM      2  O   UNL     1       5.349   5.461  18.880  0.00  0.00    +0.000 OA
ATOM      3  N   UNL     1       3.710   6.883  18.169  0.00  0.00    +0.000 N 
ATOM      4  C   UNL     1       3.121   7.898  17.311  0.00  0.00    +0.000 C 
ATOM      5  C   UNL     1       2.274   8.715  18.269  0.00  0.00    +0.000 C 
ATOM      6  C   UNL     1       1.745   7.678  19.255  0.00  0.00    +0.000 C 
ATOM      7  C   UNL     1       2.836   6.590  19.305  0.00  0.00    +0.000 C 
ENDROOT
BRANCH   7   8
ATOM      8  C   UNL     1       2.220   5.203  19.301  0.00  0.00    +0.000 A 
ATOM      9  C   UNL     1       1.746   4.595  18.127  0.00  0.00    +0.000 A 
ATOM     10  C   UNL     1       1.158   3.329  18.165  0.00  0.00    +0.000 A 
ATOM     11  C   UNL     1       1.027   2.653  19.376  0.00  0.00    +0.000 A 
ATOM     12  C   UNL     1       1.487   3.249  20.548  0.00  0.00    +0.000 A 
ATOM     13 BR   UNL     1       1.311   2.335  22.194  0.00  0.00    +0.000 Br
ATOM     14  C   UNL     1       2.077   4.513  20.517  0.00  0.00    +0.000 A 
ENDBRANCH   7   8
BRANCH   1  15
ATOM     15  C   UNL     1       5.980   6.949  17.133  0.00  0.00    +0.000 C 
BRANCH  15  19
ATOM     16  C   UNL     1       5.880   3.636  13.246  0.00  0.00    +0.000 C 
ATOM     17  C   UNL     1       6.206   4.589  14.330  0.00  0.00    +0.000 A 
ATOM     18  C   UNL     1       5.423   5.429  15.088  0.00  0.00    +0.000 A 
ATOM     19  C   UNL     1       6.312   6.052  15.997  0.00  0.00    +0.000 A 
ATOM     20  N   UNL     1       7.576   5.650  15.797  0.00  0.00    +0.000 NA
ATOM     21  N   UNL     1       7.481   4.759  14.794  0.00  0.00    +0.000 N 
ATOM     22  H   UNL     1       8.327   4.291  14.487  0.00  0.00    +0.000 HD
ENDBRANCH  15  19
ENDBRANCH   1  15
TORSDOF 3
ENDMDL
MODEL 5
REMARK VINA RESULT:      -8.0      2.382      3.677
REMARK  Name = 
REMARK  4 active torsions:
REMARK  status: ('A' for Active; 'I' for Inactive)
REMARK    1  A    between atoms: C_1  and  C_2
REMARK    2  A    between atoms: C_4  and  C_5
REMARK    3  A    between atoms: C_5  and  C_6
REMARK    4  A    between atoms: C_12  and  C_13
REMARK                            x       y       z     vdW  Elec       q    Type
REMARK                         _______ _______ _______ _____ _____    ______ ____
ROOT
ATOM      1  C   UNL     1       4.685   6.265  17.398  0.00  0.00    +0.000 C 
ATOM      2  O   UNL     1       4.240   7.082  16.586  0.00  0.00    +0.000 OA
ATOM      3  N   UNL     1       3.890   5.747  18.405  0.00  0.00    +0.000 N 
ATOM      4  C   UNL     1       4.273   4.819  19.457  0.00  0.00    +0.000 C 
ATOM      5  C   UNL     1       3.052   3.929  19.598  0.00  0.00    +0.000 C 
ATOM      6  C   UNL     1       1.884   4.880  19.352  0.00  0.00    +0.000 C 
ATOM      7  C   UNL     1       2.442   5.947  18.389  0.00  0.00    +0.000 C 
ENDROOT
BRANCH   7   8
ATOM      8  C   UNL     1       1.980   7.335  18.791  0.00  0.00    +0.000 A 
ATOM      9  C   UNL     1       1.835   8.377  17.861  0.00  0.00    +0.000 A 
ATOM     10  C   UNL     1       1.437   9.652  18.271  0.00  0.00    +0.000 A 
ATOM     11  C   UNL     1       1.185   9.908  19.617  0.00  0.00    +0.000 A 
ATOM     12  C   UNL     1       1.333   8.884  20.550  0.00  0.00    +0.000 A 
ATOM     13 BR   UNL     1       0.992   9.228  22.378  0.00  0.00    +0.000 Br
ATOM     14  C   UNL     1       1.729   7.608  20.147  0.00  0.00    +0.000 A 
ENDBRANCH   7   8
BRANCH   1  15
ATOM     15  C   UNL     1       6.099   5.749  17.243  0.00  0.00    +0.000 C 
BRANCH  15  19
ATOM     16  C   UNL     1       6.381   3.541  12.645  0.00  0.00    +0.000 C 
ATOM     17  C   UNL     1       6.534   4.342  13.879  0.00  0.00    +0.000 A 
ATOM     18  C   UNL     1       5.728   4.498  14.984  0.00  0.00    +0.000 A 
ATOM     19  C   UNL     1       6.444   5.358  15.852  0.00  0.00    +0.000 A 
ATOM     20  N   UNL     1       7.608   5.740  15.308  0.00  0.00    +0.000 NA
ATOM     21  N   UNL     1       7.642   5.104  14.124  0.00  0.00    +0.000 N 
ATOM     22  H   UNL     1       8.463   5.221  13.539  0.00  0.00    +0.000 HD
ENDBRANCH  15  19
ENDBRANCH   1  15
TORSDOF 3
ENDMDL
MODEL 6
REMARK VINA RESULT:      -7.6      3.309      6.371
REMARK  Name = 
REMARK  4 active torsions:
REMARK  status: ('A' for Active; 'I' for Inactive)
REMARK    1  A    between atoms: C_1  and  C_2
REMARK    2  A    between atoms: C_4  and  C_5
REMARK    3  A    between atoms: C_5  and  C_6
REMARK    4  A    between atoms: C_12  and  C_13
REMARK                            x       y       z     vdW  Elec       q    Type
REMARK                         _______ _______ _______ _____ _____    ______ ____
ROOT
ATOM      1  C   UNL     1       3.322   5.508  19.489  0.00  0.00    +0.000 C 
ATOM      2  O   UNL     1       4.465   5.776  19.873  0.00  0.00    +0.000 OA
ATOM      3  N   UNL     1       3.079   4.434  18.651  0.00  0.00    +0.000 N 
ATOM      4  C   UNL     1       1.809   4.017  18.079  0.00  0.00    +0.000 C 
ATOM      5  C   UNL     1       1.889   2.502  18.121  0.00  0.00    +0.000 C 
ATOM      6  C   UNL     1       3.361   2.213  17.841  0.00  0.00    +0.000 C 
ATOM      7  C   UNL     1       4.116   3.433  18.402  0.00  0.00    +0.000 C 
ENDROOT
BRANCH   7   8
ATOM      8  C   UNL     1       5.218   3.872  17.456  0.00  0.00    +0.000 A 
ATOM      9  C   UNL     1       6.393   4.494  17.908  0.00  0.00    +0.000 A 
ATOM     10  C   UNL     1       7.373   4.913  17.006  0.00  0.00    +0.000 A 
ATOM     11  C   UNL     1       7.194   4.723  15.638  0.00  0.00    +0.000 A 
ATOM     12  C   UNL     1       6.030   4.114  15.177  0.00  0.00    +0.000 A 
ATOM     13 BR   UNL     1       5.782   3.854  13.320  0.00  0.00    +0.000 Br
ATOM     14  C   UNL     1       5.046   3.692  16.072  0.00  0.00    +0.000 A 
ENDBRANCH   7   8
BRANCH   1  15
ATOM     15  C   UNL     1       2.150   6.312  20.009  0.00  0.00    +0.000 C 
BRANCH  15  19
ATOM     16  C   UNL     1       0.833  11.080  18.735  0.00  0.00    +0.000 C 
ATOM     17  C   UNL     1       1.373   9.707  18.849  0.00  0.00    +0.000 A 
ATOM     18  C   UNL     1       1.379   8.801  19.884  0.00  0.00    +0.000 A 
ATOM     19  C   UNL     1       2.003   7.641  19.363  0.00  0.00    +0.000 A 
ATOM     20  N   UNL     1       2.391   7.825  18.092  0.00  0.00    +0.000 NA
ATOM     21  N   UNL     1       1.989   9.075  17.804  0.00  0.00    +0.000 N 
ATOM     22  H   UNL     1       2.151   9.427  16.867  0.00  0.00    +0.000 HD
ENDBRANCH  15  19
ENDBRANCH   1  15
TORSDOF 3
ENDMDL
MODEL 7
REMARK VINA RESULT:      -7.5      2.447      3.557
REMARK  Name = 
REMARK  4 active torsions:
REMARK  status: ('A' for Active; 'I' for Inactive)
REMARK    1  A    between atoms: C_1  and  C_2
REMARK    2  A    between atoms: C_4  and  C_5
REMARK    3  A    between atoms: C_5  and  C_6
REMARK    4  A    between atoms: C_12  and  C_13
REMARK                            x       y       z     vdW  Elec       q    Type
REMARK                         _______ _______ _______ _____ _____    ______ ____
ROOT
ATOM      1  C   UNL     1       5.392   5.953  18.142  0.00  0.00    +0.000 C 
ATOM      2  O   UNL     1       5.578   5.126  19.040  0.00  0.00    +0.000 OA
ATOM      3  N   UNL     1       4.161   6.561  17.970  0.00  0.00    +0.000 N 
ATOM      4  C   UNL     1       3.771   7.513  16.942  0.00  0.00    +0.000 C 
ATOM      5  C   UNL     1       2.866   8.478  17.686  0.00  0.00    +0.000 C 
ATOM      6  C   UNL     1       2.133   7.585  18.683  0.00  0.00    +0.000 C 
ATOM      7  C   UNL     1       3.122   6.445  18.992  0.00  0.00    +0.000 C 
ENDROOT
BRANCH   7   8
ATOM      8  C   UNL     1       2.410   5.105  19.036  0.00  0.00    +0.000 A 
ATOM      9  C   UNL     1       1.853   4.514  17.891  0.00  0.00    +0.000 A 
ATOM     10  C   UNL     1       1.178   3.294  17.972  0.00  0.00    +0.000 A 
ATOM     11  C   UNL     1       1.043   2.649  19.200  0.00  0.00    +0.000 A 
ATOM     12  C   UNL     1       1.586   3.229  20.343  0.00  0.00    +0.000 A 
ATOM     13 BR   UNL     1       1.405   2.357  22.012  0.00  0.00    +0.000 Br
ATOM     14  C   UNL     1       2.262   4.447  20.269  0.00  0.00    +0.000 A 
ENDBRANCH   7   8
BRANCH   1  15
ATOM     15  C   UNL     1       6.549   6.378  17.264  0.00  0.00    +0.000 C 
BRANCH  15  19
ATOM     16  C   UNL     1       9.116  10.674  18.287  0.00  0.00    +0.000 C 
ATOM     17  C   UNL     1       8.505   9.327  18.240  0.00  0.00    +0.000 A 
ATOM     18  C   UNL     1       7.479   8.805  17.486  0.00  0.00    +0.000 A 
ATOM     19  C   UNL     1       7.394   7.442  17.863  0.00  0.00    +0.000 A 
ATOM     20  N   UNL     1       8.289   7.142  18.816  0.00  0.00    +0.000 NA
ATOM     21  N   UNL     1       8.953   8.294  19.016  0.00  0.00    +0.000 N 
ATOM     22  H   UNL     1       9.715   8.298  19.685  0.00  0.00    +0.000 HD
ENDBRANCH  15  19
ENDBRANCH   1  15
TORSDOF 3
ENDMDL
MODEL 8
REMARK VINA RESULT:      -7.5      1.965      3.024
REMARK  Name = 
REMARK  4 active torsions:
REMARK  status: ('A' for Active; 'I' for Inactive)
REMARK    1  A    between atoms: C_1  and  C_2
REMARK    2  A    between atoms: C_4  and  C_5
REMARK    3  A    between atoms: C_5  and  C_6
REMARK    4  A    between atoms: C_12  and  C_13
REMARK                            x       y       z     vdW  Elec       q    Type
REMARK                         _______ _______ _______ _____ _____    ______ ____
ROOT
ATOM      1  C   UNL     1       5.691   4.816  18.559  0.00  0.00    +0.000 C 
ATOM      2  O   UNL     1       5.642   4.129  19.585  0.00  0.00    +0.000 OA
ATOM      3  N   UNL     1       4.609   5.576  18.152  0.00  0.00    +0.000 N 
ATOM      4  C   UNL     1       4.492   6.396  16.957  0.00  0.00    +0.000 C 
ATOM      5  C   UNL     1       3.704   7.601  17.437  0.00  0.00    +0.000 C 
ATOM      6  C   UNL     1       2.733   7.012  18.457  0.00  0.00    +0.000 C 
ATOM      7  C   UNL     1       3.473   5.796  19.047  0.00  0.00    +0.000 C 
ENDROOT
BRANCH   7   8
ATOM      8  C   UNL     1       2.536   4.612  19.197  0.00  0.00    +0.000 A 
ATOM      9  C   UNL     1       1.831   4.068  18.111  0.00  0.00    +0.000 A 
ATOM     10  C   UNL     1       0.953   2.997  18.292  0.00  0.00    +0.000 A 
ATOM     11  C   UNL     1       0.760   2.456  19.561  0.00  0.00    +0.000 A 
ATOM     12  C   UNL     1       1.448   2.991  20.647  0.00  0.00    +0.000 A 
ATOM     13 BR   UNL     1       1.188   2.259  22.371  0.00  0.00    +0.000 Br
ATOM     14  C   UNL     1       2.327   4.060  20.474  0.00  0.00    +0.000 A 
ENDBRANCH   7   8
BRANCH   1  15
ATOM     15  C   UNL     1       6.983   4.903  17.776  0.00  0.00    +0.000 C 
BRANCH  15  19
ATOM     16  C   UNL     1       8.880   9.516  18.879  0.00  0.00    +0.000 C 
ATOM     17  C   UNL     1       8.359   8.270  18.274  0.00  0.00    +0.000 A 
ATOM     18  C   UNL     1       8.093   7.028  18.804  0.00  0.00    +0.000 A 
ATOM     19  C   UNL     1       7.564   6.269  17.732  0.00  0.00    +0.000 A 
ATOM     20  N   UNL     1       7.532   6.984  16.597  0.00  0.00    +0.000 NA
ATOM     21  N   UNL     1       8.006   8.189  16.955  0.00  0.00    +0.000 N 
ATOM     22  H   UNL     1       8.045   8.918  16.252  0.00  0.00    +0.000 HD
ENDBRANCH  15  19
ENDBRANCH   1  15
TORSDOF 3
ENDMDL
MODEL 9
REMARK VINA RESULT:      -7.5      3.246      4.927
REMARK  Name = 
REMARK  4 active torsions:
REMARK  status: ('A' for Active; 'I' for Inactive)
REMARK    1  A    between atoms: C_1  and  C_2
REMARK    2  A    between atoms: C_4  and  C_5
REMARK    3  A    between atoms: C_5  and  C_6
REMARK    4  A    between atoms: C_12  and  C_13
REMARK                            x       y       z     vdW  Elec       q    Type
REMARK                         _______ _______ _______ _____ _____    ______ ____
ROOT
ATOM      1  C   UNL     1       5.027   6.618  17.240  0.00  0.00    +0.000 C 
ATOM      2  O   UNL     1       4.443   7.323  16.411  0.00  0.00    +0.000 OA
ATOM      3  N   UNL     1       4.339   5.999  18.269  0.00  0.00    +0.000 N 
ATOM      4  C   UNL     1       4.882   5.181  19.342  0.00  0.00    +0.000 C 
ATOM      5  C   UNL     1       3.834   4.097  19.517  0.00  0.00    +0.000 C 
ATOM      6  C   UNL     1       2.518   4.824  19.257  0.00  0.00    +0.000 C 
ATOM      7  C   UNL     1       2.877   5.944  18.261  0.00  0.00    +0.000 C 
ENDROOT
BRANCH   7   8
ATOM      8  C   UNL     1       2.184   7.242  18.630  0.00  0.00    +0.000 A 
ATOM      9  C   UNL     1       1.807   8.192  17.667  0.00  0.00    +0.000 A 
ATOM     10  C   UNL     1       1.197   9.390  18.045  0.00  0.00    +0.000 A 
ATOM     11  C   UNL     1       0.961   9.662  19.391  0.00  0.00    +0.000 A 
ATOM     12  C   UNL     1       1.336   8.730  20.356  0.00  0.00    +0.000 A 
ATOM     13 BR   UNL     1       1.017   9.095  22.184  0.00  0.00    +0.000 Br
ATOM     14  C   UNL     1       1.945   7.531  19.985  0.00  0.00    +0.000 A 
ENDBRANCH   7   8
BRANCH   1  15
ATOM     15  C   UNL     1       6.508   6.351  17.085  0.00  0.00    +0.000 C 
BRANCH  15  19
ATOM     16  C   UNL     1       9.233  10.462  18.417  0.00  0.00    +0.000 C 
ATOM     17  C   UNL     1       8.555   9.153  18.285  0.00  0.00    +0.000 A 
ATOM     18  C   UNL     1       7.552   8.713  17.452  0.00  0.00    +0.000 A 
ATOM     19  C   UNL     1       7.370   7.346  17.773  0.00  0.00    +0.000 A 
ATOM     20  N   UNL     1       8.187   6.966  18.766  0.00  0.00    +0.000 NA
ATOM     21  N   UNL     1       8.898   8.071  19.048  0.00  0.00    +0.000 N 
ATOM     22  H   UNL     1       9.615   8.011  19.762  0.00  0.00    +0.000 HD
ENDBRANCH  15  19
ENDBRANCH   1  15
TORSDOF 3
ENDMDL
