MODEL 1
REMARK VINA RESULT:      -8.7      0.000      0.000
REMARK  Name = 
REMARK  4 active torsions:
REMARK  status: ('A' for Active; 'I' for Inactive)
REMARK    1  A    between atoms: C_5  and  O_7
REMARK    2  A    between atoms: O_7  and  C_8
REMARK    3  A    between atoms: C_8  and  C_9
REMARK    4  A    between atoms: C_13  and  N_14
REMARK                            x       y       z     vdW  Elec       q    Type
REMARK                         _______ _______ _______ _____ _____    ______ ____
ROOT
ATOM      1  C   UNL     1       4.255   4.473  17.069  0.00  0.00    +0.000 A 
ATOM      2  C   UNL     1       3.740   3.370  17.750  0.00  0.00    +0.000 A 
ATOM      3  C   UNL     1       2.788   3.553  18.751  0.00  0.00    +0.000 A 
ATOM      4  C   UNL     1       2.347   4.839  19.074  0.00  0.00    +0.000 A 
ATOM      5  C   UNL     1       2.835   5.968  18.406  0.00  0.00    +0.000 A 
ATOM      6  C   UNL     1       3.794   5.753  17.404  0.00  0.00    +0.000 A 
ENDROOT
BRANCH   5   7
ATOM      7  N   UNL     1       2.441   7.247  18.727  0.00  0.00    +0.000 N 
ATOM      8  C   UNL     1       2.644   8.397  17.822  0.00  0.00    +0.000 C 
ATOM      9  C   UNL     1       1.389   9.315  17.845  0.00  0.00    +0.000 C 
ATOM     10  N   UNL     1       1.087   9.656  19.240  0.00  0.00    +0.000 N 
ATOM     11  C   UNL     1       0.683  10.922  19.580  0.00  0.00    +0.000 A 
ATOM     12  C   UNL     1       0.924  11.403  20.869  0.00  0.00    +0.000 A 
ATOM     13  C   UNL     1       0.583  12.708  21.209  0.00  0.00    +0.000 A 
ATOM     14  C   UNL     1      -0.012  13.513  20.254  0.00  0.00    +0.000 A 
ATOM     15  C   UNL     1      -0.220  12.976  18.996  0.00  0.00    +0.000 A 
ATOM     16  N   UNL     1       0.128  11.718  18.643  0.00  0.00    +0.000 NA
ATOM     17  C   UNL     1       0.832   8.502  20.109  0.00  0.00    +0.000 C 
ATOM     18  C   UNL     1       2.084   7.605  20.114  0.00  0.00    +0.000 C 
ENDBRANCH   5   7
BRANCH   1  19
ATOM     19  C   UNL     1       5.285   4.307  15.981  0.00  0.00    +0.000 C 
BRANCH  19  20
ATOM     20  O   UNL     1       6.586   4.073  16.541  0.00  0.00    +0.000 OA
BRANCH  20  25
ATOM     21  N   UNL     1       8.091   5.391  20.511  0.00  0.00    +0.000 NA
ATOM     22  C   UNL     1       7.976   5.813  19.305  0.00  0.00    +0.000 C 
ATOM     23  N   UNL     1       8.379   7.039  18.916  0.00  0.00    +0.000 N 
ATOM     24  N   UNL     1       7.412   4.943  18.424  0.00  0.00    +0.000 N 
ATOM     25  C   UNL     1       7.162   5.165  17.098  0.00  0.00    +0.000 C 
ATOM     26  O   UNL     1       7.419   6.207  16.502  0.00  0.00    +0.000 OA
ATOM     27  H   UNL     1       8.557   6.112  21.064  0.00  0.00    +0.000 HD
ATOM     28  H   UNL     1       8.383   7.777  19.606  0.00  0.00    +0.000 HD
ATOM     29  H   UNL     1       8.023   7.338  18.006  0.00  0.00    +0.000 HD
ATOM     30  H   UNL     1       7.151   4.048  18.803  0.00  0.00    +0.000 HD
ENDBRANCH  20  25
ENDBRANCH  19  20
ENDBRANCH   1  19
TORSDOF 4
ENDMDL
MODEL 2
REMARK VINA RESULT:      -8.4      1.755      2.293
REMARK  Name = 
REMARK  4 active torsions:
REMARK  status: ('A' for Active; 'I' for Inactive)
REMARK    1  A    between atoms: C_5  and  O_7
REMARK    2  A    between atoms: O_7  and  C_8
REMARK    3  A    between atoms: C_8  and  C_9
REMARK    4  A    between atoms: C_13  and  N_14
REMARK                            x       y       z     vdW  Elec       q    Type
REMARK                         _______ _______ _______ _____ _____    ______ ____
ROOT
ATOM      1  C   UNL     1       3.711   4.144  19.124  0.00  0.00    +0.000 A 
ATOM      2  C   UNL     1       3.016   3.285  19.974  0.00  0.00    +0.000 A 
ATOM      3  C   UNL     1       1.983   3.777  20.768  0.00  0.00    +0.000 A 
ATOM      4  C   UNL     1       1.641   5.131  20.716  0.00  0.00    +0.000 A 
ATOM      5  C   UNL     1       2.311   6.021  19.869  0.00  0.00    +0.000 A 
ATOM      6  C   UNL     1       3.348   5.497  19.082  0.00  0.00    +0.000 A 
ENDROOT
BRANCH   5   7
ATOM      7  N   UNL     1       2.015   7.365  19.823  0.00  0.00    +0.000 N 
ATOM      8  C   UNL     1       2.320   8.211  18.651  0.00  0.00    +0.000 C 
ATOM      9  C   UNL     1       1.142   9.189  18.384  0.00  0.00    +0.000 C 
ATOM     10  N   UNL     1       0.849   9.915  19.626  0.00  0.00    +0.000 N 
ATOM     11  C   UNL     1       0.541  11.251  19.601  0.00  0.00    +0.000 A 
ATOM     12  C   UNL     1       0.802  12.042  20.722  0.00  0.00    +0.000 A 
ATOM     13  C   UNL     1       0.560  13.412  20.688  0.00  0.00    +0.000 A 
ATOM     14  C   UNL     1       0.045  13.971  19.533  0.00  0.00    +0.000 A 
ATOM     15  C   UNL     1      -0.188  13.132  18.458  0.00  0.00    +0.000 A 
ATOM     16  N   UNL     1       0.064  11.803  18.466  0.00  0.00    +0.000 NA
ATOM     17  C   UNL     1       0.491   9.059  20.763  0.00  0.00    +0.000 C 
ATOM     18  C   UNL     1       1.668   8.108  21.050  0.00  0.00    +0.000 C 
ENDBRANCH   5   7
BRANCH   1  19
ATOM     19  C   UNL     1       4.834   3.642  18.252  0.00  0.00    +0.000 C 
BRANCH  19  20
ATOM     20  O   UNL     1       6.066   4.306  18.571  0.00  0.00    +0.000 OA
BRANCH  20  25
ATOM     21  N   UNL     1       6.293   3.624  14.184  0.00  0.00    +0.000 NA
ATOM     22  C   UNL     1       6.793   4.373  15.097  0.00  0.00    +0.000 C 
ATOM     23  N   UNL     1       7.716   5.323  14.842  0.00  0.00    +0.000 N 
ATOM     24  N   UNL     1       6.339   4.152  16.360  0.00  0.00    +0.000 N 
ATOM     25  C   UNL     1       6.731   4.799  17.498  0.00  0.00    +0.000 C 
ATOM     26  O   UNL     1       7.571   5.694  17.541  0.00  0.00    +0.000 OA
ATOM     27  H   UNL     1       6.682   3.908  13.283  0.00  0.00    +0.000 HD
ATOM     28  H   UNL     1       8.324   5.191  14.047  0.00  0.00    +0.000 HD
ATOM     29  H   UNL     1       8.199   5.682  15.668  0.00  0.00    +0.000 HD
ATOM     30  H   UNL     1       5.645   3.428  16.452  0.00  0.00    +0.000 HD
ENDBRANCH  20  25
ENDBRANCH  19  20
ENDBRANCH   1  19
TORSDOF 4
ENDMDL
MODEL 3
REMARK VINA RESULT:      -8.3      1.021      1.273
REMARK  Name = 
REMARK  4 active torsions:
REMARK  status: ('A' for Active; 'I' for Inactive)
REMARK    1  A    between atoms: C_5  and  O_7
REMARK    2  A    between atoms: O_7  and  C_8
REMARK    3  A    between atoms: C_8  and  C_9
REMARK    4  A    between atoms: C_13  and  N_14
REMARK                            x       y       z     vdW  Elec       q    Type
REMARK                         _______ _______ _______ _____ _____    ______ ____
ROOT
ATOM      1  C   UNL     1       3.158   4.557  18.424  0.00  0.00    +0.000 A 
ATOM      2  C   UNL     1       2.808   3.714  19.479  0.00  0.00    +0.000 A 
ATOM      3  C   UNL     1       2.126   4.225  20.581  0.00  0.00    +0.000 A 
ATOM      4  C   UNL     1       1.790   5.581  20.633  0.00  0.00    +0.000 A 
ATOM      5  C   UNL     1       2.117   6.454  19.590  0.00  0.00    +0.000 A 
ATOM      6  C   UNL     1       2.806   5.912  18.493  0.00  0.00    +0.000 A 
ENDROOT
BRANCH   5   7
ATOM      7  N   UNL     1       1.827   7.799  19.630  0.00  0.00    +0.000 N 
ATOM      8  C   UNL     1       2.150   8.721  18.522  0.00  0.00    +0.000 C 
ATOM      9  C   UNL     1       0.978   9.720  18.307  0.00  0.00    +0.000 C 
ATOM     10  N   UNL     1       0.672  10.362  19.591  0.00  0.00    +0.000 N 
ATOM     11  C   UNL     1       0.370  11.698  19.653  0.00  0.00    +0.000 A 
ATOM     12  C   UNL     1       0.619  12.411  20.828  0.00  0.00    +0.000 A 
ATOM     13  C   UNL     1       0.383  13.781  20.884  0.00  0.00    +0.000 A 
ATOM     14  C   UNL     1      -0.117  14.418  19.762  0.00  0.00    +0.000 A 
ATOM     15  C   UNL     1      -0.339  13.654  18.631  0.00  0.00    +0.000 A 
ATOM     16  N   UNL     1      -0.092  12.327  18.553  0.00  0.00    +0.000 NA
ATOM     17  C   UNL     1       0.298   9.433  20.664  0.00  0.00    +0.000 C 
ATOM     18  C   UNL     1       1.468   8.459  20.901  0.00  0.00    +0.000 C 
ENDBRANCH   5   7
BRANCH   1  19
ATOM     19  C   UNL     1       3.896   4.034  17.218  0.00  0.00    +0.000 C 
BRANCH  19  20
ATOM     20  O   UNL     1       5.256   3.718  17.549  0.00  0.00    +0.000 OA
BRANCH  20  25
ATOM     21  N   UNL     1       8.133   5.440  20.468  0.00  0.00    +0.000 NA
ATOM     22  C   UNL     1       7.642   5.672  19.305  0.00  0.00    +0.000 C 
ATOM     23  N   UNL     1       7.980   6.750  18.569  0.00  0.00    +0.000 N 
ATOM     24  N   UNL     1       6.744   4.758  18.848  0.00  0.00    +0.000 N 
ATOM     25  C   UNL     1       6.072   4.794  17.659  0.00  0.00    +0.000 C 
ATOM     26  O   UNL     1       6.187   5.679  16.815  0.00  0.00    +0.000 OA
ATOM     27  H   UNL     1       8.815   6.170  20.684  0.00  0.00    +0.000 HD
ATOM     28  H   UNL     1       8.279   7.582  19.058  0.00  0.00    +0.000 HD
ATOM     29  H   UNL     1       7.358   6.943  17.783  0.00  0.00    +0.000 HD
ATOM     30  H   UNL     1       6.562   3.983  19.463  0.00  0.00    +0.000 HD
ENDBRANCH  20  25
ENDBRANCH  19  20
ENDBRANCH   1  19
TORSDOF 4
ENDMDL
MODEL 4
REMARK VINA RESULT:      -8.3      2.492      3.152
REMARK  Name = 
REMARK  4 active torsions:
REMARK  status: ('A' for Active; 'I' for Inactive)
REMARK    1  A    between atoms: C_5  and  O_7
REMARK    2  A    between atoms: O_7  and  C_8
REMARK    3  A    between atoms: C_8  and  C_9
REMARK    4  A    between atoms: C_13  and  N_14
REMARK                            x       y       z     vdW  Elec       q    Type
REMARK                         _______ _______ _______ _____ _____    ______ ____
ROOT
ATOM      1  C   UNL     1       4.701   5.691  17.111  0.00  0.00    +0.000 A 
ATOM      2  C   UNL     1       4.061   4.454  17.179  0.00  0.00    +0.000 A 
ATOM      3  C   UNL     1       2.791   4.358  17.741  0.00  0.00    +0.000 A 
ATOM      4  C   UNL     1       2.154   5.499  18.237  0.00  0.00    +0.000 A 
ATOM      5  C   UNL     1       2.761   6.758  18.178  0.00  0.00    +0.000 A 
ATOM      6  C   UNL     1       4.042   6.824  17.608  0.00  0.00    +0.000 A 
ENDROOT
BRANCH   5   7
ATOM      7  N   UNL     1       2.170   7.891  18.689  0.00  0.00    +0.000 N 
ATOM      8  C   UNL     1       2.050   9.147  17.920  0.00  0.00    +0.000 C 
ATOM      9  C   UNL     1       0.654   9.786  18.166  0.00  0.00    +0.000 C 
ATOM     10  N   UNL     1       0.448   9.912  19.613  0.00  0.00    +0.000 N 
ATOM     11  C   UNL     1      -0.149  11.027  20.142  0.00  0.00    +0.000 A 
ATOM     12  C   UNL     1       0.137  11.409  21.455  0.00  0.00    +0.000 A 
ATOM     13  C   UNL     1      -0.406  12.576  21.983  0.00  0.00    +0.000 A 
ATOM     14  C   UNL     1      -1.244  13.341  21.190  0.00  0.00    +0.000 A 
ATOM     15  C   UNL     1      -1.483  12.907  19.899  0.00  0.00    +0.000 A 
ATOM     16  N   UNL     1      -0.944  11.789  19.363  0.00  0.00    +0.000 NA
ATOM     17  C   UNL     1       0.514   8.645  20.351  0.00  0.00    +0.000 C 
ATOM     18  C   UNL     1       1.906   8.023  20.135  0.00  0.00    +0.000 C 
ENDBRANCH   5   7
BRANCH   1  19
ATOM     19  C   UNL     1       6.076   5.828  16.509  0.00  0.00    +0.000 C 
BRANCH  19  20
ATOM     20  O   UNL     1       6.509   4.586  15.934  0.00  0.00    +0.000 OA
BRANCH  20  25
ATOM     21  N   UNL     1       5.762   2.562  12.047  0.00  0.00    +0.000 NA
ATOM     22  C   UNL     1       6.448   3.524  12.548  0.00  0.00    +0.000 C 
ATOM     23  N   UNL     1       7.287   4.284  11.816  0.00  0.00    +0.000 N 
ATOM     24  N   UNL     1       6.286   3.735  13.882  0.00  0.00    +0.000 N 
ATOM     25  C   UNL     1       6.918   4.676  14.646  0.00  0.00    +0.000 C 
ATOM     26  O   UNL     1       7.742   5.483  14.224  0.00  0.00    +0.000 OA
ATOM     27  H   UNL     1       5.940   2.526  11.041  0.00  0.00    +0.000 HD
ATOM     28  H   UNL     1       7.704   3.872  10.993  0.00  0.00    +0.000 HD
ATOM     29  H   UNL     1       7.939   4.849  12.362  0.00  0.00    +0.000 HD
ATOM     30  H   UNL     1       5.633   3.123  14.343  0.00  0.00    +0.000 HD
ENDBRANCH  20  25
ENDBRANCH  19  20
ENDBRANCH   1  19
TORSDOF 4
ENDMDL
MODEL 5
REMARK VINA RESULT:      -8.3      1.098      1.646
REMARK  Name = 
REMARK  4 active torsions:
REMARK  status: ('A' for Active; 'I' for Inactive)
REMARK    1  A    between atoms: C_5  and  O_7
REMARK    2  A    between atoms: O_7  and  C_8
REMARK    3  A    between atoms: C_8  and  C_9
REMARK    4  A    between atoms: C_13  and  N_14
REMARK                            x       y       z     vdW  Elec       q    Type
REMARK                         _______ _______ _______ _____ _____    ______ ____
ROOT
ATOM      1  C   UNL     1       4.442   4.182  17.525  0.00  0.00    +0.000 A 
ATOM      2  C   UNL     1       4.464   3.104  18.409  0.00  0.00    +0.000 A 
ATOM      3  C   UNL     1       3.718   3.152  19.584  0.00  0.00    +0.000 A 
ATOM      4  C   UNL     1       2.947   4.279  19.881  0.00  0.00    +0.000 A 
ATOM      5  C   UNL     1       2.894   5.376  19.014  0.00  0.00    +0.000 A 
ATOM      6  C   UNL     1       3.657   5.300  17.839  0.00  0.00    +0.000 A 
ENDROOT
BRANCH   5   7
ATOM      7  N   UNL     1       2.168   6.511  19.298  0.00  0.00    +0.000 N 
ATOM      8  C   UNL     1       1.423   6.690  20.561  0.00  0.00    +0.000 C 
ATOM      9  C   UNL     1       1.595   8.148  21.074  0.00  0.00    +0.000 C 
ATOM     10  N   UNL     1       1.230   9.069  19.991  0.00  0.00    +0.000 N 
ATOM     11  C   UNL     1       0.517  10.211  20.253  0.00  0.00    +0.000 A 
ATOM     12  C   UNL     1      -0.283  10.772  19.255  0.00  0.00    +0.000 A 
ATOM     13  C   UNL     1      -1.065  11.890  19.525  0.00  0.00    +0.000 A 
ATOM     14  C   UNL     1      -1.026  12.442  20.793  0.00  0.00    +0.000 A 
ATOM     15  C   UNL     1      -0.215  11.836  21.735  0.00  0.00    +0.000 A 
ATOM     16  N   UNL     1       0.533  10.735  21.496  0.00  0.00    +0.000 NA
ATOM     17  C   UNL     1       2.021   8.913  18.765  0.00  0.00    +0.000 C 
ATOM     18  C   UNL     1       1.830   7.480  18.236  0.00  0.00    +0.000 C 
ENDBRANCH   5   7
BRANCH   1  19
ATOM     19  C   UNL     1       5.239   4.160  16.246  0.00  0.00    +0.000 C 
BRANCH  19  20
ATOM     20  O   UNL     1       6.644   4.056  16.519  0.00  0.00    +0.000 OA
BRANCH  20  25
ATOM     21  N   UNL     1       8.147   5.415  20.476  0.00  0.00    +0.000 NA
ATOM     22  C   UNL     1       8.007   5.835  19.272  0.00  0.00    +0.000 C 
ATOM     23  N   UNL     1       8.366   7.075  18.881  0.00  0.00    +0.000 N 
ATOM     24  N   UNL     1       7.461   4.949  18.395  0.00  0.00    +0.000 N 
ATOM     25  C   UNL     1       7.191   5.165  17.073  0.00  0.00    +0.000 C 
ATOM     26  O   UNL     1       7.408   6.216  16.476  0.00  0.00    +0.000 OA
ATOM     27  H   UNL     1       8.596   6.150  21.026  0.00  0.00    +0.000 HD
ATOM     28  H   UNL     1       8.355   7.811  19.573  0.00  0.00    +0.000 HD
ATOM     29  H   UNL     1       7.992   7.363  17.976  0.00  0.00    +0.000 HD
ATOM     30  H   UNL     1       7.233   4.046  18.776  0.00  0.00    +0.000 HD
ENDBRANCH  20  25
ENDBRANCH  19  20
ENDBRANCH   1  19
TORSDOF 4
ENDMDL
MODEL 6
REMARK VINA RESULT:      -8.1      1.362      1.868
REMARK  Name = 
REMARK  4 active torsions:
REMARK  status: ('A' for Active; 'I' for Inactive)
REMARK    1  A    between atoms: C_5  and  O_7
REMARK    2  A    between atoms: O_7  and  C_8
REMARK    3  A    between atoms: C_8  and  C_9
REMARK    4  A    between atoms: C_13  and  N_14
REMARK                            x       y       z     vdW  Elec       q    Type
REMARK                         _______ _______ _______ _____ _____    ______ ____
ROOT
ATOM      1  C   UNL     1       2.513   4.189  18.422  0.00  0.00    +0.000 A 
ATOM      2  C   UNL     1       2.442   3.444  19.600  0.00  0.00    +0.000 A 
ATOM      3  C   UNL     1       2.152   4.077  20.806  0.00  0.00    +0.000 A 
ATOM      4  C   UNL     1       1.931   5.456  20.841  0.00  0.00    +0.000 A 
ATOM      5  C   UNL     1       1.986   6.234  19.679  0.00  0.00    +0.000 A 
ATOM      6  C   UNL     1       2.282   5.570  18.478  0.00  0.00    +0.000 A 
ENDROOT
BRANCH   5   7
ATOM      7  N   UNL     1       1.805   7.598  19.690  0.00  0.00    +0.000 N 
ATOM      8  C   UNL     1       2.170   8.464  18.551  0.00  0.00    +0.000 C 
ATOM      9  C   UNL     1       1.076   9.548  18.338  0.00  0.00    +0.000 C 
ATOM     10  N   UNL     1       0.856  10.243  19.611  0.00  0.00    +0.000 N 
ATOM     11  C   UNL     1       0.662  11.601  19.644  0.00  0.00    +0.000 A 
ATOM     12  C   UNL     1       0.998  12.320  20.794  0.00  0.00    +0.000 A 
ATOM     13  C   UNL     1       0.872  13.705  20.818  0.00  0.00    +0.000 A 
ATOM     14  C   UNL     1       0.396  14.353  19.693  0.00  0.00    +0.000 A 
ATOM     15  C   UNL     1       0.084  13.581  18.588  0.00  0.00    +0.000 A 
ATOM     16  N   UNL     1       0.223  12.237  18.539  0.00  0.00    +0.000 NA
ATOM     17  C   UNL     1       0.437   9.374  20.716  0.00  0.00    +0.000 C 
ATOM     18  C   UNL     1       1.532   8.316  20.951  0.00  0.00    +0.000 C 
ENDBRANCH   5   7
BRANCH   1  19
ATOM     19  C   UNL     1       2.825   3.533  17.101  0.00  0.00    +0.000 C 
BRANCH  19  20
ATOM     20  O   UNL     1       4.140   2.958  17.113  0.00  0.00    +0.000 OA
BRANCH  20  25
ATOM     21  N   UNL     1       7.990   4.715  18.473  0.00  0.00    +0.000 NA
ATOM     22  C   UNL     1       7.220   4.689  17.447  0.00  0.00    +0.000 C 
ATOM     23  N   UNL     1       7.492   5.361  16.310  0.00  0.00    +0.000 N 
ATOM     24  N   UNL     1       6.093   3.938  17.571  0.00  0.00    +0.000 N 
ATOM     25  C   UNL     1       5.112   3.770  16.634  0.00  0.00    +0.000 C 
ATOM     26  O   UNL     1       5.111   4.288  15.520  0.00  0.00    +0.000 OA
ATOM     27  H   UNL     1       8.813   5.277  18.247  0.00  0.00    +0.000 HD
ATOM     28  H   UNL     1       8.051   6.199  16.377  0.00  0.00    +0.000 HD
ATOM     29  H   UNL     1       6.703   5.450  15.667  0.00  0.00    +0.000 HD
ATOM     30  H   UNL     1       5.979   3.466  18.453  0.00  0.00    +0.000 HD
ENDBRANCH  20  25
ENDBRANCH  19  20
ENDBRANCH   1  19
TORSDOF 4
ENDMDL
MODEL 7
REMARK VINA RESULT:      -8.1      2.823      3.920
REMARK  Name = 
REMARK  4 active torsions:
REMARK  status: ('A' for Active; 'I' for Inactive)
REMARK    1  A    between atoms: C_5  and  O_7
REMARK    2  A    between atoms: O_7  and  C_8
REMARK    3  A    between atoms: C_8  and  C_9
REMARK    4  A    between atoms: C_13  and  N_14
REMARK                            x       y       z     vdW  Elec       q    Type
REMARK                         _______ _______ _______ _____ _____    ______ ____
ROOT
ATOM      1  C   UNL     1       3.503   4.779  17.312  0.00  0.00    +0.000 A 
ATOM      2  C   UNL     1       4.690   5.245  16.746  0.00  0.00    +0.000 A 
ATOM      3  C   UNL     1       5.023   6.594  16.839  0.00  0.00    +0.000 A 
ATOM      4  C   UNL     1       4.171   7.484  17.499  0.00  0.00    +0.000 A 
ATOM      5  C   UNL     1       2.976   7.052  18.085  0.00  0.00    +0.000 A 
ATOM      6  C   UNL     1       2.666   5.688  17.974  0.00  0.00    +0.000 A 
ENDROOT
BRANCH   5   7
ATOM      7  N   UNL     1       2.104   7.913  18.712  0.00  0.00    +0.000 N 
ATOM      8  C   UNL     1       1.550   7.652  20.057  0.00  0.00    +0.000 C 
ATOM      9  C   UNL     1       1.523   8.970  20.882  0.00  0.00    +0.000 C 
ATOM     10  N   UNL     1       0.822   9.994  20.099  0.00  0.00    +0.000 N 
ATOM     11  C   UNL     1      -0.043  10.870  20.706  0.00  0.00    +0.000 A 
ATOM     12  C   UNL     1      -1.084  11.438  19.967  0.00  0.00    +0.000 A 
ATOM     13  C   UNL     1      -2.010  12.272  20.584  0.00  0.00    +0.000 A 
ATOM     14  C   UNL     1      -1.873  12.540  21.934  0.00  0.00    +0.000 A 
ATOM     15  C   UNL     1      -0.822  11.943  22.606  0.00  0.00    +0.000 A 
ATOM     16  N   UNL     1       0.073  11.110  22.028  0.00  0.00    +0.000 NA
ATOM     17  C   UNL     1       1.422  10.280  18.791  0.00  0.00    +0.000 C 
ATOM     18  C   UNL     1       1.423   8.984  17.959  0.00  0.00    +0.000 C 
ENDBRANCH   5   7
BRANCH   1  19
ATOM     19  C   UNL     1       3.114   3.325  17.227  0.00  0.00    +0.000 C 
BRANCH  19  20
ATOM     20  O   UNL     1       4.025   2.508  17.977  0.00  0.00    +0.000 OA
BRANCH  20  25
ATOM     21  N   UNL     1       0.600   2.908  20.783  0.00  0.00    +0.000 NA
ATOM     22  C   UNL     1       1.868   2.714  20.789  0.00  0.00    +0.000 C 
ATOM     23  N   UNL     1       2.582   2.569  21.924  0.00  0.00    +0.000 N 
ATOM     24  N   UNL     1       2.466   2.667  19.568  0.00  0.00    +0.000 N 
ATOM     25  C   UNL     1       3.798   2.496  19.313  0.00  0.00    +0.000 C 
ATOM     26  O   UNL     1       4.664   2.357  20.173  0.00  0.00    +0.000 OA
ATOM     27  H   UNL     1       0.264   2.887  21.748  0.00  0.00    +0.000 HD
ATOM     28  H   UNL     1       2.235   3.013  22.762  0.00  0.00    +0.000 HD
ATOM     29  H   UNL     1       3.593   2.657  21.807  0.00  0.00    +0.000 HD
ATOM     30  H   UNL     1       1.851   2.777  18.778  0.00  0.00    +0.000 HD
ENDBRANCH  20  25
ENDBRANCH  19  20
ENDBRANCH   1  19
TORSDOF 4
ENDMDL
MODEL 8
REMARK VINA RESULT:      -8.1      3.321      8.250
REMARK  Name = 
REMARK  4 active torsions:
REMARK  status: ('A' for Active; 'I' for Inactive)
REMARK    1  A    between atoms: C_5  and  O_7
REMARK    2  A    between atoms: O_7  and  C_8
REMARK    3  A    between atoms: C_8  and  C_9
REMARK    4  A    between atoms: C_13  and  N_14
REMARK                            x       y       z     vdW  Elec       q    Type
REMARK                         _______ _______ _______ _____ _____    ______ ____
ROOT
ATOM      1  C   UNL     1       1.876   6.980  20.346  0.00  0.00    +0.000 A 
ATOM      2  C   UNL     1       1.585   5.886  21.161  0.00  0.00    +0.000 A 
ATOM      3  C   UNL     1       2.025   4.614  20.801  0.00  0.00    +0.000 A 
ATOM      4  C   UNL     1       2.757   4.430  19.625  0.00  0.00    +0.000 A 
ATOM      5  C   UNL     1       3.075   5.505  18.788  0.00  0.00    +0.000 A 
ATOM      6  C   UNL     1       2.618   6.774  19.175  0.00  0.00    +0.000 A 
ENDROOT
BRANCH   5   7
ATOM      7  N   UNL     1       3.767   5.347  17.608  0.00  0.00    +0.000 N 
ATOM      8  C   UNL     1       4.316   6.485  16.844  0.00  0.00    +0.000 C 
ATOM      9  C   UNL     1       5.728   6.124  16.300  0.00  0.00    +0.000 C 
ATOM     10  N   UNL     1       5.633   4.858  15.563  0.00  0.00    +0.000 N 
ATOM     11  C   UNL     1       6.322   4.675  14.392  0.00  0.00    +0.000 A 
ATOM     12  C   UNL     1       5.843   3.772  13.440  0.00  0.00    +0.000 A 
ATOM     13  C   UNL     1       6.493   3.627  12.219  0.00  0.00    +0.000 A 
ATOM     14  C   UNL     1       7.626   4.379  11.971  0.00  0.00    +0.000 A 
ATOM     15  C   UNL     1       8.045   5.257  12.955  0.00  0.00    +0.000 A 
ATOM     16  N   UNL     1       7.412   5.428  14.137  0.00  0.00    +0.000 NA
ATOM     17  C   UNL     1       5.139   3.727  16.356  0.00  0.00    +0.000 C 
ATOM     18  C   UNL     1       3.729   4.068  16.873  0.00  0.00    +0.000 C 
ENDBRANCH   5   7
BRANCH   1  19
ATOM     19  C   UNL     1       1.415   8.368  20.708  0.00  0.00    +0.000 C 
BRANCH  19  20
ATOM     20  O   UNL     1       1.037   9.104  19.535  0.00  0.00    +0.000 OA
BRANCH  20  25
ATOM     21  N   UNL     1       2.630  12.674  17.418  0.00  0.00    +0.000 NA
ATOM     22  C   UNL     1       1.954  12.361  18.463  0.00  0.00    +0.000 C 
ATOM     23  N   UNL     1       1.493  13.277  19.339  0.00  0.00    +0.000 N 
ATOM     24  N   UNL     1       1.728  11.032  18.646  0.00  0.00    +0.000 N 
ATOM     25  C   UNL     1       1.059  10.451  19.686  0.00  0.00    +0.000 C 
ATOM     26  O   UNL     1       0.556  11.061  20.626  0.00  0.00    +0.000 OA
ATOM     27  H   UNL     1       2.702  13.693  17.371  0.00  0.00    +0.000 HD
ATOM     28  H   UNL     1       2.002  14.145  19.429  0.00  0.00    +0.000 HD
ATOM     29  H   UNL     1       1.183  12.894  20.234  0.00  0.00    +0.000 HD
ATOM     30  H   UNL     1       2.103  10.426  17.936  0.00  0.00    +0.000 HD
ENDBRANCH  20  25
ENDBRANCH  19  20
ENDBRANCH   1  19
TORSDOF 4
ENDMDL
MODEL 9
REMARK VINA RESULT:      -8.0      2.285      2.947
REMARK  Name = 
REMARK  4 active torsions:
REMARK  status: ('A' for Active; 'I' for Inactive)
REMARK    1  A    between atoms: C_5  and  O_7
REMARK    2  A    between atoms: O_7  and  C_8
REMARK    3  A    between atoms: C_8  and  C_9
REMARK    4  A    between atoms: C_13  and  N_14
REMARK                            x       y       z     vdW  Elec       q    Type
REMARK                         _______ _______ _______ _____ _____    ______ ____
ROOT
ATOM      1  C   UNL     1       4.078   4.379  17.427  0.00  0.00    +0.000 A 
ATOM      2  C   UNL     1       3.978   3.421  18.437  0.00  0.00    +0.000 A 
ATOM      3  C   UNL     1       3.370   3.746  19.647  0.00  0.00    +0.000 A 
ATOM      4  C   UNL     1       2.859   5.030  19.854  0.00  0.00    +0.000 A 
ATOM      5  C   UNL     1       2.933   6.014  18.861  0.00  0.00    +0.000 A 
ATOM      6  C   UNL     1       3.552   5.658  17.653  0.00  0.00    +0.000 A 
ENDROOT
BRANCH   5   7
ATOM      7  N   UNL     1       2.466   7.295  19.051  0.00  0.00    +0.000 N 
ATOM      8  C   UNL     1       2.620   8.360  18.040  0.00  0.00    +0.000 C 
ATOM      9  C   UNL     1       1.317   9.206  17.959  0.00  0.00    +0.000 C 
ATOM     10  N   UNL     1       0.977   9.664  19.311  0.00  0.00    +0.000 N 
ATOM     11  C   UNL     1       0.500  10.933  19.521  0.00  0.00    +0.000 A 
ATOM     12  C   UNL     1       0.695  11.550  20.759  0.00  0.00    +0.000 A 
ATOM     13  C   UNL     1       0.278  12.861  20.965  0.00  0.00    +0.000 A 
ATOM     14  C   UNL     1      -0.344  13.535  19.929  0.00  0.00    +0.000 A 
ATOM     15  C   UNL     1      -0.503  12.867  18.729  0.00  0.00    +0.000 A 
ATOM     16  N   UNL     1      -0.083  11.602  18.504  0.00  0.00    +0.000 NA
ATOM     17  C   UNL     1       0.771   8.588  20.287  0.00  0.00    +0.000 C 
ATOM     18  C   UNL     1       2.069   7.766  20.392  0.00  0.00    +0.000 C 
ENDBRANCH   5   7
BRANCH   1  19
ATOM     19  C   UNL     1       4.730   4.058  16.107  0.00  0.00    +0.000 C 
BRANCH  19  20
ATOM     20  O   UNL     1       6.128   4.382  16.135  0.00  0.00    +0.000 OA
BRANCH  20  25
ATOM     21  N   UNL     1       5.896   2.646  12.049  0.00  0.00    +0.000 NA
ATOM     22  C   UNL     1       6.493   3.578  12.697  0.00  0.00    +0.000 C 
ATOM     23  N   UNL     1       7.392   4.407  12.127  0.00  0.00    +0.000 N 
ATOM     24  N   UNL     1       6.170   3.685  14.014  0.00  0.00    +0.000 N 
ATOM     25  C   UNL     1       6.683   4.577  14.914  0.00  0.00    +0.000 C 
ATOM     26  O   UNL     1       7.529   5.428  14.653  0.00  0.00    +0.000 OA
ATOM     27  H   UNL     1       6.192   2.689  11.071  0.00  0.00    +0.000 HD
ATOM     28  H   UNL     1       7.913   4.066  11.332  0.00  0.00    +0.000 HD
ATOM     29  H   UNL     1       7.961   4.940  12.788  0.00  0.00    +0.000 HD
ATOM     30  H   UNL     1       5.484   3.029  14.348  0.00  0.00    +0.000 HD
ENDBRANCH  20  25
ENDBRANCH  19  20
ENDBRANCH   1  19
TORSDOF 4
ENDMDL
