MODEL 1
REMARK VINA RESULT:      -9.5      0.000      0.000
REMARK  Name = 
REMARK  5 active torsions:
REMARK  status: ('A' for Active; 'I' for Inactive)
REMARK    1  A    between atoms: C_2  and  C_3
REMARK    2  A    between atoms: C_3  and  N_4
REMARK    3  A    between atoms: C_7  and  O_8
REMARK    4  A    between atoms: O_8  and  C_9
REMARK    5  A    between atoms: N_25  and  C_26
REMARK                            x       y       z     vdW  Elec       q    Type
REMARK                         _______ _______ _______ _____ _____    ______ ____
ROOT
ATOM      1  N   UNL     1       6.127   6.394  17.073  0.00  0.00    +0.000 N 
ATOM      2  N   UNL     1       5.098   7.265  17.394  0.00  0.00    +0.000 NA
ATOM      3  C   UNL     1       4.128   6.447  17.722  0.00  0.00    +0.000 A 
ATOM      4  C   UNL     1       2.735   6.794  18.128  0.00  0.00    +0.000 A 
ATOM      5  N   UNL     1       1.858   5.899  18.467  0.00  0.00    +0.000 NA
ATOM      6  C   UNL     1       2.214   4.541  18.359  0.00  0.00    +0.000 A 
ATOM      7  C   UNL     1       1.231   3.587  18.628  0.00  0.00    +0.000 A 
ATOM      8  C   UNL     1       1.514   2.230  18.501  0.00  0.00    +0.000 A 
ATOM      9  C   UNL     1       2.780   1.815  18.101  0.00  0.00    +0.000 A 
ATOM     10  C   UNL     1       3.774   2.760  17.822  0.00  0.00    +0.000 A 
ATOM     11  C   UNL     1       3.496   4.122  17.945  0.00  0.00    +0.000 A 
ATOM     12  N   UNL     1       4.428   5.121  17.654  0.00  0.00    +0.000 N 
ATOM     13  C   UNL     1       5.731   5.050  17.235  0.00  0.00    +0.000 A 
ATOM     14  O   UNL     1       6.417   4.065  17.010  0.00  0.00    +0.000 OA
ENDROOT
BRANCH   1  15
ATOM     15  C   UNL     1       7.453   6.830  16.711  0.00  0.00    +0.000 C 
BRANCH  15  17
ATOM     16  O   UNL     1       8.348   7.341  18.888  0.00  0.00    +0.000 OA
ATOM     17  C   UNL     1       7.991   7.755  17.789  0.00  0.00    +0.000 C 
ATOM     18  N   UNL     1       7.961   9.087  17.406  0.00  0.00    +0.000 N 
ATOM     19  H   UNL     1       7.256   9.320  16.711  0.00  0.00    +0.000 HD
BRANCH  18  20
ATOM     20  C   UNL     1       8.512  10.140  18.156  0.00  0.00    +0.000 A 
ATOM     21  C   UNL     1       9.253   9.911  19.335  0.00  0.00    +0.000 A 
ATOM     22  C   UNL     1       9.841  10.974  20.028  0.00  0.00    +0.000 A 
ATOM     23  C   UNL     1       9.665  12.240  19.518  0.00  0.00    +0.000 A 
ATOM     24  C   UNL     1       8.928  12.464  18.378  0.00  0.00    +0.000 A 
ATOM     25  C   UNL     1       8.347  11.438  17.667  0.00  0.00    +0.000 A 
ATOM     26  O   UNL     1       8.876  13.783  18.046  0.00  0.00    +0.000 OA
ATOM     27  C   UNL     1       9.858  14.309  18.962  0.00  0.00    +0.000 C 
ATOM     28  O   UNL     1      10.191  13.389  20.021  0.00  0.00    +0.000 OA
ENDBRANCH  18  20
ENDBRANCH  15  17
ENDBRANCH   1  15
BRANCH   4  29
ATOM     29  O   UNL     1       2.502   8.144  18.031  0.00  0.00    +0.000 OA
BRANCH  29  30
ATOM     30  C   UNL     1       1.647   8.673  19.017  0.00  0.00    +0.000 A 
ATOM     31  C   UNL     1       1.747   8.170  20.313  0.00  0.00    +0.000 A 
ATOM     32  C   UNL     1       0.894   8.666  21.302  0.00  0.00    +0.000 A 
ATOM     33  C   UNL     1      -0.047   9.653  20.991  0.00  0.00    +0.000 A 
ATOM     34  C   UNL     1      -0.111  10.178  19.700  0.00  0.00    +0.000 A 
ATOM     35  C   UNL     1       0.757   9.709  18.723  0.00  0.00    +0.000 A 
ENDBRANCH  29  30
ENDBRANCH   4  29
TORSDOF 5
ENDMDL
MODEL 2
REMARK VINA RESULT:      -9.5      0.968      1.312
REMARK  Name = 
REMARK  5 active torsions:
REMARK  status: ('A' for Active; 'I' for Inactive)
REMARK    1  A    between atoms: C_2  and  C_3
REMARK    2  A    between atoms: C_3  and  N_4
REMARK    3  A    between atoms: C_7  and  O_8
REMARK    4  A    between atoms: O_8  and  C_9
REMARK    5  A    between atoms: N_25  and  C_26
REMARK                            x       y       z     vdW  Elec       q    Type
REMARK                         _______ _______ _______ _____ _____    ______ ____
ROOT
ATOM      1  N   UNL     1       6.578   6.295  18.132  0.00  0.00    +0.000 N 
ATOM      2  N   UNL     1       5.513   7.178  18.042  0.00  0.00    +0.000 NA
ATOM      3  C   UNL     1       4.477   6.378  18.100  0.00  0.00    +0.000 A 
ATOM      4  C   UNL     1       3.033   6.741  18.012  0.00  0.00    +0.000 A 
ATOM      5  N   UNL     1       2.080   5.866  18.117  0.00  0.00    +0.000 NA
ATOM      6  C   UNL     1       2.432   4.507  18.227  0.00  0.00    +0.000 A 
ATOM      7  C   UNL     1       1.400   3.567  18.236  0.00  0.00    +0.000 A 
ATOM      8  C   UNL     1       1.688   2.206  18.305  0.00  0.00    +0.000 A 
ATOM      9  C   UNL     1       3.009   1.775  18.363  0.00  0.00    +0.000 A 
ATOM     10  C   UNL     1       4.054   2.705  18.350  0.00  0.00    +0.000 A 
ATOM     11  C   UNL     1       3.772   4.069  18.277  0.00  0.00    +0.000 A 
ATOM     12  N   UNL     1       4.764   5.053  18.229  0.00  0.00    +0.000 N 
ATOM     13  C   UNL     1       6.131   4.963  18.256  0.00  0.00    +0.000 A 
ATOM     14  O   UNL     1       6.837   3.971  18.335  0.00  0.00    +0.000 OA
ENDROOT
BRANCH   1  15
ATOM     15  C   UNL     1       7.956   6.714  18.184  0.00  0.00    +0.000 C 
BRANCH  15  17
ATOM     16  O   UNL     1       7.340   8.869  17.299  0.00  0.00    +0.000 OA
ATOM     17  C   UNL     1       8.026   8.229  18.092  0.00  0.00    +0.000 C 
ATOM     18  N   UNL     1       8.980   8.768  18.942  0.00  0.00    +0.000 N 
ATOM     19  H   UNL     1       9.748   8.144  19.177  0.00  0.00    +0.000 HD
BRANCH  18  20
ATOM     20  C   UNL     1       9.168  10.144  19.150  0.00  0.00    +0.000 A 
ATOM     21  C   UNL     1       9.110  10.720  20.437  0.00  0.00    +0.000 A 
ATOM     22  C   UNL     1       9.362  12.084  20.622  0.00  0.00    +0.000 A 
ATOM     23  C   UNL     1       9.663  12.832  19.507  0.00  0.00    +0.000 A 
ATOM     24  C   UNL     1       9.702  12.272  18.250  0.00  0.00    +0.000 A 
ATOM     25  C   UNL     1       9.472  10.932  18.037  0.00  0.00    +0.000 A 
ATOM     26  O   UNL     1      10.016  13.182  17.288  0.00  0.00    +0.000 OA
ATOM     27  C   UNL     1      10.401  14.298  18.116  0.00  0.00    +0.000 C 
ATOM     28  O   UNL     1       9.978  14.155  19.487  0.00  0.00    +0.000 OA
ENDBRANCH  18  20
ENDBRANCH  15  17
ENDBRANCH   1  15
BRANCH   4  29
ATOM     29  O   UNL     1       2.864   8.078  17.747  0.00  0.00    +0.000 OA
BRANCH  29  30
ATOM     30  C   UNL     1       1.865   8.713  18.509  0.00  0.00    +0.000 A 
ATOM     31  C   UNL     1       0.957   9.538  17.847  0.00  0.00    +0.000 A 
ATOM     32  C   UNL     1      -0.029  10.195  18.588  0.00  0.00    +0.000 A 
ATOM     33  C   UNL     1      -0.100  10.025  19.974  0.00  0.00    +0.000 A 
ATOM     34  C   UNL     1       0.788   9.166  20.621  0.00  0.00    +0.000 A 
ATOM     35  C   UNL     1       1.749   8.487  19.883  0.00  0.00    +0.000 A 
ENDBRANCH  29  30
ENDBRANCH   4  29
TORSDOF 5
ENDMDL
MODEL 3
REMARK VINA RESULT:      -9.4      1.133      1.174
REMARK  Name = 
REMARK  5 active torsions:
REMARK  status: ('A' for Active; 'I' for Inactive)
REMARK    1  A    between atoms: C_2  and  C_3
REMARK    2  A    between atoms: C_3  and  N_4
REMARK    3  A    between atoms: C_7  and  O_8
REMARK    4  A    between atoms: O_8  and  C_9
REMARK    5  A    between atoms: N_25  and  C_26
REMARK                            x       y       z     vdW  Elec       q    Type
REMARK                         _______ _______ _______ _____ _____    ______ ____
ROOT
ATOM      1  N   UNL     1       5.902   6.308  17.643  0.00  0.00    +0.000 N 
ATOM      2  N   UNL     1       4.803   7.149  17.575  0.00  0.00    +0.000 NA
ATOM      3  C   UNL     1       3.911   6.507  18.289  0.00  0.00    +0.000 A 
ATOM      4  C   UNL     1       2.496   6.897  18.556  0.00  0.00    +0.000 A 
ATOM      5  N   UNL     1       1.705   6.199  19.311  0.00  0.00    +0.000 NA
ATOM      6  C   UNL     1       2.179   4.976  19.824  0.00  0.00    +0.000 A 
ATOM      7  C   UNL     1       1.285   4.185  20.548  0.00  0.00    +0.000 A 
ATOM      8  C   UNL     1       1.686   2.948  21.047  0.00  0.00    +0.000 A 
ATOM      9  C   UNL     1       2.981   2.491  20.823  0.00  0.00    +0.000 A 
ATOM     10  C   UNL     1       3.885   3.271  20.093  0.00  0.00    +0.000 A 
ATOM     11  C   UNL     1       3.488   4.509  19.588  0.00  0.00    +0.000 A 
ATOM     12  N   UNL     1       4.327   5.327  18.825  0.00  0.00    +0.000 N 
ATOM     13  C   UNL     1       5.627   5.167  18.424  0.00  0.00    +0.000 A 
ATOM     14  O   UNL     1       6.395   4.244  18.646  0.00  0.00    +0.000 OA
ENDROOT
BRANCH   1  15
ATOM     15  C   UNL     1       7.181   6.625  17.058  0.00  0.00    +0.000 C 
BRANCH  15  17
ATOM     16  O   UNL     1       8.561   7.205  18.945  0.00  0.00    +0.000 OA
ATOM     17  C   UNL     1       7.927   7.588  17.965  0.00  0.00    +0.000 C 
ATOM     18  N   UNL     1       7.746   8.912  17.595  0.00  0.00    +0.000 N 
ATOM     19  H   UNL     1       6.882   9.105  17.095  0.00  0.00    +0.000 HD
BRANCH  18  20
ATOM     20  C   UNL     1       8.418   9.997  18.182  0.00  0.00    +0.000 A 
ATOM     21  C   UNL     1       9.255   9.839  19.307  0.00  0.00    +0.000 A 
ATOM     22  C   UNL     1       9.959  10.928  19.833  0.00  0.00    +0.000 A 
ATOM     23  C   UNL     1       9.799  12.146  19.214  0.00  0.00    +0.000 A 
ATOM     24  C   UNL     1       8.969  12.303  18.128  0.00  0.00    +0.000 A 
ATOM     25  C   UNL     1       8.273  11.249  17.580  0.00  0.00    +0.000 A 
ATOM     26  O   UNL     1       8.952  13.584  17.670  0.00  0.00    +0.000 OA
ATOM     27  C   UNL     1      10.042  14.137  18.435  0.00  0.00    +0.000 C 
ATOM     28  O   UNL     1      10.428  13.306  19.549  0.00  0.00    +0.000 OA
ENDBRANCH  18  20
ENDBRANCH  15  17
ENDBRANCH   1  15
BRANCH   4  29
ATOM     29  O   UNL     1       2.144   8.027  17.859  0.00  0.00    +0.000 OA
BRANCH  29  30
ATOM     30  C   UNL     1       1.296   8.913  18.551  0.00  0.00    +0.000 A 
ATOM     31  C   UNL     1       1.460   9.040  19.930  0.00  0.00    +0.000 A 
ATOM     32  C   UNL     1       0.615   9.897  20.638  0.00  0.00    +0.000 A 
ATOM     33  C   UNL     1      -0.381  10.616  19.970  0.00  0.00    +0.000 A 
ATOM     34  C   UNL     1      -0.510  10.513  18.584  0.00  0.00    +0.000 A 
ATOM     35  C   UNL     1       0.349   9.685  17.873  0.00  0.00    +0.000 A 
ENDBRANCH  29  30
ENDBRANCH   4  29
TORSDOF 5
ENDMDL
MODEL 4
REMARK VINA RESULT:      -9.3      1.315      1.557
REMARK  Name = 
REMARK  5 active torsions:
REMARK  status: ('A' for Active; 'I' for Inactive)
REMARK    1  A    between atoms: C_2  and  C_3
REMARK    2  A    between atoms: C_3  and  N_4
REMARK    3  A    between atoms: C_7  and  O_8
REMARK    4  A    between atoms: O_8  and  C_9
REMARK    5  A    between atoms: N_25  and  C_26
REMARK                            x       y       z     vdW  Elec       q    Type
REMARK                         _______ _______ _______ _____ _____    ______ ____
ROOT
ATOM      1  N   UNL     1       6.059   6.551  17.575  0.00  0.00    +0.000 N 
ATOM      2  N   UNL     1       4.939   7.368  17.578  0.00  0.00    +0.000 NA
ATOM      3  C   UNL     1       4.068   6.651  18.243  0.00  0.00    +0.000 A 
ATOM      4  C   UNL     1       2.645   6.985  18.545  0.00  0.00    +0.000 A 
ATOM      5  N   UNL     1       1.875   6.211  19.247  0.00  0.00    +0.000 NA
ATOM      6  C   UNL     1       2.381   4.964  19.661  0.00  0.00    +0.000 A 
ATOM      7  C   UNL     1       1.511   4.097  20.326  0.00  0.00    +0.000 A 
ATOM      8  C   UNL     1       1.944   2.836  20.726  0.00  0.00    +0.000 A 
ATOM      9  C   UNL     1       3.248   2.429  20.462  0.00  0.00    +0.000 A 
ATOM     10  C   UNL     1       4.129   3.285  19.791  0.00  0.00    +0.000 A 
ATOM     11  C   UNL     1       3.700   4.549  19.385  0.00  0.00    +0.000 A 
ATOM     12  N   UNL     1       4.515   5.443  18.684  0.00  0.00    +0.000 N 
ATOM     13  C   UNL     1       5.816   5.346  18.267  0.00  0.00    +0.000 A 
ATOM     14  O   UNL     1       6.607   4.428  18.413  0.00  0.00    +0.000 OA
ENDROOT
BRANCH   1  15
ATOM     15  C   UNL     1       7.327   6.943  17.011  0.00  0.00    +0.000 C 
BRANCH  15  17
ATOM     16  O   UNL     1       8.570   7.228  19.054  0.00  0.00    +0.000 OA
ATOM     17  C   UNL     1       8.110   7.742  18.039  0.00  0.00    +0.000 C 
ATOM     18  N   UNL     1       8.175   9.090  17.724  0.00  0.00    +0.000 N 
ATOM     19  H   UNL     1       7.410   9.436  17.150  0.00  0.00    +0.000 HD
BRANCH  18  20
ATOM     20  C   UNL     1       8.939  10.033  18.431  0.00  0.00    +0.000 A 
ATOM     21  C   UNL     1       8.904  10.120  19.839  0.00  0.00    +0.000 A 
ATOM     22  C   UNL     1       9.721  11.028  20.520  0.00  0.00    +0.000 A 
ATOM     23  C   UNL     1      10.550  11.826  19.766  0.00  0.00    +0.000 A 
ATOM     24  C   UNL     1      10.572  11.753  18.392  0.00  0.00    +0.000 A 
ATOM     25  C   UNL     1       9.789  10.861  17.694  0.00  0.00    +0.000 A 
ATOM     26  O   UNL     1      11.457  12.627  17.840  0.00  0.00    +0.000 OA
ATOM     27  C   UNL     1      12.147  13.066  19.028  0.00  0.00    +0.000 C 
ATOM     28  O   UNL     1      11.444  12.735  20.243  0.00  0.00    +0.000 OA
ENDBRANCH  18  20
ENDBRANCH  15  17
ENDBRANCH   1  15
BRANCH   4  29
ATOM     29  O   UNL     1       2.262   8.156  17.939  0.00  0.00    +0.000 OA
BRANCH  29  30
ATOM     30  C   UNL     1       1.332   8.925  18.665  0.00  0.00    +0.000 A 
ATOM     31  C   UNL     1       0.325   9.580  17.958  0.00  0.00    +0.000 A 
ATOM     32  C   UNL     1      -0.595  10.365  18.657  0.00  0.00    +0.000 A 
ATOM     33  C   UNL     1      -0.503  10.490  20.047  0.00  0.00    +0.000 A 
ATOM     34  C   UNL     1       0.484   9.797  20.749  0.00  0.00    +0.000 A 
ATOM     35  C   UNL     1       1.381   8.991  20.060  0.00  0.00    +0.000 A 
ENDBRANCH  29  30
ENDBRANCH   4  29
TORSDOF 5
ENDMDL
MODEL 5
REMARK VINA RESULT:      -9.3      1.020      1.664
REMARK  Name = 
REMARK  5 active torsions:
REMARK  status: ('A' for Active; 'I' for Inactive)
REMARK    1  A    between atoms: C_2  and  C_3
REMARK    2  A    between atoms: C_3  and  N_4
REMARK    3  A    between atoms: C_7  and  O_8
REMARK    4  A    between atoms: O_8  and  C_9
REMARK    5  A    between atoms: N_25  and  C_26
REMARK                            x       y       z     vdW  Elec       q    Type
REMARK                         _______ _______ _______ _____ _____    ______ ____
ROOT
ATOM      1  N   UNL     1       6.567   6.282  18.148  0.00  0.00    +0.000 N 
ATOM      2  N   UNL     1       5.502   7.163  18.042  0.00  0.00    +0.000 NA
ATOM      3  C   UNL     1       4.466   6.363  18.106  0.00  0.00    +0.000 A 
ATOM      4  C   UNL     1       3.022   6.724  18.006  0.00  0.00    +0.000 A 
ATOM      5  N   UNL     1       2.069   5.850  18.119  0.00  0.00    +0.000 NA
ATOM      6  C   UNL     1       2.421   4.493  18.249  0.00  0.00    +0.000 A 
ATOM      7  C   UNL     1       1.389   3.552  18.266  0.00  0.00    +0.000 A 
ATOM      8  C   UNL     1       1.678   2.193  18.355  0.00  0.00    +0.000 A 
ATOM      9  C   UNL     1       2.999   1.763  18.425  0.00  0.00    +0.000 A 
ATOM     10  C   UNL     1       4.043   2.694  18.403  0.00  0.00    +0.000 A 
ATOM     11  C   UNL     1       3.761   4.057  18.311  0.00  0.00    +0.000 A 
ATOM     12  N   UNL     1       4.752   5.041  18.254  0.00  0.00    +0.000 N 
ATOM     13  C   UNL     1       6.119   4.952  18.288  0.00  0.00    +0.000 A 
ATOM     14  O   UNL     1       6.826   3.961  18.384  0.00  0.00    +0.000 OA
ENDROOT
BRANCH   1  15
ATOM     15  C   UNL     1       7.944   6.703  18.200  0.00  0.00    +0.000 C 
BRANCH  15  17
ATOM     16  O   UNL     1       7.374   8.813  17.187  0.00  0.00    +0.000 OA
ATOM     17  C   UNL     1       8.016   8.213  18.044  0.00  0.00    +0.000 C 
ATOM     18  N   UNL     1       8.921   8.793  18.919  0.00  0.00    +0.000 N 
ATOM     19  H   UNL     1       9.676   8.184  19.224  0.00  0.00    +0.000 HD
BRANCH  18  20
ATOM     20  C   UNL     1       9.096  10.178  19.075  0.00  0.00    +0.000 A 
ATOM     21  C   UNL     1       9.014  11.070  17.985  0.00  0.00    +0.000 A 
ATOM     22  C   UNL     1       9.132  12.451  18.179  0.00  0.00    +0.000 A 
ATOM     23  C   UNL     1       9.331  12.896  19.466  0.00  0.00    +0.000 A 
ATOM     24  C   UNL     1       9.428  12.024  20.527  0.00  0.00    +0.000 A 
ATOM     25  C   UNL     1       9.304  10.662  20.369  0.00  0.00    +0.000 A 
ATOM     26  O   UNL     1       9.627  12.668  21.709  0.00  0.00    +0.000 OA
ATOM     27  C   UNL     1       9.398  14.029  21.293  0.00  0.00    +0.000 C 
ATOM     28  O   UNL     1       9.427  14.194  19.861  0.00  0.00    +0.000 OA
ENDBRANCH  18  20
ENDBRANCH  15  17
ENDBRANCH   1  15
BRANCH   4  29
ATOM     29  O   UNL     1       2.853   8.057  17.723  0.00  0.00    +0.000 OA
BRANCH  29  30
ATOM     30  C   UNL     1       1.868   8.709  18.489  0.00  0.00    +0.000 A 
ATOM     31  C   UNL     1       0.974   9.554  17.833  0.00  0.00    +0.000 A 
ATOM     32  C   UNL     1       0.003  10.226  18.578  0.00  0.00    +0.000 A 
ATOM     33  C   UNL     1      -0.068  10.052  19.964  0.00  0.00    +0.000 A 
ATOM     34  C   UNL     1       0.804   9.172  20.605  0.00  0.00    +0.000 A 
ATOM     35  C   UNL     1       1.751   8.478  19.863  0.00  0.00    +0.000 A 
ENDBRANCH  29  30
ENDBRANCH   4  29
TORSDOF 5
ENDMDL
MODEL 6
REMARK VINA RESULT:      -9.2      4.253      8.315
REMARK  Name = 
REMARK  5 active torsions:
REMARK  status: ('A' for Active; 'I' for Inactive)
REMARK    1  A    between atoms: C_2  and  C_3
REMARK    2  A    between atoms: C_3  and  N_4
REMARK    3  A    between atoms: C_7  and  O_8
REMARK    4  A    between atoms: O_8  and  C_9
REMARK    5  A    between atoms: N_25  and  C_26
REMARK                            x       y       z     vdW  Elec       q    Type
REMARK                         _______ _______ _______ _____ _____    ______ ____
ROOT
ATOM      1  N   UNL     1       1.869   8.496  19.955  0.00  0.00    +0.000 N 
ATOM      2  N   UNL     1       2.623   8.241  18.820  0.00  0.00    +0.000 NA
ATOM      3  C   UNL     1       2.629   6.932  18.773  0.00  0.00    +0.000 A 
ATOM      4  C   UNL     1       3.320   6.053  17.785  0.00  0.00    +0.000 A 
ATOM      5  N   UNL     1       3.231   4.759  17.812  0.00  0.00    +0.000 NA
ATOM      6  C   UNL     1       2.526   4.161  18.874  0.00  0.00    +0.000 A 
ATOM      7  C   UNL     1       2.524   2.767  18.950  0.00  0.00    +0.000 A 
ATOM      8  C   UNL     1       1.875   2.120  19.999  0.00  0.00    +0.000 A 
ATOM      9  C   UNL     1       1.227   2.861  20.981  0.00  0.00    +0.000 A 
ATOM     10  C   UNL     1       1.226   4.259  20.922  0.00  0.00    +0.000 A 
ATOM     11  C   UNL     1       1.876   4.913  19.875  0.00  0.00    +0.000 A 
ATOM     12  N   UNL     1       1.943   6.305  19.768  0.00  0.00    +0.000 N 
ATOM     13  C   UNL     1       1.430   7.300  20.558  0.00  0.00    +0.000 A 
ATOM     14  O   UNL     1       0.765   7.209  21.578  0.00  0.00    +0.000 OA
ENDROOT
BRANCH   1  15
ATOM     15  C   UNL     1       1.515   9.824  20.392  0.00  0.00    +0.000 C 
BRANCH  15  17
ATOM     16  O   UNL     1       1.029  11.363  18.604  0.00  0.00    +0.000 OA
ATOM     17  C   UNL     1       0.623  10.477  19.350  0.00  0.00    +0.000 C 
ATOM     18  N   UNL     1      -0.680  10.006  19.398  0.00  0.00    +0.000 N 
ATOM     19  H   UNL     1      -0.975   9.648  20.303  0.00  0.00    +0.000 HD
BRANCH  18  20
ATOM     20  C   UNL     1      -1.680  10.345  18.472  0.00  0.00    +0.000 A 
ATOM     21  C   UNL     1      -2.635  11.349  18.736  0.00  0.00    +0.000 A 
ATOM     22  C   UNL     1      -3.582  11.708  17.771  0.00  0.00    +0.000 A 
ATOM     23  C   UNL     1      -3.543  11.044  16.566  0.00  0.00    +0.000 A 
ATOM     24  C   UNL     1      -2.622  10.053  16.315  0.00  0.00    +0.000 A 
ATOM     25  C   UNL     1      -1.670   9.686  17.240  0.00  0.00    +0.000 A 
ATOM     26  O   UNL     1      -2.756   9.525  15.068  0.00  0.00    +0.000 OA
ATOM     27  C   UNL     1      -3.693  10.463  14.500  0.00  0.00    +0.000 C 
ATOM     28  O   UNL     1      -4.347  11.279  15.493  0.00  0.00    +0.000 OA
ENDBRANCH  18  20
ENDBRANCH  15  17
ENDBRANCH   1  15
BRANCH   4  29
ATOM     29  O   UNL     1       4.090   6.783  16.913  0.00  0.00    +0.000 OA
BRANCH  29  30
ATOM     30  C   UNL     1       5.219   6.108  16.408  0.00  0.00    +0.000 A 
ATOM     31  C   UNL     1       6.299   5.900  17.264  0.00  0.00    +0.000 A 
ATOM     32  C   UNL     1       7.436   5.251  16.777  0.00  0.00    +0.000 A 
ATOM     33  C   UNL     1       7.487   4.819  15.448  0.00  0.00    +0.000 A 
ATOM     34  C   UNL     1       6.385   4.996  14.612  0.00  0.00    +0.000 A 
ATOM     35  C   UNL     1       5.241   5.613  15.102  0.00  0.00    +0.000 A 
ENDBRANCH  29  30
ENDBRANCH   4  29
TORSDOF 5
ENDMDL
MODEL 7
REMARK VINA RESULT:      -9.2      5.570      9.628
REMARK  Name = 
REMARK  5 active torsions:
REMARK  status: ('A' for Active; 'I' for Inactive)
REMARK    1  A    between atoms: C_2  and  C_3
REMARK    2  A    between atoms: C_3  and  N_4
REMARK    3  A    between atoms: C_7  and  O_8
REMARK    4  A    between atoms: O_8  and  C_9
REMARK    5  A    between atoms: N_25  and  C_26
REMARK                            x       y       z     vdW  Elec       q    Type
REMARK                         _______ _______ _______ _____ _____    ______ ____
ROOT
ATOM      1  N   UNL     1       0.208  10.398  21.517  0.00  0.00    +0.000 N 
ATOM      2  N   UNL     1      -0.141  11.059  20.349  0.00  0.00    +0.000 NA
ATOM      3  C   UNL     1      -1.197  11.743  20.717  0.00  0.00    +0.000 A 
ATOM      4  C   UNL     1      -2.052  12.631  19.877  0.00  0.00    +0.000 A 
ATOM      5  N   UNL     1      -3.061  13.293  20.355  0.00  0.00    +0.000 NA
ATOM      6  C   UNL     1      -3.414  13.090  21.703  0.00  0.00    +0.000 A 
ATOM      7  C   UNL     1      -4.561  13.728  22.178  0.00  0.00    +0.000 A 
ATOM      8  C   UNL     1      -4.981  13.535  23.491  0.00  0.00    +0.000 A 
ATOM      9  C   UNL     1      -4.258  12.702  24.339  0.00  0.00    +0.000 A 
ATOM     10  C   UNL     1      -3.109  12.052  23.876  0.00  0.00    +0.000 A 
ATOM     11  C   UNL     1      -2.686  12.238  22.559  0.00  0.00    +0.000 A 
ATOM     12  N   UNL     1      -1.567  11.598  22.019  0.00  0.00    +0.000 N 
ATOM     13  C   UNL     1      -0.667  10.726  22.573  0.00  0.00    +0.000 A 
ATOM     14  O   UNL     1      -0.620  10.285  23.710  0.00  0.00    +0.000 OA
ENDROOT
BRANCH   1  15
ATOM     15  C   UNL     1       1.374   9.559  21.636  0.00  0.00    +0.000 C 
BRANCH  15  17
ATOM     16  O   UNL     1      -0.117   7.709  21.235  0.00  0.00    +0.000 OA
ATOM     17  C   UNL     1       1.029   8.149  21.187  0.00  0.00    +0.000 C 
ATOM     18  N   UNL     1       2.147   7.429  20.796  0.00  0.00    +0.000 N 
ATOM     19  H   UNL     1       3.021   7.727  21.222  0.00  0.00    +0.000 HD
BRANCH  18  20
ATOM     20  C   UNL     1       2.103   6.148  20.221  0.00  0.00    +0.000 A 
ATOM     21  C   UNL     1       1.373   5.091  20.804  0.00  0.00    +0.000 A 
ATOM     22  C   UNL     1       1.298   3.842  20.177  0.00  0.00    +0.000 A 
ATOM     23  C   UNL     1       1.962   3.691  18.982  0.00  0.00    +0.000 A 
ATOM     24  C   UNL     1       2.689   4.717  18.423  0.00  0.00    +0.000 A 
ATOM     25  C   UNL     1       2.771   5.960  19.009  0.00  0.00    +0.000 A 
ATOM     26  O   UNL     1       3.268   4.359  17.245  0.00  0.00    +0.000 OA
ATOM     27  C   UNL     1       2.621   3.090  17.024  0.00  0.00    +0.000 C 
ATOM     28  O   UNL     1       1.973   2.574  18.205  0.00  0.00    +0.000 OA
ENDBRANCH  18  20
ENDBRANCH  15  17
ENDBRANCH   1  15
BRANCH   4  29
ATOM     29  O   UNL     1      -1.672  12.597  18.558  0.00  0.00    +0.000 OA
BRANCH  29  30
ATOM     30  C   UNL     1      -2.363  11.662  17.763  0.00  0.00    +0.000 A 
ATOM     31  C   UNL     1      -1.644  10.598  17.222  0.00  0.00    +0.000 A 
ATOM     32  C   UNL     1      -2.306   9.672  16.414  0.00  0.00    +0.000 A 
ATOM     33  C   UNL     1      -3.672   9.814  16.152  0.00  0.00    +0.000 A 
ATOM     34  C   UNL     1      -4.392  10.859  16.732  0.00  0.00    +0.000 A 
ATOM     35  C   UNL     1      -3.742  11.764  17.561  0.00  0.00    +0.000 A 
ENDBRANCH  29  30
ENDBRANCH   4  29
TORSDOF 5
ENDMDL
MODEL 8
REMARK VINA RESULT:      -9.1      1.258      1.859
REMARK  Name = 
REMARK  5 active torsions:
REMARK  status: ('A' for Active; 'I' for Inactive)
REMARK    1  A    between atoms: C_2  and  C_3
REMARK    2  A    between atoms: C_3  and  N_4
REMARK    3  A    between atoms: C_7  and  O_8
REMARK    4  A    between atoms: O_8  and  C_9
REMARK    5  A    between atoms: N_25  and  C_26
REMARK                            x       y       z     vdW  Elec       q    Type
REMARK                         _______ _______ _______ _____ _____    ______ ____
ROOT
ATOM      1  N   UNL     1       5.908   6.226  17.719  0.00  0.00    +0.000 N 
ATOM      2  N   UNL     1       4.854   7.125  17.679  0.00  0.00    +0.000 NA
ATOM      3  C   UNL     1       3.932   6.511  18.377  0.00  0.00    +0.000 A 
ATOM      4  C   UNL     1       2.539   6.967  18.660  0.00  0.00    +0.000 A 
ATOM      5  N   UNL     1       1.714   6.291  19.399  0.00  0.00    +0.000 NA
ATOM      6  C   UNL     1       2.125   5.031  19.877  0.00  0.00    +0.000 A 
ATOM      7  C   UNL     1       1.193   4.268  20.583  0.00  0.00    +0.000 A 
ATOM      8  C   UNL     1       1.529   2.999  21.047  0.00  0.00    +0.000 A 
ATOM      9  C   UNL     1       2.798   2.482  20.805  0.00  0.00    +0.000 A 
ATOM     10  C   UNL     1       3.740   3.232  20.094  0.00  0.00    +0.000 A 
ATOM     11  C   UNL     1       3.408   4.503  19.624  0.00  0.00    +0.000 A 
ATOM     12  N   UNL     1       4.286   5.297  18.880  0.00  0.00    +0.000 N 
ATOM     13  C   UNL     1       5.576   5.080  18.470  0.00  0.00    +0.000 A 
ATOM     14  O   UNL     1       6.295   4.113  18.664  0.00  0.00    +0.000 OA
ENDROOT
BRANCH   1  15
ATOM     15  C   UNL     1       7.200   6.491  17.138  0.00  0.00    +0.000 C 
BRANCH  15  17
ATOM     16  O   UNL     1       8.549   7.300  18.963  0.00  0.00    +0.000 OA
ATOM     17  C   UNL     1       7.908   7.563  17.949  0.00  0.00    +0.000 C 
ATOM     18  N   UNL     1       7.685   8.838  17.451  0.00  0.00    +0.000 N 
ATOM     19  H   UNL     1       6.818   8.952  16.932  0.00  0.00    +0.000 HD
BRANCH  18  20
ATOM     20  C   UNL     1       8.316   9.998  17.931  0.00  0.00    +0.000 A 
ATOM     21  C   UNL     1       8.074  11.269  17.367  0.00  0.00    +0.000 A 
ATOM     22  C   UNL     1       8.671  12.415  17.904  0.00  0.00    +0.000 A 
ATOM     23  C   UNL     1       9.496  12.250  18.992  0.00  0.00    +0.000 A 
ATOM     24  C   UNL     1       9.745  11.008  19.531  0.00  0.00    +0.000 A 
ATOM     25  C   UNL     1       9.163   9.864  19.033  0.00  0.00    +0.000 A 
ATOM     26  O   UNL     1      10.588  11.066  20.598  0.00  0.00    +0.000 OA
ATOM     27  C   UNL     1      10.632  12.492  20.803  0.00  0.00    +0.000 C 
ATOM     28  O   UNL     1      10.130  13.240  19.677  0.00  0.00    +0.000 OA
ENDBRANCH  18  20
ENDBRANCH  15  17
ENDBRANCH   1  15
BRANCH   4  29
ATOM     29  O   UNL     1       2.245   8.132  17.996  0.00  0.00    +0.000 OA
BRANCH  29  30
ATOM     30  C   UNL     1       1.334   8.979  18.655  0.00  0.00    +0.000 A 
ATOM     31  C   UNL     1       0.359   9.619  17.891  0.00  0.00    +0.000 A 
ATOM     32  C   UNL     1      -0.542  10.480  18.522  0.00  0.00    +0.000 A 
ATOM     33  C   UNL     1      -0.463  10.695  19.902  0.00  0.00    +0.000 A 
ATOM     34  C   UNL     1       0.490  10.019  20.663  0.00  0.00    +0.000 A 
ATOM     35  C   UNL     1       1.367   9.138  20.043  0.00  0.00    +0.000 A 
ENDBRANCH  29  30
ENDBRANCH   4  29
TORSDOF 5
ENDMDL
MODEL 9
REMARK VINA RESULT:      -9.1      3.435      7.979
REMARK  Name = 
REMARK  5 active torsions:
REMARK  status: ('A' for Active; 'I' for Inactive)
REMARK    1  A    between atoms: C_2  and  C_3
REMARK    2  A    between atoms: C_3  and  N_4
REMARK    3  A    between atoms: C_7  and  O_8
REMARK    4  A    between atoms: O_8  and  C_9
REMARK    5  A    between atoms: N_25  and  C_26
REMARK                            x       y       z     vdW  Elec       q    Type
REMARK                         _______ _______ _______ _____ _____    ______ ____
ROOT
ATOM      1  N   UNL     1       2.155   8.028  19.743  0.00  0.00    +0.000 N 
ATOM      2  N   UNL     1       2.993   7.799  18.663  0.00  0.00    +0.000 NA
ATOM      3  C   UNL     1       2.927   6.498  18.524  0.00  0.00    +0.000 A 
ATOM      4  C   UNL     1       3.652   5.643  17.540  0.00  0.00    +0.000 A 
ATOM      5  N   UNL     1       3.485   4.358  17.467  0.00  0.00    +0.000 NA
ATOM      6  C   UNL     1       2.653   3.739  18.419  0.00  0.00    +0.000 A 
ATOM      7  C   UNL     1       2.562   2.346  18.395  0.00  0.00    +0.000 A 
ATOM      8  C   UNL     1       1.785   1.675  19.335  0.00  0.00    +0.000 A 
ATOM      9  C   UNL     1       1.094   2.390  20.308  0.00  0.00    +0.000 A 
ATOM     10  C   UNL     1       1.180   3.786  20.347  0.00  0.00    +0.000 A 
ATOM     11  C   UNL     1       1.960   4.464  19.410  0.00  0.00    +0.000 A 
ATOM     12  N   UNL     1       2.117   5.853  19.408  0.00  0.00    +0.000 N 
ATOM     13  C   UNL     1       1.594   6.825  20.220  0.00  0.00    +0.000 A 
ATOM     14  O   UNL     1       0.835   6.711  21.169  0.00  0.00    +0.000 OA
ENDROOT
BRANCH   1  15
ATOM     15  C   UNL     1       1.842   9.343  20.241  0.00  0.00    +0.000 C 
BRANCH  15  17
ATOM     16  O   UNL     1       1.403  10.798  18.372  0.00  0.00    +0.000 OA
ATOM     17  C   UNL     1       0.949  10.061  19.243  0.00  0.00    +0.000 C 
ATOM     18  N   UNL     1      -0.398   9.837  19.480  0.00  0.00    +0.000 N 
ATOM     19  H   UNL     1      -0.634   9.612  20.443  0.00  0.00    +0.000 HD
BRANCH  18  20
ATOM     20  C   UNL     1      -1.434  10.276  18.639  0.00  0.00    +0.000 A 
ATOM     21  C   UNL     1      -2.270  11.359  18.984  0.00  0.00    +0.000 A 
ATOM     22  C   UNL     1      -3.255  11.812  18.100  0.00  0.00    +0.000 A 
ATOM     23  C   UNL     1      -3.374  11.162  16.893  0.00  0.00    +0.000 A 
ATOM     24  C   UNL     1      -2.570  10.094  16.565  0.00  0.00    +0.000 A 
ATOM     25  C   UNL     1      -1.584   9.633  17.408  0.00  0.00    +0.000 A 
ATOM     26  O   UNL     1      -2.851   9.595  15.331  0.00  0.00    +0.000 OA
ATOM     27  C   UNL     1      -3.741  10.619  14.844  0.00  0.00    +0.000 C 
ATOM     28  O   UNL     1      -4.236  11.480  15.890  0.00  0.00    +0.000 OA
ENDBRANCH  18  20
ENDBRANCH  15  17
ENDBRANCH   1  15
BRANCH   4  29
ATOM     29  O   UNL     1       4.540   6.377  16.792  0.00  0.00    +0.000 OA
BRANCH  29  30
ATOM     30  C   UNL     1       5.797   6.581  17.392  0.00  0.00    +0.000 A 
ATOM     31  C   UNL     1       6.277   5.605  18.263  0.00  0.00    +0.000 A 
ATOM     32  C   UNL     1       7.513   5.799  18.885  0.00  0.00    +0.000 A 
ATOM     33  C   UNL     1       8.255   6.957  18.635  0.00  0.00    +0.000 A 
ATOM     34  C   UNL     1       7.784   7.908  17.730  0.00  0.00    +0.000 A 
ATOM     35  C   UNL     1       6.571   7.704  17.086  0.00  0.00    +0.000 A 
ENDBRANCH  29  30
ENDBRANCH   4  29
TORSDOF 5
ENDMDL
