MODEL 1
REMARK VINA RESULT:      -6.6      0.000      0.000
REMARK  Name = 
REMARK  7 active torsions:
REMARK  status: ('A' for Active; 'I' for Inactive)
REMARK    1  A    between atoms: C_1  and  C_2
REMARK    2  A    between atoms: C_5  and  C_6
REMARK    3  A    between atoms: C_9  and  C_10
REMARK    4  A    between atoms: C_10  and  N_11
REMARK    5  A    between atoms: C_16  and  C_17
REMARK    6  A    between atoms: C_17  and  O_18
REMARK    7  A    between atoms: N_21  and  C_22
REMARK                            x       y       z     vdW  Elec       q    Type
REMARK                         _______ _______ _______ _____ _____    ______ ____
ROOT
ATOM      1  C   UNL     1       2.040   6.970  19.948  0.00  0.00    +0.000 A 
ATOM      2  N   UNL     1       1.507   6.118  20.805  0.00  0.00    +0.000 NA
ATOM      3  N   UNL     1       2.236   4.947  20.718  0.00  0.00    +0.000 NA
ATOM      4  C   UNL     1       3.166   5.166  19.818  0.00  0.00    +0.000 A 
ATOM      5  O   UNL     1       3.109   6.421  19.286  0.00  0.00    +0.000 OA
ENDROOT
BRANCH   1  10
ATOM      6  C   UNL     1       0.327  11.600  20.752  0.00  0.00    +0.000 C 
ATOM      7  C   UNL     1       0.840  10.406  20.026  0.00  0.00    +0.000 A 
ATOM      8  C   UNL     1       1.034  10.234  18.671  0.00  0.00    +0.000 A 
ATOM      9  C   UNL     1       1.510   8.923  18.475  0.00  0.00    +0.000 A 
ATOM     10  C   UNL     1       1.615   8.314  19.712  0.00  0.00    +0.000 A 
ATOM     11  N   UNL     1       1.203   9.228  20.659  0.00  0.00    +0.000 N 
ATOM     12  C   UNL     1       1.082   9.023  22.088  0.00  0.00    +0.000 C 
ENDBRANCH   1  10
BRANCH   4  13
ATOM     13  C   UNL     1       4.231   4.265  19.300  0.00  0.00    +0.000 C 
BRANCH  13  14
ATOM     14  N   UNL     1       5.147   4.915  18.319  0.00  0.00    +0.000 NA
ATOM     15  C   UNL     1       6.540   4.829  18.814  0.00  0.00    +0.000 C 
ATOM     16  C   UNL     1       7.671   5.224  17.854  0.00  0.00    +0.000 C 
ATOM     17  O   UNL     1       7.762   4.292  16.786  0.00  0.00    +0.000 OA
ATOM     18  C   UNL     1       7.046   4.667  15.617  0.00  0.00    +0.000 C 
ATOM     19  C   UNL     1       5.572   5.041  15.816  0.00  0.00    +0.000 C 
ATOM     20  C   UNL     1       4.933   4.301  16.999  0.00  0.00    +0.000 C 
BRANCH  19  21
ATOM     21  C   UNL     1       5.310   6.555  15.859  0.00  0.00    +0.000 C 
BRANCH  21  22
ATOM     22  O   UNL     1       4.139   6.841  16.621  0.00  0.00    +0.000 OA
ATOM     23  H   UNL     1       4.304   7.649  17.135  0.00  0.00    +0.000 HD
ENDBRANCH  21  22
ENDBRANCH  19  21
ENDBRANCH  13  14
ENDBRANCH   4  13
TORSDOF 5
ENDMDL
MODEL 2
REMARK VINA RESULT:      -6.6      0.702      1.395
REMARK  Name = 
REMARK  7 active torsions:
REMARK  status: ('A' for Active; 'I' for Inactive)
REMARK    1  A    between atoms: C_1  and  C_2
REMARK    2  A    between atoms: C_5  and  C_6
REMARK    3  A    between atoms: C_9  and  C_10
REMARK    4  A    between atoms: C_10  and  N_11
REMARK    5  A    between atoms: C_16  and  C_17
REMARK    6  A    between atoms: C_17  and  O_18
REMARK    7  A    between atoms: N_21  and  C_22
REMARK                            x       y       z     vdW  Elec       q    Type
REMARK                         _______ _______ _______ _____ _____    ______ ____
ROOT
ATOM      1  C   UNL     1       1.965   6.506  20.264  0.00  0.00    +0.000 A 
ATOM      2  N   UNL     1       1.247   5.447  20.594  0.00  0.00    +0.000 NA
ATOM      3  N   UNL     1       2.028   4.335  20.345  0.00  0.00    +0.000 NA
ATOM      4  C   UNL     1       3.171   4.791  19.886  0.00  0.00    +0.000 A 
ATOM      5  O   UNL     1       3.209   6.152  19.806  0.00  0.00    +0.000 OA
ENDROOT
BRANCH   1  10
ATOM      6  C   UNL     1       0.877  11.228  19.024  0.00  0.00    +0.000 C 
ATOM      7  C   UNL     1       1.066  10.011  19.858  0.00  0.00    +0.000 A 
ATOM      8  C   UNL     1       0.917   9.864  21.223  0.00  0.00    +0.000 A 
ATOM      9  C   UNL     1       1.234   8.530  21.543  0.00  0.00    +0.000 A 
ATOM     10  C   UNL     1       1.560   7.872  20.371  0.00  0.00    +0.000 A 
ATOM     11  N   UNL     1       1.456   8.785  19.342  0.00  0.00    +0.000 N 
ATOM     12  C   UNL     1       1.758   8.573  17.941  0.00  0.00    +0.000 C 
ENDBRANCH   1  10
BRANCH   4  13
ATOM     13  C   UNL     1       4.387   4.058  19.441  0.00  0.00    +0.000 C 
BRANCH  13  14
ATOM     14  N   UNL     1       5.207   4.801  18.441  0.00  0.00    +0.000 NA
ATOM     15  C   UNL     1       6.613   4.854  18.901  0.00  0.00    +0.000 C 
ATOM     16  C   UNL     1       7.674   5.365  17.916  0.00  0.00    +0.000 C 
ATOM     17  O   UNL     1       7.832   4.451  16.840  0.00  0.00    +0.000 OA
ATOM     18  C   UNL     1       7.052   4.757  15.691  0.00  0.00    +0.000 C 
ATOM     19  C   UNL     1       5.554   4.979  15.929  0.00  0.00    +0.000 C 
ATOM     20  C   UNL     1       5.022   4.174  17.123  0.00  0.00    +0.000 C 
BRANCH  19  21
ATOM     21  C   UNL     1       5.141   6.458  15.988  0.00  0.00    +0.000 C 
BRANCH  21  22
ATOM     22  O   UNL     1       4.069   6.645  16.910  0.00  0.00    +0.000 OA
ATOM     23  H   UNL     1       4.190   7.506  17.342  0.00  0.00    +0.000 HD
ENDBRANCH  21  22
ENDBRANCH  19  21
ENDBRANCH  13  14
ENDBRANCH   4  13
TORSDOF 5
ENDMDL
MODEL 3
REMARK VINA RESULT:      -6.6      2.576      4.006
REMARK  Name = 
REMARK  7 active torsions:
REMARK  status: ('A' for Active; 'I' for Inactive)
REMARK    1  A    between atoms: C_1  and  C_2
REMARK    2  A    between atoms: C_5  and  C_6
REMARK    3  A    between atoms: C_9  and  C_10
REMARK    4  A    between atoms: C_10  and  N_11
REMARK    5  A    between atoms: C_16  and  C_17
REMARK    6  A    between atoms: C_17  and  O_18
REMARK    7  A    between atoms: N_21  and  C_22
REMARK                            x       y       z     vdW  Elec       q    Type
REMARK                         _______ _______ _______ _____ _____    ______ ____
ROOT
ATOM      1  C   UNL     1       1.440   8.918  19.592  0.00  0.00    +0.000 A 
ATOM      2  N   UNL     1       1.467   9.528  18.421  0.00  0.00    +0.000 NA
ATOM      3  N   UNL     1       2.212   8.736  17.569  0.00  0.00    +0.000 NA
ATOM      4  C   UNL     1       2.584   7.694  18.276  0.00  0.00    +0.000 A 
ATOM      5  O   UNL     1       2.135   7.735  19.564  0.00  0.00    +0.000 OA
ENDROOT
BRANCH   1  10
ATOM      6  C   UNL     1      -1.436  11.641  22.647  0.00  0.00    +0.000 C 
ATOM      7  C   UNL     1      -0.509  10.573  22.184  0.00  0.00    +0.000 A 
ATOM      8  C   UNL     1       0.099   9.576  22.919  0.00  0.00    +0.000 A 
ATOM      9  C   UNL     1       0.905   8.831  22.036  0.00  0.00    +0.000 A 
ATOM     10  C   UNL     1       0.769   9.371  20.770  0.00  0.00    +0.000 A 
ATOM     11  N   UNL     1      -0.099  10.438  20.867  0.00  0.00    +0.000 N 
ATOM     12  C   UNL     1      -0.498  11.348  19.813  0.00  0.00    +0.000 C 
ENDBRANCH   1  10
BRANCH   4  13
ATOM     13  C   UNL     1       3.411   6.518  17.891  0.00  0.00    +0.000 C 
BRANCH  13  14
ATOM     14  N   UNL     1       2.879   5.217  18.389  0.00  0.00    +0.000 NA
ATOM     15  C   UNL     1       2.858   4.238  17.278  0.00  0.00    +0.000 C 
ATOM     16  C   UNL     1       2.570   2.769  17.618  0.00  0.00    +0.000 C 
ATOM     17  O   UNL     1       3.638   2.217  18.375  0.00  0.00    +0.000 OA
ATOM     18  C   UNL     1       3.448   2.267  19.783  0.00  0.00    +0.000 C 
ATOM     19  C   UNL     1       3.091   3.638  20.370  0.00  0.00    +0.000 C 
ATOM     20  C   UNL     1       3.676   4.798  19.553  0.00  0.00    +0.000 C 
BRANCH  19  21
ATOM     21  C   UNL     1       1.593   3.823  20.662  0.00  0.00    +0.000 C 
BRANCH  21  22
ATOM     22  O   UNL     1       1.259   5.208  20.718  0.00  0.00    +0.000 OA
ATOM     23  H   UNL     1       0.912   5.470  19.849  0.00  0.00    +0.000 HD
ENDBRANCH  21  22
ENDBRANCH  19  21
ENDBRANCH  13  14
ENDBRANCH   4  13
TORSDOF 5
ENDMDL
MODEL 4
REMARK VINA RESULT:      -6.5      2.563      3.969
REMARK  Name = 
REMARK  7 active torsions:
REMARK  status: ('A' for Active; 'I' for Inactive)
REMARK    1  A    between atoms: C_1  and  C_2
REMARK    2  A    between atoms: C_5  and  C_6
REMARK    3  A    between atoms: C_9  and  C_10
REMARK    4  A    between atoms: C_10  and  N_11
REMARK    5  A    between atoms: C_16  and  C_17
REMARK    6  A    between atoms: C_17  and  O_18
REMARK    7  A    between atoms: N_21  and  C_22
REMARK                            x       y       z     vdW  Elec       q    Type
REMARK                         _______ _______ _______ _____ _____    ______ ____
ROOT
ATOM      1  C   UNL     1       1.571   9.100  18.819  0.00  0.00    +0.000 A 
ATOM      2  N   UNL     1       1.970   9.525  17.634  0.00  0.00    +0.000 NA
ATOM      3  N   UNL     1       2.840   8.575  17.135  0.00  0.00    +0.000 NA
ATOM      4  C   UNL     1       2.909   7.632  18.046  0.00  0.00    +0.000 A 
ATOM      5  O   UNL     1       2.135   7.891  19.140  0.00  0.00    +0.000 OA
ENDROOT
BRANCH   1  10
ATOM      6  C   UNL     1      -0.820  10.510  22.980  0.00  0.00    +0.000 C 
ATOM      7  C   UNL     1      -0.458  10.417  21.539  0.00  0.00    +0.000 A 
ATOM      8  C   UNL     1      -1.057  11.026  20.455  0.00  0.00    +0.000 A 
ATOM      9  C   UNL     1      -0.368  10.607  19.300  0.00  0.00    +0.000 A 
ATOM     10  C   UNL     1       0.652   9.760  19.692  0.00  0.00    +0.000 A 
ATOM     11  N   UNL     1       0.592   9.647  21.065  0.00  0.00    +0.000 N 
ATOM     12  C   UNL     1       1.421   8.820  21.919  0.00  0.00    +0.000 C 
ENDBRANCH   1  10
BRANCH   4  13
ATOM     13  C   UNL     1       3.696   6.370  18.064  0.00  0.00    +0.000 C 
BRANCH  13  14
ATOM     14  N   UNL     1       2.922   5.183  18.529  0.00  0.00    +0.000 NA
ATOM     15  C   UNL     1       2.826   4.197  17.427  0.00  0.00    +0.000 C 
ATOM     16  C   UNL     1       2.276   2.802  17.756  0.00  0.00    +0.000 C 
ATOM     17  O   UNL     1       3.179   2.100  18.598  0.00  0.00    +0.000 OA
ATOM     18  C   UNL     1       2.893   2.209  19.986  0.00  0.00    +0.000 C 
ATOM     19  C   UNL     1       2.720   3.631  20.532  0.00  0.00    +0.000 C 
ATOM     20  C   UNL     1       3.548   4.664  19.755  0.00  0.00    +0.000 C 
BRANCH  19  21
ATOM     21  C   UNL     1       1.255   4.063  20.705  0.00  0.00    +0.000 C 
BRANCH  21  22
ATOM     22  O   UNL     1       1.144   5.485  20.685  0.00  0.00    +0.000 OA
ATOM     23  H   UNL     1       0.298   5.715  20.267  0.00  0.00    +0.000 HD
ENDBRANCH  21  22
ENDBRANCH  19  21
ENDBRANCH  13  14
ENDBRANCH   4  13
TORSDOF 5
ENDMDL
MODEL 5
REMARK VINA RESULT:      -6.3      2.654      3.925
REMARK  Name = 
REMARK  7 active torsions:
REMARK  status: ('A' for Active; 'I' for Inactive)
REMARK    1  A    between atoms: C_1  and  C_2
REMARK    2  A    between atoms: C_5  and  C_6
REMARK    3  A    between atoms: C_9  and  C_10
REMARK    4  A    between atoms: C_10  and  N_11
REMARK    5  A    between atoms: C_16  and  C_17
REMARK    6  A    between atoms: C_17  and  O_18
REMARK    7  A    between atoms: N_21  and  C_22
REMARK                            x       y       z     vdW  Elec       q    Type
REMARK                         _______ _______ _______ _____ _____    ______ ____
ROOT
ATOM      1  C   UNL     1       1.223   9.184  18.495  0.00  0.00    +0.000 A 
ATOM      2  N   UNL     1       2.089   9.181  17.497  0.00  0.00    +0.000 NA
ATOM      3  N   UNL     1       2.957   8.129  17.718  0.00  0.00    +0.000 NA
ATOM      4  C   UNL     1       2.559   7.559  18.832  0.00  0.00    +0.000 A 
ATOM      5  O   UNL     1       1.470   8.167  19.382  0.00  0.00    +0.000 OA
ENDROOT
BRANCH   1  10
ATOM      6  C   UNL     1      -1.639  12.835  20.364  0.00  0.00    +0.000 C 
ATOM      7  C   UNL     1      -1.192  11.723  19.483  0.00  0.00    +0.000 A 
ATOM      8  C   UNL     1      -1.859  11.131  18.429  0.00  0.00    +0.000 A 
ATOM      9  C   UNL     1      -1.033  10.106  17.928  0.00  0.00    +0.000 A 
ATOM     10  C   UNL     1       0.134  10.091  18.670  0.00  0.00    +0.000 A 
ATOM     11  N   UNL     1       0.031  11.085  19.621  0.00  0.00    +0.000 N 
ATOM     12  C   UNL     1       0.983  11.408  20.665  0.00  0.00    +0.000 C 
ENDBRANCH   1  10
BRANCH   4  13
ATOM     13  C   UNL     1       3.118   6.391  19.564  0.00  0.00    +0.000 C 
BRANCH  13  14
ATOM     14  N   UNL     1       2.672   5.073  19.028  0.00  0.00    +0.000 NA
ATOM     15  C   UNL     1       3.198   4.898  17.654  0.00  0.00    +0.000 C 
ATOM     16  C   UNL     1       3.059   3.516  17.000  0.00  0.00    +0.000 C 
ATOM     17  O   UNL     1       3.878   2.567  17.669  0.00  0.00    +0.000 OA
ATOM     18  C   UNL     1       3.210   1.823  18.680  0.00  0.00    +0.000 C 
ATOM     19  C   UNL     1       2.450   2.640  19.731  0.00  0.00    +0.000 C 
ATOM     20  C   UNL     1       3.078   4.019  19.972  0.00  0.00    +0.000 C 
BRANCH  19  21
ATOM     21  C   UNL     1       0.934   2.720  19.487  0.00  0.00    +0.000 C 
BRANCH  21  22
ATOM     22  O   UNL     1       0.343   3.721  20.313  0.00  0.00    +0.000 OA
ATOM     23  H   UNL     1      -0.464   4.036  19.874  0.00  0.00    +0.000 HD
ENDBRANCH  21  22
ENDBRANCH  19  21
ENDBRANCH  13  14
ENDBRANCH   4  13
TORSDOF 5
ENDMDL
MODEL 6
REMARK VINA RESULT:      -6.3      2.770      4.155
REMARK  Name = 
REMARK  7 active torsions:
REMARK  status: ('A' for Active; 'I' for Inactive)
REMARK    1  A    between atoms: C_1  and  C_2
REMARK    2  A    between atoms: C_5  and  C_6
REMARK    3  A    between atoms: C_9  and  C_10
REMARK    4  A    between atoms: C_10  and  N_11
REMARK    5  A    between atoms: C_16  and  C_17
REMARK    6  A    between atoms: C_17  and  O_18
REMARK    7  A    between atoms: N_21  and  C_22
REMARK                            x       y       z     vdW  Elec       q    Type
REMARK                         _______ _______ _______ _____ _____    ______ ____
ROOT
ATOM      1  C   UNL     1       1.299   8.908  19.468  0.00  0.00    +0.000 A 
ATOM      2  N   UNL     1       1.207   9.377  18.237  0.00  0.00    +0.000 NA
ATOM      3  N   UNL     1       2.074   8.638  17.456  0.00  0.00    +0.000 NA
ATOM      4  C   UNL     1       2.632   7.764  18.262  0.00  0.00    +0.000 A 
ATOM      5  O   UNL     1       2.194   7.871  19.550  0.00  0.00    +0.000 OA
ENDROOT
BRANCH   1  10
ATOM      6  C   UNL     1      -0.912  11.959  22.757  0.00  0.00    +0.000 C 
ATOM      7  C   UNL     1      -0.435  10.703  22.119  0.00  0.00    +0.000 A 
ATOM      8  C   UNL     1      -0.555   9.403  22.568  0.00  0.00    +0.000 A 
ATOM      9  C   UNL     1       0.080   8.569  21.627  0.00  0.00    +0.000 A 
ATOM     10  C   UNL     1       0.568   9.365  20.608  0.00  0.00    +0.000 A 
ATOM     11  N   UNL     1       0.250  10.672  20.914  0.00  0.00    +0.000 N 
ATOM     12  C   UNL     1       0.607  11.864  20.172  0.00  0.00    +0.000 C 
ENDBRANCH   1  10
BRANCH   4  13
ATOM     13  C   UNL     1       3.653   6.718  17.985  0.00  0.00    +0.000 C 
BRANCH  13  14
ATOM     14  N   UNL     1       3.254   5.353  18.434  0.00  0.00    +0.000 NA
ATOM     15  C   UNL     1       3.366   5.269  19.908  0.00  0.00    +0.000 C 
ATOM     16  C   UNL     1       2.782   4.031  20.606  0.00  0.00    +0.000 C 
ATOM     17  O   UNL     1       1.366   4.023  20.494  0.00  0.00    +0.000 OA
ATOM     18  C   UNL     1       0.867   3.268  19.398  0.00  0.00    +0.000 C 
ATOM     19  C   UNL     1       1.464   3.595  18.024  0.00  0.00    +0.000 C 
ATOM     20  C   UNL     1       1.911   5.059  17.910  0.00  0.00    +0.000 C 
BRANCH  19  21
ATOM     21  C   UNL     1       2.552   2.611  17.563  0.00  0.00    +0.000 C 
BRANCH  21  22
ATOM     22  O   UNL     1       2.505   1.412  18.333  0.00  0.00    +0.000 OA
ATOM     23  H   UNL     1       1.574   1.153  18.431  0.00  0.00    +0.000 HD
ENDBRANCH  21  22
ENDBRANCH  19  21
ENDBRANCH  13  14
ENDBRANCH   4  13
TORSDOF 5
ENDMDL
MODEL 7
REMARK VINA RESULT:      -6.3      2.553      3.611
REMARK  Name = 
REMARK  7 active torsions:
REMARK  status: ('A' for Active; 'I' for Inactive)
REMARK    1  A    between atoms: C_1  and  C_2
REMARK    2  A    between atoms: C_5  and  C_6
REMARK    3  A    between atoms: C_9  and  C_10
REMARK    4  A    between atoms: C_10  and  N_11
REMARK    5  A    between atoms: C_16  and  C_17
REMARK    6  A    between atoms: C_17  and  O_18
REMARK    7  A    between atoms: N_21  and  C_22
REMARK                            x       y       z     vdW  Elec       q    Type
REMARK                         _______ _______ _______ _____ _____    ______ ____
ROOT
ATOM      1  C   UNL     1       1.748   9.714  18.580  0.00  0.00    +0.000 A 
ATOM      2  N   UNL     1       2.119   9.134  17.453  0.00  0.00    +0.000 NA
ATOM      3  N   UNL     1       2.413   7.818  17.754  0.00  0.00    +0.000 NA
ATOM      4  C   UNL     1       2.196   7.683  19.041  0.00  0.00    +0.000 A 
ATOM      5  O   UNL     1       1.774   8.837  19.635  0.00  0.00    +0.000 OA
ENDROOT
BRANCH   1  10
ATOM      6  C   UNL     1      -1.072  13.717  19.601  0.00  0.00    +0.000 C 
ATOM      7  C   UNL     1       0.102  12.906  19.180  0.00  0.00    +0.000 A 
ATOM      8  C   UNL     1       1.322  13.334  18.697  0.00  0.00    +0.000 A 
ATOM      9  C   UNL     1       2.091  12.188  18.414  0.00  0.00    +0.000 A 
ATOM     10  C   UNL     1       1.339  11.074  18.740  0.00  0.00    +0.000 A 
ATOM     11  N   UNL     1       0.121  11.520  19.209  0.00  0.00    +0.000 N 
ATOM     12  C   UNL     1      -1.016  10.718  19.613  0.00  0.00    +0.000 C 
ENDBRANCH   1  10
BRANCH   4  13
ATOM     13  C   UNL     1       2.355   6.495  19.922  0.00  0.00    +0.000 C 
BRANCH  13  14
ATOM     14  N   UNL     1       2.932   5.305  19.232  0.00  0.00    +0.000 NA
ATOM     15  C   UNL     1       4.410   5.360  19.312  0.00  0.00    +0.000 C 
ATOM     16  C   UNL     1       5.201   4.119  18.874  0.00  0.00    +0.000 C 
ATOM     17  O   UNL     1       4.974   3.044  19.775  0.00  0.00    +0.000 OA
ATOM     18  C   UNL     1       3.940   2.153  19.378  0.00  0.00    +0.000 C 
ATOM     19  C   UNL     1       2.590   2.794  19.031  0.00  0.00    +0.000 C 
ATOM     20  C   UNL     1       2.337   4.091  19.812  0.00  0.00    +0.000 C 
BRANCH  19  21
ATOM     21  C   UNL     1       2.344   2.960  17.523  0.00  0.00    +0.000 C 
BRANCH  21  22
ATOM     22  O   UNL     1       1.282   3.881  17.285  0.00  0.00    +0.000 OA
ATOM     23  H   UNL     1       0.938   4.173  18.145  0.00  0.00    +0.000 HD
ENDBRANCH  21  22
ENDBRANCH  19  21
ENDBRANCH  13  14
ENDBRANCH   4  13
TORSDOF 5
ENDMDL
MODEL 8
REMARK VINA RESULT:      -6.3      2.696      7.769
REMARK  Name = 
REMARK  7 active torsions:
REMARK  status: ('A' for Active; 'I' for Inactive)
REMARK    1  A    between atoms: C_1  and  C_2
REMARK    2  A    between atoms: C_5  and  C_6
REMARK    3  A    between atoms: C_9  and  C_10
REMARK    4  A    between atoms: C_10  and  N_11
REMARK    5  A    between atoms: C_16  and  C_17
REMARK    6  A    between atoms: C_17  and  O_18
REMARK    7  A    between atoms: N_21  and  C_22
REMARK                            x       y       z     vdW  Elec       q    Type
REMARK                         _______ _______ _______ _____ _____    ______ ____
ROOT
ATOM      1  C   UNL     1       2.475   6.709  18.773  0.00  0.00    +0.000 A 
ATOM      2  N   UNL     1       2.121   7.779  18.084  0.00  0.00    +0.000 NA
ATOM      3  N   UNL     1       1.641   8.704  18.991  0.00  0.00    +0.000 NA
ATOM      4  C   UNL     1       1.740   8.138  20.172  0.00  0.00    +0.000 A 
ATOM      5  O   UNL     1       2.258   6.877  20.117  0.00  0.00    +0.000 OA
ENDROOT
BRANCH   1  10
ATOM      6  C   UNL     1       3.323   1.852  17.931  0.00  0.00    +0.000 C 
ATOM      7  C   UNL     1       3.460   3.331  17.840  0.00  0.00    +0.000 A 
ATOM      8  C   UNL     1       4.373   4.072  17.117  0.00  0.00    +0.000 A 
ATOM      9  C   UNL     1       4.114   5.432  17.378  0.00  0.00    +0.000 A 
ATOM     10  C   UNL     1       3.039   5.507  18.244  0.00  0.00    +0.000 A 
ATOM     11  N   UNL     1       2.642   4.216  18.523  0.00  0.00    +0.000 N 
ATOM     12  C   UNL     1       1.594   3.792  19.430  0.00  0.00    +0.000 C 
ENDBRANCH   1  10
BRANCH   4  13
ATOM     13  C   UNL     1       1.366   8.653  21.517  0.00  0.00    +0.000 C 
BRANCH  13  14
ATOM     14  N   UNL     1       0.307   9.701  21.488  0.00  0.00    +0.000 NA
ATOM     15  C   UNL     1      -0.348   9.775  22.815  0.00  0.00    +0.000 C 
ATOM     16  C   UNL     1      -1.306  10.944  23.082  0.00  0.00    +0.000 C 
ATOM     17  O   UNL     1      -0.589  12.171  23.124  0.00  0.00    +0.000 OA
ATOM     18  C   UNL     1      -0.556  12.874  21.889  0.00  0.00    +0.000 C 
ATOM     19  C   UNL     1      -0.085  12.075  20.668  0.00  0.00    +0.000 C 
ATOM     20  C   UNL     1       0.909  10.966  21.038  0.00  0.00    +0.000 C 
BRANCH  19  21
ATOM     21  C   UNL     1      -1.228  11.566  19.775  0.00  0.00    +0.000 C 
BRANCH  21  22
ATOM     22  O   UNL     1      -0.740  10.620  18.824  0.00  0.00    +0.000 OA
ATOM     23  H   UNL     1      -1.477  10.373  18.241  0.00  0.00    +0.000 HD
ENDBRANCH  21  22
ENDBRANCH  19  21
ENDBRANCH  13  14
ENDBRANCH   4  13
TORSDOF 5
ENDMDL
MODEL 9
REMARK VINA RESULT:      -6.3      3.448      7.256
REMARK  Name = 
REMARK  7 active torsions:
REMARK  status: ('A' for Active; 'I' for Inactive)
REMARK    1  A    between atoms: C_1  and  C_2
REMARK    2  A    between atoms: C_5  and  C_6
REMARK    3  A    between atoms: C_9  and  C_10
REMARK    4  A    between atoms: C_10  and  N_11
REMARK    5  A    between atoms: C_16  and  C_17
REMARK    6  A    between atoms: C_17  and  O_18
REMARK    7  A    between atoms: N_21  and  C_22
REMARK                            x       y       z     vdW  Elec       q    Type
REMARK                         _______ _______ _______ _____ _____    ______ ____
ROOT
ATOM      1  C   UNL     1       6.944   5.448  15.861  0.00  0.00    +0.000 A 
ATOM      2  N   UNL     1       7.613   6.494  16.310  0.00  0.00    +0.000 NA
ATOM      3  N   UNL     1       7.352   6.591  17.663  0.00  0.00    +0.000 NA
ATOM      4  C   UNL     1       6.548   5.594  17.949  0.00  0.00    +0.000 A 
ATOM      5  O   UNL     1       6.244   4.826  16.863  0.00  0.00    +0.000 OA
ENDROOT
BRANCH   1  10
ATOM      6  C   UNL     1       5.698   2.817  11.793  0.00  0.00    +0.000 C 
ATOM      7  C   UNL     1       6.408   3.794  12.662  0.00  0.00    +0.000 A 
ATOM      8  C   UNL     1       7.476   4.612  12.352  0.00  0.00    +0.000 A 
ATOM      9  C   UNL     1       7.807   5.335  13.515  0.00  0.00    +0.000 A 
ATOM     10  C   UNL     1       6.931   4.962  14.517  0.00  0.00    +0.000 A 
ATOM     11  N   UNL     1       6.076   4.017  13.989  0.00  0.00    +0.000 N 
ATOM     12  C   UNL     1       5.029   3.292  14.679  0.00  0.00    +0.000 C 
ENDBRANCH   1  10
BRANCH   4  13
ATOM     13  C   UNL     1       5.927   5.202  19.243  0.00  0.00    +0.000 C 
BRANCH  13  14
ATOM     14  N   UNL     1       4.591   4.554  19.100  0.00  0.00    +0.000 NA
ATOM     15  C   UNL     1       4.629   3.209  19.720  0.00  0.00    +0.000 C 
ATOM     16  C   UNL     1       3.301   2.460  19.896  0.00  0.00    +0.000 C 
ATOM     17  O   UNL     1       2.484   3.119  20.855  0.00  0.00    +0.000 OA
ATOM     18  C   UNL     1       1.548   4.033  20.299  0.00  0.00    +0.000 C 
ATOM     19  C   UNL     1       2.116   5.083  19.336  0.00  0.00    +0.000 C 
ATOM     20  C   UNL     1       3.570   5.452  19.661  0.00  0.00    +0.000 C 
BRANCH  19  21
ATOM     21  C   UNL     1       1.914   4.745  17.850  0.00  0.00    +0.000 C 
BRANCH  21  22
ATOM     22  O   UNL     1       1.008   3.654  17.701  0.00  0.00    +0.000 OA
ATOM     23  H   UNL     1       1.366   3.055  17.025  0.00  0.00    +0.000 HD
ENDBRANCH  21  22
ENDBRANCH  19  21
ENDBRANCH  13  14
ENDBRANCH   4  13
TORSDOF 5
ENDMDL
