MODEL 1
REMARK VINA RESULT:      -7.3      0.000      0.000
REMARK  Name = 
REMARK  9 active torsions:
REMARK  status: ('A' for Active; 'I' for Inactive)
REMARK    1  A    between atoms: C_1  and  C_2
REMARK    2  A    between atoms: C_2  and  O_3
REMARK    3  A    between atoms: O_3  and  C_4
REMARK    4  A    between atoms: C_9  and  N_10
REMARK    5  A    between atoms: C_17  and  N_18
REMARK    6  A    between atoms: N_18  and  C_19
REMARK    7  A    between atoms: C_19  and  C_20
REMARK    8  A    between atoms: C_20  and  C_21
REMARK    9  A    between atoms: C_21  and  N_22
REMARK                            x       y       z     vdW  Elec       q    Type
REMARK                         _______ _______ _______ _____ _____    ______ ____
ROOT
ATOM      1  N   UNL     1       1.137   9.459  19.426  0.00  0.00    +0.000 N 
ATOM      2  C   UNL     1       0.804   8.821  20.616  0.00  0.00    +0.000 C 
ATOM      3  O   UNL     1       0.024   9.248  21.465  0.00  0.00    +0.000 OA
ATOM      4  N   UNL     1       1.405   7.618  20.853  0.00  0.00    +0.000 N 
ATOM      5  C   UNL     1       2.301   6.967  20.062  0.00  0.00    +0.000 C 
ATOM      6  O   UNL     1       2.873   5.956  20.460  0.00  0.00    +0.000 OA
ATOM      7  C   UNL     1       2.522   7.583  18.742  0.00  0.00    +0.000 C 
ATOM      8  C   UNL     1       3.334   6.993  17.844  0.00  0.00    +0.000 C 
ATOM      9  C   UNL     1       1.877   8.876  18.394  0.00  0.00    +0.000 C 
ATOM     10  O   UNL     1       2.053   9.378  17.286  0.00  0.00    +0.000 OA
ATOM     11  H   UNL     1       1.230   7.212  21.761  0.00  0.00    +0.000 HD
ENDROOT
BRANCH   1  17
ATOM     12  C   UNL     1      -0.550  11.066  18.552  0.00  0.00    +0.000 A 
ATOM     13  C   UNL     1      -0.903  12.405  18.320  0.00  0.00    +0.000 A 
ATOM     14  C   UNL     1      -0.108  13.453  18.779  0.00  0.00    +0.000 A 
ATOM     15  C   UNL     1       1.063  13.181  19.477  0.00  0.00    +0.000 A 
ATOM     16  C   UNL     1       1.437  11.857  19.709  0.00  0.00    +0.000 A 
ATOM     17  C   UNL     1       0.650  10.789  19.235  0.00  0.00    +0.000 A 
BRANCH  12  18
ATOM     18  O   UNL     1      -1.468  10.179  18.051  0.00  0.00    +0.000 OA
BRANCH  18  20
ATOM     19  C   UNL     1      -3.032  10.122  16.236  0.00  0.00    +0.000 C 
ATOM     20  C   UNL     1      -2.732  10.673  17.617  0.00  0.00    +0.000 C 
ENDBRANCH  18  20
ENDBRANCH  12  18
ENDBRANCH   1  17
BRANCH   8  21
ATOM     21  N   UNL     1       4.018   5.806  17.975  0.00  0.00    +0.000 N 
ATOM     22  H   UNL     1       4.904   5.868  18.492  0.00  0.00    +0.000 HD
BRANCH  21  23
ATOM     23  C   UNL     1       3.740   4.551  17.314  0.00  0.00    +0.000 C 
BRANCH  23  24
ATOM     24  C   UNL     1       2.309   4.108  17.589  0.00  0.00    +0.000 C 
BRANCH  24  25
ATOM     25  C   UNL     1       2.289   2.699  18.172  0.00  0.00    +0.000 C 
BRANCH  25  26
ATOM     26  N   UNL     1       2.198   2.710  19.617  0.00  0.00    +0.000 N 
ATOM     27  C   UNL     1       1.072   2.937  20.354  0.00  0.00    +0.000 A 
ATOM     28  C   UNL     1       1.485   2.857  21.664  0.00  0.00    +0.000 A 
ATOM     29  N   UNL     1       2.830   2.595  21.734  0.00  0.00    +0.000 NA
ATOM     30  C   UNL     1       3.232   2.516  20.487  0.00  0.00    +0.000 A 
ENDBRANCH  25  26
ENDBRANCH  24  25
ENDBRANCH  23  24
ENDBRANCH  21  23
ENDBRANCH   8  21
TORSDOF 8
ENDMDL
MODEL 2
REMARK VINA RESULT:      -7.0      4.539      8.201
REMARK  Name = 
REMARK  9 active torsions:
REMARK  status: ('A' for Active; 'I' for Inactive)
REMARK    1  A    between atoms: C_1  and  C_2
REMARK    2  A    between atoms: C_2  and  O_3
REMARK    3  A    between atoms: O_3  and  C_4
REMARK    4  A    between atoms: C_9  and  N_10
REMARK    5  A    between atoms: C_17  and  N_18
REMARK    6  A    between atoms: N_18  and  C_19
REMARK    7  A    between atoms: C_19  and  C_20
REMARK    8  A    between atoms: C_20  and  C_21
REMARK    9  A    between atoms: C_21  and  N_22
REMARK                            x       y       z     vdW  Elec       q    Type
REMARK                         _______ _______ _______ _____ _____    ______ ____
ROOT
ATOM      1  N   UNL     1       4.331   4.489  18.762  0.00  0.00    +0.000 N 
ATOM      2  C   UNL     1       5.340   3.801  19.430  0.00  0.00    +0.000 C 
ATOM      3  O   UNL     1       5.202   2.744  20.043  0.00  0.00    +0.000 OA
ATOM      4  N   UNL     1       6.584   4.362  19.400  0.00  0.00    +0.000 N 
ATOM      5  C   UNL     1       6.959   5.522  18.796  0.00  0.00    +0.000 C 
ATOM      6  O   UNL     1       8.083   5.985  18.964  0.00  0.00    +0.000 OA
ATOM      7  C   UNL     1       5.915   6.153  17.968  0.00  0.00    +0.000 C 
ATOM      8  C   UNL     1       6.187   7.268  17.265  0.00  0.00    +0.000 C 
ATOM      9  C   UNL     1       4.542   5.584  17.921  0.00  0.00    +0.000 C 
ATOM     10  O   UNL     1       3.680   6.106  17.218  0.00  0.00    +0.000 OA
ATOM     11  H   UNL     1       7.284   3.905  19.968  0.00  0.00    +0.000 HD
ENDROOT
BRANCH   1  17
ATOM     12  C   UNL     1       2.128   4.493  19.919  0.00  0.00    +0.000 A 
ATOM     13  C   UNL     1       0.866   3.896  20.068  0.00  0.00    +0.000 A 
ATOM     14  C   UNL     1       0.450   2.865  19.228  0.00  0.00    +0.000 A 
ATOM     15  C   UNL     1       1.293   2.406  18.223  0.00  0.00    +0.000 A 
ATOM     16  C   UNL     1       2.556   2.979  18.065  0.00  0.00    +0.000 A 
ATOM     17  C   UNL     1       2.994   4.011  18.919  0.00  0.00    +0.000 A 
BRANCH  12  18
ATOM     18  O   UNL     1       2.347   5.506  20.818  0.00  0.00    +0.000 OA
BRANCH  18  20
ATOM     19  C   UNL     1       2.065   7.673  19.834  0.00  0.00    +0.000 C 
ATOM     20  C   UNL     1       1.490   6.644  20.789  0.00  0.00    +0.000 C 
ENDBRANCH  18  20
ENDBRANCH  12  18
ENDBRANCH   1  17
BRANCH   8  21
ATOM     21  N   UNL     1       7.384   7.942  17.179  0.00  0.00    +0.000 N 
ATOM     22  H   UNL     1       8.200   7.355  16.965  0.00  0.00    +0.000 HD
BRANCH  21  23
ATOM     23  C   UNL     1       7.650   9.316  17.544  0.00  0.00    +0.000 C 
BRANCH  23  24
ATOM     24  C   UNL     1       8.743   9.385  18.602  0.00  0.00    +0.000 C 
BRANCH  24  25
ATOM     25  C   UNL     1       9.557  10.665  18.446  0.00  0.00    +0.000 C 
BRANCH  25  26
ATOM     26  N   UNL     1       9.359  11.575  19.553  0.00  0.00    +0.000 N 
ATOM     27  C   UNL     1       9.090  12.910  19.464  0.00  0.00    +0.000 A 
ATOM     28  C   UNL     1       8.998  13.341  20.767  0.00  0.00    +0.000 A 
ATOM     29  N   UNL     1       9.212  12.302  21.638  0.00  0.00    +0.000 NA
ATOM     30  C   UNL     1       9.429  11.253  20.878  0.00  0.00    +0.000 A 
ENDBRANCH  25  26
ENDBRANCH  24  25
ENDBRANCH  23  24
ENDBRANCH  21  23
ENDBRANCH   8  21
TORSDOF 8
ENDMDL
MODEL 3
REMARK VINA RESULT:      -6.9      2.174      7.823
REMARK  Name = 
REMARK  9 active torsions:
REMARK  status: ('A' for Active; 'I' for Inactive)
REMARK    1  A    between atoms: C_1  and  C_2
REMARK    2  A    between atoms: C_2  and  O_3
REMARK    3  A    between atoms: O_3  and  C_4
REMARK    4  A    between atoms: C_9  and  N_10
REMARK    5  A    between atoms: C_17  and  N_18
REMARK    6  A    between atoms: N_18  and  C_19
REMARK    7  A    between atoms: C_19  and  C_20
REMARK    8  A    between atoms: C_20  and  C_21
REMARK    9  A    between atoms: C_21  and  N_22
REMARK                            x       y       z     vdW  Elec       q    Type
REMARK                         _______ _______ _______ _____ _____    ______ ____
ROOT
ATOM      1  N   UNL     1       2.467   6.462  19.256  0.00  0.00    +0.000 N 
ATOM      2  C   UNL     1       2.029   6.272  20.563  0.00  0.00    +0.000 C 
ATOM      3  O   UNL     1       2.149   5.237  21.215  0.00  0.00    +0.000 OA
ATOM      4  N   UNL     1       1.409   7.332  21.160  0.00  0.00    +0.000 N 
ATOM      5  C   UNL     1       1.163   8.559  20.625  0.00  0.00    +0.000 C 
ATOM      6  O   UNL     1       0.471   9.378  21.223  0.00  0.00    +0.000 OA
ATOM      7  C   UNL     1       1.768   8.790  19.301  0.00  0.00    +0.000 C 
ATOM      8  C   UNL     1       1.653   9.989  18.701  0.00  0.00    +0.000 C 
ATOM      9  C   UNL     1       2.489   7.695  18.600  0.00  0.00    +0.000 C 
ATOM     10  O   UNL     1       3.005   7.897  17.503  0.00  0.00    +0.000 OA
ATOM     11  H   UNL     1       1.011   7.150  22.070  0.00  0.00    +0.000 HD
ENDROOT
BRANCH   1  17
ATOM     12  C   UNL     1       4.338   5.003  18.507  0.00  0.00    +0.000 A 
ATOM     13  C   UNL     1       4.753   3.921  17.714  0.00  0.00    +0.000 A 
ATOM     14  C   UNL     1       3.835   3.145  17.010  0.00  0.00    +0.000 A 
ATOM     15  C   UNL     1       2.478   3.441  17.081  0.00  0.00    +0.000 A 
ATOM     16  C   UNL     1       2.046   4.518  17.855  0.00  0.00    +0.000 A 
ATOM     17  C   UNL     1       2.967   5.320  18.558  0.00  0.00    +0.000 A 
BRANCH  12  18
ATOM     18  O   UNL     1       5.380   5.627  19.143  0.00  0.00    +0.000 OA
BRANCH  18  20
ATOM     19  C   UNL     1       7.369   6.495  18.126  0.00  0.00    +0.000 C 
ATOM     20  C   UNL     1       6.713   5.288  18.770  0.00  0.00    +0.000 C 
ENDBRANCH  18  20
ENDBRANCH  12  18
ENDBRANCH   1  17
BRANCH   8  21
ATOM     21  N   UNL     1       1.030  11.118  19.182  0.00  0.00    +0.000 N 
ATOM     22  H   UNL     1       1.324  11.411  20.122  0.00  0.00    +0.000 HD
BRANCH  21  23
ATOM     23  C   UNL     1      -0.108  11.806  18.613  0.00  0.00    +0.000 C 
BRANCH  23  24
ATOM     24  C   UNL     1      -1.407  11.244  19.175  0.00  0.00    +0.000 C 
BRANCH  24  25
ATOM     25  C   UNL     1      -1.868  10.044  18.355  0.00  0.00    +0.000 C 
BRANCH  25  26
ATOM     26  N   UNL     1      -2.765  10.428  17.286  0.00  0.00    +0.000 N 
ATOM     27  C   UNL     1      -3.827  11.280  17.389  0.00  0.00    +0.000 A 
ATOM     28  C   UNL     1      -4.373  11.318  16.126  0.00  0.00    +0.000 A 
ATOM     29  N   UNL     1      -3.672  10.507  15.269  0.00  0.00    +0.000 NA
ATOM     30  C   UNL     1      -2.713   9.982  15.996  0.00  0.00    +0.000 A 
ENDBRANCH  25  26
ENDBRANCH  24  25
ENDBRANCH  23  24
ENDBRANCH  21  23
ENDBRANCH   8  21
TORSDOF 8
ENDMDL
MODEL 4
REMARK VINA RESULT:      -6.8      2.682      8.148
REMARK  Name = 
REMARK  9 active torsions:
REMARK  status: ('A' for Active; 'I' for Inactive)
REMARK    1  A    between atoms: C_1  and  C_2
REMARK    2  A    between atoms: C_2  and  O_3
REMARK    3  A    between atoms: O_3  and  C_4
REMARK    4  A    between atoms: C_9  and  N_10
REMARK    5  A    between atoms: C_17  and  N_18
REMARK    6  A    between atoms: N_18  and  C_19
REMARK    7  A    between atoms: C_19  and  C_20
REMARK    8  A    between atoms: C_20  and  C_21
REMARK    9  A    between atoms: C_21  and  N_22
REMARK                            x       y       z     vdW  Elec       q    Type
REMARK                         _______ _______ _______ _____ _____    ______ ____
ROOT
ATOM      1  N   UNL     1       4.475   4.839  18.299  0.00  0.00    +0.000 N 
ATOM      2  C   UNL     1       4.299   3.768  19.171  0.00  0.00    +0.000 C 
ATOM      3  O   UNL     1       4.900   2.697  19.121  0.00  0.00    +0.000 OA
ATOM      4  N   UNL     1       3.372   3.932  20.159  0.00  0.00    +0.000 N 
ATOM      5  C   UNL     1       2.590   5.021  20.394  0.00  0.00    +0.000 C 
ATOM      6  O   UNL     1       1.696   4.985  21.233  0.00  0.00    +0.000 OA
ATOM      7  C   UNL     1       2.900   6.196  19.558  0.00  0.00    +0.000 C 
ATOM      8  C   UNL     1       2.242   7.355  19.745  0.00  0.00    +0.000 C 
ATOM      9  C   UNL     1       3.922   6.108  18.482  0.00  0.00    +0.000 C 
ATOM     10  O   UNL     1       4.187   7.094  17.799  0.00  0.00    +0.000 OA
ATOM     11  H   UNL     1       3.184   3.115  20.723  0.00  0.00    +0.000 HD
ENDROOT
BRANCH   1  17
ATOM     12  C   UNL     1       6.722   4.639  17.249  0.00  0.00    +0.000 A 
ATOM     13  C   UNL     1       7.472   4.527  16.067  0.00  0.00    +0.000 A 
ATOM     14  C   UNL     1       6.853   4.375  14.828  0.00  0.00    +0.000 A 
ATOM     15  C   UNL     1       5.466   4.339  14.746  0.00  0.00    +0.000 A 
ATOM     16  C   UNL     1       4.702   4.459  15.907  0.00  0.00    +0.000 A 
ATOM     17  C   UNL     1       5.316   4.629  17.163  0.00  0.00    +0.000 A 
BRANCH  12  18
ATOM     18  O   UNL     1       7.506   4.752  18.368  0.00  0.00    +0.000 OA
BRANCH  18  20
ATOM     19  C   UNL     1       7.682   7.091  17.875  0.00  0.00    +0.000 C 
ATOM     20  C   UNL     1       7.666   6.036  18.965  0.00  0.00    +0.000 C 
ENDBRANCH  18  20
ENDBRANCH  12  18
ENDBRANCH   1  17
BRANCH   8  21
ATOM     21  N   UNL     1       1.271   7.634  20.679  0.00  0.00    +0.000 N 
ATOM     22  H   UNL     1       0.976   6.835  21.254  0.00  0.00    +0.000 HD
BRANCH  21  23
ATOM     23  C   UNL     1       0.492   8.846  20.806  0.00  0.00    +0.000 C 
BRANCH  23  24
ATOM     24  C   UNL     1       1.023   9.922  19.867  0.00  0.00    +0.000 C 
BRANCH  24  25
ATOM     25  C   UNL     1       0.198   9.968  18.587  0.00  0.00    +0.000 C 
BRANCH  25  26
ATOM     26  N   UNL     1      -1.006  10.756  18.742  0.00  0.00    +0.000 N 
ATOM     27  C   UNL     1      -2.202  10.537  18.122  0.00  0.00    +0.000 A 
ATOM     28  C   UNL     1      -3.024  11.543  18.573  0.00  0.00    +0.000 A 
ATOM     29  N   UNL     1      -2.353  12.366  19.443  0.00  0.00    +0.000 NA
ATOM     30  C   UNL     1      -1.140  11.869  19.522  0.00  0.00    +0.000 A 
ENDBRANCH  25  26
ENDBRANCH  24  25
ENDBRANCH  23  24
ENDBRANCH  21  23
ENDBRANCH   8  21
TORSDOF 8
ENDMDL
MODEL 5
REMARK VINA RESULT:      -6.8      2.725      8.279
REMARK  Name = 
REMARK  9 active torsions:
REMARK  status: ('A' for Active; 'I' for Inactive)
REMARK    1  A    between atoms: C_1  and  C_2
REMARK    2  A    between atoms: C_2  and  O_3
REMARK    3  A    between atoms: O_3  and  C_4
REMARK    4  A    between atoms: C_9  and  N_10
REMARK    5  A    between atoms: C_17  and  N_18
REMARK    6  A    between atoms: N_18  and  C_19
REMARK    7  A    between atoms: C_19  and  C_20
REMARK    8  A    between atoms: C_20  and  C_21
REMARK    9  A    between atoms: C_21  and  N_22
REMARK                            x       y       z     vdW  Elec       q    Type
REMARK                         _______ _______ _______ _____ _____    ______ ____
ROOT
ATOM      1  N   UNL     1       4.452   4.838  18.280  0.00  0.00    +0.000 N 
ATOM      2  C   UNL     1       4.263   3.770  19.152  0.00  0.00    +0.000 C 
ATOM      3  O   UNL     1       4.851   2.692  19.104  0.00  0.00    +0.000 OA
ATOM      4  N   UNL     1       3.335   3.945  20.139  0.00  0.00    +0.000 N 
ATOM      5  C   UNL     1       2.566   5.043  20.371  0.00  0.00    +0.000 C 
ATOM      6  O   UNL     1       1.669   5.017  21.209  0.00  0.00    +0.000 OA
ATOM      7  C   UNL     1       2.891   6.213  19.536  0.00  0.00    +0.000 C 
ATOM      8  C   UNL     1       2.245   7.380  19.720  0.00  0.00    +0.000 C 
ATOM      9  C   UNL     1       3.913   6.113  18.461  0.00  0.00    +0.000 C 
ATOM     10  O   UNL     1       4.190   7.096  17.778  0.00  0.00    +0.000 OA
ATOM     11  H   UNL     1       3.138   3.130  20.703  0.00  0.00    +0.000 HD
ENDROOT
BRANCH   1  17
ATOM     12  C   UNL     1       6.698   4.597  17.236  0.00  0.00    +0.000 A 
ATOM     13  C   UNL     1       7.450   4.477  16.057  0.00  0.00    +0.000 A 
ATOM     14  C   UNL     1       6.833   4.348  14.814  0.00  0.00    +0.000 A 
ATOM     15  C   UNL     1       5.445   4.342  14.727  0.00  0.00    +0.000 A 
ATOM     16  C   UNL     1       4.680   4.470  15.886  0.00  0.00    +0.000 A 
ATOM     17  C   UNL     1       5.293   4.619  17.146  0.00  0.00    +0.000 A 
BRANCH  12  18
ATOM     18  O   UNL     1       7.480   4.686  18.359  0.00  0.00    +0.000 OA
BRANCH  18  20
ATOM     19  C   UNL     1       7.845   7.046  18.167  0.00  0.00    +0.000 C 
ATOM     20  C   UNL     1       7.483   5.904  19.098  0.00  0.00    +0.000 C 
ENDBRANCH  18  20
ENDBRANCH  12  18
ENDBRANCH   1  17
BRANCH   8  21
ATOM     21  N   UNL     1       1.275   7.670  20.653  0.00  0.00    +0.000 N 
ATOM     22  H   UNL     1       0.395   7.152  20.542  0.00  0.00    +0.000 HD
BRANCH  21  23
ATOM     23  C   UNL     1       1.280   8.741  21.625  0.00  0.00    +0.000 C 
BRANCH  23  24
ATOM     24  C   UNL     1      -0.020   9.532  21.555  0.00  0.00    +0.000 C 
BRANCH  24  25
ATOM     25  C   UNL     1      -0.393   9.817  20.104  0.00  0.00    +0.000 C 
BRANCH  25  26
ATOM     26  N   UNL     1      -0.638  11.225  19.872  0.00  0.00    +0.000 N 
ATOM     27  C   UNL     1      -0.027  12.007  18.934  0.00  0.00    +0.000 A 
ATOM     28  C   UNL     1      -0.576  13.257  19.105  0.00  0.00    +0.000 A 
ATOM     29  N   UNL     1      -1.494  13.249  20.125  0.00  0.00    +0.000 NA
ATOM     30  C   UNL     1      -1.507  12.013  20.569  0.00  0.00    +0.000 A 
ENDBRANCH  25  26
ENDBRANCH  24  25
ENDBRANCH  23  24
ENDBRANCH  21  23
ENDBRANCH   8  21
TORSDOF 8
ENDMDL
MODEL 6
REMARK VINA RESULT:      -6.8      2.729      8.216
REMARK  Name = 
REMARK  9 active torsions:
REMARK  status: ('A' for Active; 'I' for Inactive)
REMARK    1  A    between atoms: C_1  and  C_2
REMARK    2  A    between atoms: C_2  and  O_3
REMARK    3  A    between atoms: O_3  and  C_4
REMARK    4  A    between atoms: C_9  and  N_10
REMARK    5  A    between atoms: C_17  and  N_18
REMARK    6  A    between atoms: N_18  and  C_19
REMARK    7  A    between atoms: C_19  and  C_20
REMARK    8  A    between atoms: C_20  and  C_21
REMARK    9  A    between atoms: C_21  and  N_22
REMARK                            x       y       z     vdW  Elec       q    Type
REMARK                         _______ _______ _______ _____ _____    ______ ____
ROOT
ATOM      1  N   UNL     1       4.164   4.663  17.964  0.00  0.00    +0.000 N 
ATOM      2  C   UNL     1       3.679   3.502  18.558  0.00  0.00    +0.000 C 
ATOM      3  O   UNL     1       4.062   2.359  18.319  0.00  0.00    +0.000 OA
ATOM      4  N   UNL     1       2.685   3.659  19.482  0.00  0.00    +0.000 N 
ATOM      5  C   UNL     1       2.107   4.820  19.892  0.00  0.00    +0.000 C 
ATOM      6  O   UNL     1       1.125   4.809  20.629  0.00  0.00    +0.000 OA
ATOM      7  C   UNL     1       2.738   6.044  19.367  0.00  0.00    +0.000 C 
ATOM      8  C   UNL     1       2.299   7.256  19.754  0.00  0.00    +0.000 C 
ATOM      9  C   UNL     1       3.848   5.958  18.382  0.00  0.00    +0.000 C 
ATOM     10  O   UNL     1       4.381   6.981  17.958  0.00  0.00    +0.000 OA
ATOM     11  H   UNL     1       2.276   2.805  19.834  0.00  0.00    +0.000 HD
ENDROOT
BRANCH   1  17
ATOM     12  C   UNL     1       6.478   4.506  17.064  0.00  0.00    +0.000 A 
ATOM     13  C   UNL     1       7.310   4.454  15.933  0.00  0.00    +0.000 A 
ATOM     14  C   UNL     1       6.779   4.376  14.647  0.00  0.00    +0.000 A 
ATOM     15  C   UNL     1       5.401   4.355  14.467  0.00  0.00    +0.000 A 
ATOM     16  C   UNL     1       4.557   4.415  15.576  0.00  0.00    +0.000 A 
ATOM     17  C   UNL     1       5.082   4.511  16.880  0.00  0.00    +0.000 A 
BRANCH  12  18
ATOM     18  O   UNL     1       7.182   4.551  18.240  0.00  0.00    +0.000 OA
BRANCH  18  20
ATOM     19  C   UNL     1       8.280   5.637  20.072  0.00  0.00    +0.000 C 
ATOM     20  C   UNL     1       7.705   5.802  18.678  0.00  0.00    +0.000 C 
ENDBRANCH  18  20
ENDBRANCH  12  18
ENDBRANCH   1  17
BRANCH   8  21
ATOM     21  N   UNL     1       1.292   7.543  20.648  0.00  0.00    +0.000 N 
ATOM     22  H   UNL     1       0.472   6.926  20.594  0.00  0.00    +0.000 HD
BRANCH  21  23
ATOM     23  C   UNL     1       1.173   8.708  21.497  0.00  0.00    +0.000 C 
BRANCH  23  24
ATOM     24  C   UNL     1       0.002   9.575  21.053  0.00  0.00    +0.000 C 
BRANCH  24  25
ATOM     25  C   UNL     1       0.321  10.267  19.732  0.00  0.00    +0.000 C 
BRANCH  25  26
ATOM     26  N   UNL     1      -0.875  10.682  19.032  0.00  0.00    +0.000 N 
ATOM     27  C   UNL     1      -1.786  11.603  19.464  0.00  0.00    +0.000 A 
ATOM     28  C   UNL     1      -2.741  11.647  18.474  0.00  0.00    +0.000 A 
ATOM     29  N   UNL     1      -2.432  10.773  17.462  0.00  0.00    +0.000 NA
ATOM     30  C   UNL     1      -1.306  10.204  17.828  0.00  0.00    +0.000 A 
ENDBRANCH  25  26
ENDBRANCH  24  25
ENDBRANCH  23  24
ENDBRANCH  21  23
ENDBRANCH   8  21
TORSDOF 8
ENDMDL
MODEL 7
REMARK VINA RESULT:      -6.8      1.808      3.245
REMARK  Name = 
REMARK  9 active torsions:
REMARK  status: ('A' for Active; 'I' for Inactive)
REMARK    1  A    between atoms: C_1  and  C_2
REMARK    2  A    between atoms: C_2  and  O_3
REMARK    3  A    between atoms: O_3  and  C_4
REMARK    4  A    between atoms: C_9  and  N_10
REMARK    5  A    between atoms: C_17  and  N_18
REMARK    6  A    between atoms: N_18  and  C_19
REMARK    7  A    between atoms: C_19  and  C_20
REMARK    8  A    between atoms: C_20  and  C_21
REMARK    9  A    between atoms: C_21  and  N_22
REMARK                            x       y       z     vdW  Elec       q    Type
REMARK                         _______ _______ _______ _____ _____    ______ ____
ROOT
ATOM      1  N   UNL     1       0.961   9.825  19.533  0.00  0.00    +0.000 N 
ATOM      2  C   UNL     1       0.552   9.286  20.749  0.00  0.00    +0.000 C 
ATOM      3  O   UNL     1      -0.165   9.845  21.577  0.00  0.00    +0.000 OA
ATOM      4  N   UNL     1       0.996   8.028  21.038  0.00  0.00    +0.000 N 
ATOM      5  C   UNL     1       1.800   7.235  20.279  0.00  0.00    +0.000 C 
ATOM      6  O   UNL     1       2.239   6.177  20.720  0.00  0.00    +0.000 OA
ATOM      7  C   UNL     1       2.094   7.761  18.934  0.00  0.00    +0.000 C 
ATOM      8  C   UNL     1       2.821   7.035  18.064  0.00  0.00    +0.000 C 
ATOM      9  C   UNL     1       1.617   9.109  18.529  0.00  0.00    +0.000 C 
ATOM     10  O   UNL     1       1.852   9.537  17.401  0.00  0.00    +0.000 OA
ATOM     11  H   UNL     1       0.774   7.687  21.963  0.00  0.00    +0.000 HD
ENDROOT
BRANCH   1  17
ATOM     12  C   UNL     1      -0.573  11.602  18.706  0.00  0.00    +0.000 A 
ATOM     13  C   UNL     1      -0.759  12.960  18.402  0.00  0.00    +0.000 A 
ATOM     14  C   UNL     1       0.221  13.908  18.690  0.00  0.00    +0.000 A 
ATOM     15  C   UNL     1       1.414  13.512  19.285  0.00  0.00    +0.000 A 
ATOM     16  C   UNL     1       1.623  12.166  19.586  0.00  0.00    +0.000 A 
ATOM     17  C   UNL     1       0.646  11.197  19.284  0.00  0.00    +0.000 A 
BRANCH  12  18
ATOM     18  O   UNL     1      -1.656  10.830  18.375  0.00  0.00    +0.000 OA
BRANCH  18  20
ATOM     19  C   UNL     1      -3.744  10.994  17.211  0.00  0.00    +0.000 C 
ATOM     20  C   UNL     1      -2.233  10.977  17.080  0.00  0.00    +0.000 C 
ENDBRANCH  18  20
ENDBRANCH  12  18
ENDBRANCH   1  17
BRANCH   8  21
ATOM     21  N   UNL     1       3.349   5.777  18.248  0.00  0.00    +0.000 N 
ATOM     22  H   UNL     1       4.298   5.756  18.644  0.00  0.00    +0.000 HD
BRANCH  21  23
ATOM     23  C   UNL     1       2.816   4.519  17.773  0.00  0.00    +0.000 C 
BRANCH  23  24
ATOM     24  C   UNL     1       3.946   3.556  17.431  0.00  0.00    +0.000 C 
BRANCH  24  25
ATOM     25  C   UNL     1       5.297   4.177  17.768  0.00  0.00    +0.000 C 
BRANCH  25  26
ATOM     26  N   UNL     1       6.048   4.523  16.581  0.00  0.00    +0.000 N 
ATOM     27  C   UNL     1       5.980   3.896  15.370  0.00  0.00    +0.000 A 
ATOM     28  C   UNL     1       6.877   4.569  14.572  0.00  0.00    +0.000 A 
ATOM     29  N   UNL     1       7.488   5.578  15.273  0.00  0.00    +0.000 NA
ATOM     30  C   UNL     1       6.972   5.524  16.479  0.00  0.00    +0.000 A 
ENDBRANCH  25  26
ENDBRANCH  24  25
ENDBRANCH  23  24
ENDBRANCH  21  23
ENDBRANCH   8  21
TORSDOF 8
ENDMDL
MODEL 8
REMARK VINA RESULT:      -6.8      4.554      8.391
REMARK  Name = 
REMARK  9 active torsions:
REMARK  status: ('A' for Active; 'I' for Inactive)
REMARK    1  A    between atoms: C_1  and  C_2
REMARK    2  A    between atoms: C_2  and  O_3
REMARK    3  A    between atoms: O_3  and  C_4
REMARK    4  A    between atoms: C_9  and  N_10
REMARK    5  A    between atoms: C_17  and  N_18
REMARK    6  A    between atoms: N_18  and  C_19
REMARK    7  A    between atoms: C_19  and  C_20
REMARK    8  A    between atoms: C_20  and  C_21
REMARK    9  A    between atoms: C_21  and  N_22
REMARK                            x       y       z     vdW  Elec       q    Type
REMARK                         _______ _______ _______ _____ _____    ______ ____
ROOT
ATOM      1  N   UNL     1       4.491   4.622  18.697  0.00  0.00    +0.000 N 
ATOM      2  C   UNL     1       5.478   3.962  19.423  0.00  0.00    +0.000 C 
ATOM      3  O   UNL     1       5.330   2.911  20.044  0.00  0.00    +0.000 OA
ATOM      4  N   UNL     1       6.713   4.544  19.444  0.00  0.00    +0.000 N 
ATOM      5  C   UNL     1       7.096   5.702  18.841  0.00  0.00    +0.000 C 
ATOM      6  O   UNL     1       8.203   6.188  19.055  0.00  0.00    +0.000 OA
ATOM      7  C   UNL     1       6.082   6.303  17.955  0.00  0.00    +0.000 C 
ATOM      8  C   UNL     1       6.368   7.413  17.249  0.00  0.00    +0.000 C 
ATOM      9  C   UNL     1       4.723   5.709  17.851  0.00  0.00    +0.000 C 
ATOM     10  O   UNL     1       3.887   6.205  17.100  0.00  0.00    +0.000 OA
ATOM     11  H   UNL     1       7.392   4.108  20.051  0.00  0.00    +0.000 HD
ENDROOT
BRANCH   1  17
ATOM     12  C   UNL     1       2.215   4.649  19.702  0.00  0.00    +0.000 A 
ATOM     13  C   UNL     1       0.958   4.032  19.807  0.00  0.00    +0.000 A 
ATOM     14  C   UNL     1       0.621   2.936  19.015  0.00  0.00    +0.000 A 
ATOM     15  C   UNL     1       1.541   2.432  18.102  0.00  0.00    +0.000 A 
ATOM     16  C   UNL     1       2.799   3.025  17.989  0.00  0.00    +0.000 A 
ATOM     17  C   UNL     1       3.157   4.122  18.798  0.00  0.00    +0.000 A 
BRANCH  12  18
ATOM     18  O   UNL     1       2.351   5.725  20.541  0.00  0.00    +0.000 OA
BRANCH  18  20
ATOM     19  C   UNL     1       1.357   7.844  21.054  0.00  0.00    +0.000 C 
ATOM     20  C   UNL     1       2.118   7.032  20.024  0.00  0.00    +0.000 C 
ENDBRANCH  18  20
ENDBRANCH  12  18
ENDBRANCH   1  17
BRANCH   8  21
ATOM     21  N   UNL     1       7.556   8.107  17.210  0.00  0.00    +0.000 N 
ATOM     22  H   UNL     1       8.396   7.527  17.088  0.00  0.00    +0.000 HD
BRANCH  21  23
ATOM     23  C   UNL     1       7.771   9.504  17.515  0.00  0.00    +0.000 C 
BRANCH  23  24
ATOM     24  C   UNL     1       8.848   9.658  18.580  0.00  0.00    +0.000 C 
BRANCH  24  25
ATOM     25  C   UNL     1       9.785  10.809  18.229  0.00  0.00    +0.000 C 
BRANCH  25  26
ATOM     26  N   UNL     1       9.251  12.090  18.640  0.00  0.00    +0.000 N 
ATOM     27  C   UNL     1       9.191  12.569  19.917  0.00  0.00    +0.000 A 
ATOM     28  C   UNL     1       8.599  13.806  19.804  0.00  0.00    +0.000 A 
ATOM     29  N   UNL     1       8.294  14.080  18.495  0.00  0.00    +0.000 NA
ATOM     30  C   UNL     1       8.695  13.028  17.818  0.00  0.00    +0.000 A 
ENDBRANCH  25  26
ENDBRANCH  24  25
ENDBRANCH  23  24
ENDBRANCH  21  23
ENDBRANCH   8  21
TORSDOF 8
ENDMDL
MODEL 9
REMARK VINA RESULT:      -6.8      2.786      8.107
REMARK  Name = 
REMARK  9 active torsions:
REMARK  status: ('A' for Active; 'I' for Inactive)
REMARK    1  A    between atoms: C_1  and  C_2
REMARK    2  A    between atoms: C_2  and  O_3
REMARK    3  A    between atoms: O_3  and  C_4
REMARK    4  A    between atoms: C_9  and  N_10
REMARK    5  A    between atoms: C_17  and  N_18
REMARK    6  A    between atoms: N_18  and  C_19
REMARK    7  A    between atoms: C_19  and  C_20
REMARK    8  A    between atoms: C_20  and  C_21
REMARK    9  A    between atoms: C_21  and  N_22
REMARK                            x       y       z     vdW  Elec       q    Type
REMARK                         _______ _______ _______ _____ _____    ______ ____
ROOT
ATOM      1  N   UNL     1       4.498   5.357  18.030  0.00  0.00    +0.000 N 
ATOM      2  C   UNL     1       4.403   4.420  19.055  0.00  0.00    +0.000 C 
ATOM      3  O   UNL     1       5.071   3.393  19.152  0.00  0.00    +0.000 OA
ATOM      4  N   UNL     1       3.480   4.673  20.029  0.00  0.00    +0.000 N 
ATOM      5  C   UNL     1       2.634   5.734  20.117  0.00  0.00    +0.000 C 
ATOM      6  O   UNL     1       1.755   5.769  20.972  0.00  0.00    +0.000 OA
ATOM      7  C   UNL     1       2.856   6.787  19.109  0.00  0.00    +0.000 C 
ATOM      8  C   UNL     1       2.127   7.919  19.136  0.00  0.00    +0.000 C 
ATOM      9  C   UNL     1       3.867   6.603  18.035  0.00  0.00    +0.000 C 
ATOM     10  O   UNL     1       4.059   7.490  17.207  0.00  0.00    +0.000 OA
ATOM     11  H   UNL     1       3.354   3.940  20.713  0.00  0.00    +0.000 HD
ENDROOT
BRANCH   1  17
ATOM     12  C   UNL     1       6.647   5.529  16.787  0.00  0.00    +0.000 A 
ATOM     13  C   UNL     1       7.364   5.243  15.614  0.00  0.00    +0.000 A 
ATOM     14  C   UNL     1       6.815   4.455  14.604  0.00  0.00    +0.000 A 
ATOM     15  C   UNL     1       5.532   3.941  14.746  0.00  0.00    +0.000 A 
ATOM     16  C   UNL     1       4.798   4.223  15.899  0.00  0.00    +0.000 A 
ATOM     17  C   UNL     1       5.336   5.032  16.919  0.00  0.00    +0.000 A 
BRANCH  12  18
ATOM     18  O   UNL     1       7.361   6.294  17.673  0.00  0.00    +0.000 OA
BRANCH  18  20
ATOM     19  C   UNL     1       8.433   8.287  18.459  0.00  0.00    +0.000 C 
ATOM     20  C   UNL     1       7.535   7.680  17.397  0.00  0.00    +0.000 C 
ENDBRANCH  18  20
ENDBRANCH  12  18
ENDBRANCH   1  17
BRANCH   8  21
ATOM     21  N   UNL     1       1.153   8.274  20.041  0.00  0.00    +0.000 N 
ATOM     22  H   UNL     1       0.781   7.502  20.608  0.00  0.00    +0.000 HD
BRANCH  21  23
ATOM     23  C   UNL     1       0.465   9.542  20.142  0.00  0.00    +0.000 C 
BRANCH  23  24
ATOM     24  C   UNL     1       0.549  10.302  18.825  0.00  0.00    +0.000 C 
BRANCH  24  25
ATOM     25  C   UNL     1      -0.506  11.402  18.774  0.00  0.00    +0.000 C 
BRANCH  25  26
ATOM     26  N   UNL     1      -1.711  10.970  18.099  0.00  0.00    +0.000 N 
ATOM     27  C   UNL     1      -1.805   9.970  17.174  0.00  0.00    +0.000 A 
ATOM     28  C   UNL     1      -3.133   9.942  16.817  0.00  0.00    +0.000 A 
ATOM     29  N   UNL     1      -3.839  10.904  17.497  0.00  0.00    +0.000 NA
ATOM     30  C   UNL     1      -2.955  11.508  18.257  0.00  0.00    +0.000 A 
ENDBRANCH  25  26
ENDBRANCH  24  25
ENDBRANCH  23  24
ENDBRANCH  21  23
ENDBRANCH   8  21
TORSDOF 8
ENDMDL
