MODEL 1
REMARK VINA RESULT:      -8.0      0.000      0.000
REMARK  Name = 
REMARK  7 active torsions:
REMARK  status: ('A' for Active; 'I' for Inactive)
REMARK    1  A    between atoms: C_1  and  C_2
REMARK    2  A    between atoms: C_2  and  C_3
REMARK    3  A    between atoms: C_3  and  N_4
REMARK    4  A    between atoms: N_7  and  C_8
REMARK    5  A    between atoms: C_8  and  C_9
REMARK    6  A    between atoms: C_20  and  C_21
REMARK    7  A    between atoms: C_23  and  C_24
REMARK                            x       y       z     vdW  Elec       q    Type
REMARK                         _______ _______ _______ _____ _____    ______ ____
ROOT
ATOM      1  C   UNL     1      -1.153  14.118  21.470  0.00  0.00    +0.000 A 
ATOM      2  C   UNL     1      -1.063  15.431  21.022  0.00  0.00    +0.000 A 
ATOM      3  C   UNL     1      -0.636  15.645  19.724  0.00  0.00    +0.000 A 
ATOM      4  N   UNL     1      -0.269  14.659  18.871  0.00  0.00    +0.000 NA
ATOM      5  C   UNL     1      -0.318  13.387  19.323  0.00  0.00    +0.000 A 
ATOM      6  N   UNL     1       0.132  12.416  18.427  0.00  0.00    +0.000 N 
ATOM      7  C   UNL     1       0.545  11.175  18.741  0.00  0.00    +0.000 A 
ATOM      8  N   UNL     1       0.332  10.450  19.822  0.00  0.00    +0.000 NA
ATOM      9  C   UNL     1       1.049   9.302  19.660  0.00  0.00    +0.000 A 
ATOM     10  C   UNL     1       1.195   8.205  20.522  0.00  0.00    +0.000 A 
ATOM     11  C   UNL     1       2.022   7.144  20.122  0.00  0.00    +0.000 A 
ATOM     12  C   UNL     1       2.704   7.170  18.894  0.00  0.00    +0.000 A 
ATOM     13  C   UNL     1       2.543   8.267  18.024  0.00  0.00    +0.000 A 
ATOM     14  C   UNL     1       1.712   9.304  18.444  0.00  0.00    +0.000 A 
ATOM     15  N   UNL     1       1.350  10.493  17.865  0.00  0.00    +0.000 N 
ATOM     16  C   UNL     1      -0.775  13.092  20.601  0.00  0.00    +0.000 A 
ATOM     17  H   UNL     1       0.427  12.892  17.582  0.00  0.00    +0.000 HD
ATOM     18  H   UNL     1       1.662  10.839  16.971  0.00  0.00    +0.000 HD
ENDROOT
BRANCH  12  19
ATOM     19  C   UNL     1       3.608   6.101  18.490  0.00  0.00    +0.000 A 
ATOM     20  N   UNL     1       3.863   5.643  17.283  0.00  0.00    +0.000 NA
ATOM     21  C   UNL     1       4.829   4.707  17.528  0.00  0.00    +0.000 A 
ATOM     22  C   UNL     1       5.479   3.950  16.445  0.00  0.00    +0.000 C 
ATOM     23  N   UNL     1       5.164   4.557  18.817  0.00  0.00    +0.000 NA
ATOM     24  O   UNL     1       4.346   5.489  19.463  0.00  0.00    +0.000 OA
ENDBRANCH  12  19
BRANCH   1  25
ATOM     25  C   UNL     1      -1.679  13.767  22.839  0.00  0.00    +0.000 C 
BRANCH  25  29
ATOM     26  N   UNL     1      -5.136  12.435  23.475  0.00  0.00    +0.000 NA
ATOM     27  C   UNL     1      -4.665  12.929  22.161  0.00  0.00    +0.000 C 
ATOM     28  C   UNL     1      -3.988  14.320  22.180  0.00  0.00    +0.000 C 
ATOM     29  N   UNL     1      -2.914  14.493  23.188  0.00  0.00    +0.000 NA
ATOM     30  C   UNL     1      -3.421  14.022  24.494  0.00  0.00    +0.000 C 
ATOM     31  C   UNL     1      -4.048  12.602  24.465  0.00  0.00    +0.000 C 
BRANCH  26  32
ATOM     32  C   UNL     1      -6.364  13.090  23.955  0.00  0.00    +0.000 C 
BRANCH  32  34
ATOM     33  C   UNL     1      -7.915  11.452  22.745  0.00  0.00    +0.000 C 
ATOM     34  C   UNL     1      -7.611  12.903  23.080  0.00  0.00    +0.000 C 
ENDBRANCH  32  34
ENDBRANCH  26  32
ENDBRANCH  25  29
ENDBRANCH   1  25
TORSDOF 5
ENDMDL
MODEL 2
REMARK VINA RESULT:      -8.0      1.486      1.647
REMARK  Name = 
REMARK  7 active torsions:
REMARK  status: ('A' for Active; 'I' for Inactive)
REMARK    1  A    between atoms: C_1  and  C_2
REMARK    2  A    between atoms: C_2  and  C_3
REMARK    3  A    between atoms: C_3  and  N_4
REMARK    4  A    between atoms: N_7  and  C_8
REMARK    5  A    between atoms: C_8  and  C_9
REMARK    6  A    between atoms: C_20  and  C_21
REMARK    7  A    between atoms: C_23  and  C_24
REMARK                            x       y       z     vdW  Elec       q    Type
REMARK                         _______ _______ _______ _____ _____    ______ ____
ROOT
ATOM      1  C   UNL     1       0.150  13.901  20.914  0.00  0.00    +0.000 A 
ATOM      2  C   UNL     1       0.568  15.100  20.349  0.00  0.00    +0.000 A 
ATOM      3  C   UNL     1       1.141  15.059  19.090  0.00  0.00    +0.000 A 
ATOM      4  N   UNL     1       1.351  13.921  18.387  0.00  0.00    +0.000 NA
ATOM      5  C   UNL     1       0.982  12.753  18.957  0.00  0.00    +0.000 A 
ATOM      6  N   UNL     1       1.280  11.606  18.219  0.00  0.00    +0.000 N 
ATOM      7  C   UNL     1       1.378  10.355  18.700  0.00  0.00    +0.000 A 
ATOM      8  N   UNL     1       0.918   9.829  19.819  0.00  0.00    +0.000 NA
ATOM      9  C   UNL     1       1.374   8.544  19.854  0.00  0.00    +0.000 A 
ATOM     10  C   UNL     1       1.198   7.555  20.833  0.00  0.00    +0.000 A 
ATOM     11  C   UNL     1       1.800   6.303  20.636  0.00  0.00    +0.000 A 
ATOM     12  C   UNL     1       2.573   6.034  19.494  0.00  0.00    +0.000 A 
ATOM     13  C   UNL     1       2.735   7.025  18.505  0.00  0.00    +0.000 A 
ATOM     14  C   UNL     1       2.122   8.257  18.724  0.00  0.00    +0.000 A 
ATOM     15  N   UNL     1       2.083   9.416  17.991  0.00  0.00    +0.000 N 
ATOM     16  C   UNL     1       0.364  12.720  20.201  0.00  0.00    +0.000 A 
ATOM     17  H   UNL     1       1.744  11.903  17.368  0.00  0.00    +0.000 HD
ATOM     18  H   UNL     1       2.539   9.576  17.107  0.00  0.00    +0.000 HD
ENDROOT
BRANCH  12  19
ATOM     19  C   UNL     1       3.248   4.757  19.301  0.00  0.00    +0.000 A 
ATOM     20  N   UNL     1       2.741   3.596  18.947  0.00  0.00    +0.000 NA
ATOM     21  C   UNL     1       3.855   2.808  18.864  0.00  0.00    +0.000 A 
ATOM     22  C   UNL     1       3.788   1.400  18.436  0.00  0.00    +0.000 C 
ATOM     23  N   UNL     1       5.009   3.418  19.164  0.00  0.00    +0.000 NA
ATOM     24  O   UNL     1       4.605   4.724  19.459  0.00  0.00    +0.000 OA
ENDBRANCH  12  19
BRANCH   1  25
ATOM     25  C   UNL     1      -0.555  13.840  22.246  0.00  0.00    +0.000 C 
BRANCH  25  29
ATOM     26  N   UNL     1      -4.036  12.514  22.747  0.00  0.00    +0.000 NA
ATOM     27  C   UNL     1      -3.405  12.709  21.423  0.00  0.00    +0.000 C 
ATOM     28  C   UNL     1      -2.766  14.100  21.191  0.00  0.00    +0.000 C 
ATOM     29  N   UNL     1      -1.841  14.561  22.254  0.00  0.00    +0.000 NA
ATOM     30  C   UNL     1      -2.508  14.385  23.561  0.00  0.00    +0.000 C 
ATOM     31  C   UNL     1      -3.094  12.967  23.795  0.00  0.00    +0.000 C 
BRANCH  26  32
ATOM     32  C   UNL     1      -5.331  13.198  22.899  0.00  0.00    +0.000 C 
BRANCH  32  34
ATOM     33  C   UNL     1      -7.537  13.449  24.173  0.00  0.00    +0.000 C 
ATOM     34  C   UNL     1      -6.175  12.776  24.108  0.00  0.00    +0.000 C 
ENDBRANCH  32  34
ENDBRANCH  26  32
ENDBRANCH  25  29
ENDBRANCH   1  25
TORSDOF 5
ENDMDL
MODEL 3
REMARK VINA RESULT:      -7.7      4.298     11.074
REMARK  Name = 
REMARK  7 active torsions:
REMARK  status: ('A' for Active; 'I' for Inactive)
REMARK    1  A    between atoms: C_1  and  C_2
REMARK    2  A    between atoms: C_2  and  C_3
REMARK    3  A    between atoms: C_3  and  N_4
REMARK    4  A    between atoms: N_7  and  C_8
REMARK    5  A    between atoms: C_8  and  C_9
REMARK    6  A    between atoms: C_20  and  C_21
REMARK    7  A    between atoms: C_23  and  C_24
REMARK                            x       y       z     vdW  Elec       q    Type
REMARK                         _______ _______ _______ _____ _____    ______ ____
ROOT
ATOM      1  C   UNL     1       3.338   3.752  18.728  0.00  0.00    +0.000 A 
ATOM      2  C   UNL     1       3.603   2.718  19.620  0.00  0.00    +0.000 A 
ATOM      3  C   UNL     1       3.043   2.792  20.883  0.00  0.00    +0.000 A 
ATOM      4  N   UNL     1       2.281   3.823  21.318  0.00  0.00    +0.000 NA
ATOM      5  C   UNL     1       2.060   4.845  20.463  0.00  0.00    +0.000 A 
ATOM      6  N   UNL     1       1.323   5.911  20.984  0.00  0.00    +0.000 N 
ATOM      7  C   UNL     1       1.296   7.167  20.505  0.00  0.00    +0.000 A 
ATOM      8  N   UNL     1       1.631   7.638  19.319  0.00  0.00    +0.000 NA
ATOM      9  C   UNL     1       1.494   8.993  19.393  0.00  0.00    +0.000 A 
ATOM     10  C   UNL     1       1.744   9.976  18.423  0.00  0.00    +0.000 A 
ATOM     11  C   UNL     1       1.543  11.321  18.766  0.00  0.00    +0.000 A 
ATOM     12  C   UNL     1       1.111  11.693  20.050  0.00  0.00    +0.000 A 
ATOM     13  C   UNL     1       0.846  10.703  21.017  0.00  0.00    +0.000 A 
ATOM     14  C   UNL     1       1.049   9.374  20.649  0.00  0.00    +0.000 A 
ATOM     15  N   UNL     1       0.902   8.192  21.326  0.00  0.00    +0.000 N 
ATOM     16  C   UNL     1       2.555   4.822  19.166  0.00  0.00    +0.000 A 
ATOM     17  H   UNL     1       1.103   5.689  21.948  0.00  0.00    +0.000 HD
ATOM     18  H   UNL     1       0.606   8.088  22.284  0.00  0.00    +0.000 HD
ENDROOT
BRANCH  12  19
ATOM     19  C   UNL     1       0.949  13.089  20.437  0.00  0.00    +0.000 A 
ATOM     20  N   UNL     1       1.180  13.659  21.600  0.00  0.00    +0.000 NA
ATOM     21  C   UNL     1       0.918  14.975  21.333  0.00  0.00    +0.000 A 
ATOM     22  C   UNL     1       1.096  16.030  22.344  0.00  0.00    +0.000 C 
ATOM     23  N   UNL     1       0.524  15.235  20.079  0.00  0.00    +0.000 NA
ATOM     24  O   UNL     1       0.542  13.972  19.477  0.00  0.00    +0.000 OA
ENDBRANCH  12  19
BRANCH   1  25
ATOM     25  C   UNL     1       3.833   3.734  17.304  0.00  0.00    +0.000 C 
BRANCH  25  29
ATOM     26  N   UNL     1       5.927   6.798  16.702  0.00  0.00    +0.000 NA
ATOM     27  C   UNL     1       5.466   5.884  15.633  0.00  0.00    +0.000 C 
ATOM     28  C   UNL     1       5.738   4.381  15.881  0.00  0.00    +0.000 C 
ATOM     29  N   UNL     1       5.299   3.863  17.199  0.00  0.00    +0.000 NA
ATOM     30  C   UNL     1       5.799   4.776  18.249  0.00  0.00    +0.000 C 
ATOM     31  C   UNL     1       5.468   6.273  18.008  0.00  0.00    +0.000 C 
BRANCH  26  32
ATOM     32  C   UNL     1       7.385   7.006  16.723  0.00  0.00    +0.000 C 
BRANCH  32  34
ATOM     33  C   UNL     1       8.217   9.102  17.936  0.00  0.00    +0.000 C 
ATOM     34  C   UNL     1       7.958   7.605  18.014  0.00  0.00    +0.000 C 
ENDBRANCH  32  34
ENDBRANCH  26  32
ENDBRANCH  25  29
ENDBRANCH   1  25
TORSDOF 5
ENDMDL
MODEL 4
REMARK VINA RESULT:      -7.4      0.983      1.434
REMARK  Name = 
REMARK  7 active torsions:
REMARK  status: ('A' for Active; 'I' for Inactive)
REMARK    1  A    between atoms: C_1  and  C_2
REMARK    2  A    between atoms: C_2  and  C_3
REMARK    3  A    between atoms: C_3  and  N_4
REMARK    4  A    between atoms: N_7  and  C_8
REMARK    5  A    between atoms: C_8  and  C_9
REMARK    6  A    between atoms: C_20  and  C_21
REMARK    7  A    between atoms: C_23  and  C_24
REMARK                            x       y       z     vdW  Elec       q    Type
REMARK                         _______ _______ _______ _____ _____    ______ ____
ROOT
ATOM      1  C   UNL     1      -0.763  13.462  21.593  0.00  0.00    +0.000 A 
ATOM      2  C   UNL     1      -0.665  14.811  21.272  0.00  0.00    +0.000 A 
ATOM      3  C   UNL     1      -0.221  15.146  20.005  0.00  0.00    +0.000 A 
ATOM      4  N   UNL     1       0.156  14.244  19.068  0.00  0.00    +0.000 NA
ATOM      5  C   UNL     1       0.098  12.935  19.397  0.00  0.00    +0.000 A 
ATOM      6  N   UNL     1       0.559  12.052  18.419  0.00  0.00    +0.000 N 
ATOM      7  C   UNL     1       0.965  10.786  18.619  0.00  0.00    +0.000 A 
ATOM      8  N   UNL     1       0.738   9.963  19.625  0.00  0.00    +0.000 NA
ATOM      9  C   UNL     1       1.455   8.833  19.364  0.00  0.00    +0.000 A 
ATOM     10  C   UNL     1       1.588   7.659  20.120  0.00  0.00    +0.000 A 
ATOM     11  C   UNL     1       2.419   6.639  19.632  0.00  0.00    +0.000 A 
ATOM     12  C   UNL     1       3.117   6.779  18.421  0.00  0.00    +0.000 A 
ATOM     13  C   UNL     1       2.969   7.953  17.656  0.00  0.00    +0.000 A 
ATOM     14  C   UNL     1       2.134   8.948  18.161  0.00  0.00    +0.000 A 
ATOM     15  N   UNL     1       1.781  10.187  17.693  0.00  0.00    +0.000 N 
ATOM     16  C   UNL     1      -0.375  12.522  20.636  0.00  0.00    +0.000 A 
ATOM     17  H   UNL     1       0.865  12.605  17.627  0.00  0.00    +0.000 HD
ATOM     18  H   UNL     1       2.105  10.615  16.840  0.00  0.00    +0.000 HD
ENDROOT
BRANCH  12  19
ATOM     19  C   UNL     1       4.024   5.750  17.928  0.00  0.00    +0.000 A 
ATOM     20  N   UNL     1       4.652   5.681  16.774  0.00  0.00    +0.000 NA
ATOM     21  C   UNL     1       5.400   4.546  16.919  0.00  0.00    +0.000 A 
ATOM     22  C   UNL     1       6.330   4.082  15.877  0.00  0.00    +0.000 C 
ATOM     23  N   UNL     1       5.250   3.910  18.089  0.00  0.00    +0.000 NA
ATOM     24  O   UNL     1       4.327   4.714  18.766  0.00  0.00    +0.000 OA
ENDBRANCH  12  19
BRANCH   1  25
ATOM     25  C   UNL     1      -1.306  12.985  22.916  0.00  0.00    +0.000 C 
BRANCH  25  29
ATOM     26  N   UNL     1      -4.911  14.045  23.025  0.00  0.00    +0.000 NA
ATOM     27  C   UNL     1      -4.155  13.553  24.198  0.00  0.00    +0.000 C 
ATOM     28  C   UNL     1      -3.392  12.223  23.985  0.00  0.00    +0.000 C 
ATOM     29  N   UNL     1      -2.528  12.171  22.781  0.00  0.00    +0.000 NA
ATOM     30  C   UNL     1      -3.316  12.637  21.620  0.00  0.00    +0.000 C 
ATOM     31  C   UNL     1      -4.030  13.998  21.836  0.00  0.00    +0.000 C 
BRANCH  26  32
ATOM     32  C   UNL     1      -6.157  13.305  22.763  0.00  0.00    +0.000 C 
BRANCH  32  34
ATOM     33  C   UNL     1      -7.914  13.862  24.540  0.00  0.00    +0.000 C 
ATOM     34  C   UNL     1      -6.931  12.834  24.000  0.00  0.00    +0.000 C 
ENDBRANCH  32  34
ENDBRANCH  26  32
ENDBRANCH  25  29
ENDBRANCH   1  25
TORSDOF 5
ENDMDL
MODEL 5
REMARK VINA RESULT:      -7.4      1.613      2.059
REMARK  Name = 
REMARK  7 active torsions:
REMARK  status: ('A' for Active; 'I' for Inactive)
REMARK    1  A    between atoms: C_1  and  C_2
REMARK    2  A    between atoms: C_2  and  C_3
REMARK    3  A    between atoms: C_3  and  N_4
REMARK    4  A    between atoms: N_7  and  C_8
REMARK    5  A    between atoms: C_8  and  C_9
REMARK    6  A    between atoms: C_20  and  C_21
REMARK    7  A    between atoms: C_23  and  C_24
REMARK                            x       y       z     vdW  Elec       q    Type
REMARK                         _______ _______ _______ _____ _____    ______ ____
ROOT
ATOM      1  C   UNL     1       0.328  14.187  20.661  0.00  0.00    +0.000 A 
ATOM      2  C   UNL     1       0.775  15.356  20.054  0.00  0.00    +0.000 A 
ATOM      3  C   UNL     1       1.337  15.258  18.795  0.00  0.00    +0.000 A 
ATOM      4  N   UNL     1       1.511  14.093  18.127  0.00  0.00    +0.000 NA
ATOM      5  C   UNL     1       1.114  12.954  18.736  0.00  0.00    +0.000 A 
ATOM      6  N   UNL     1       1.375  11.777  18.033  0.00  0.00    +0.000 N 
ATOM      7  C   UNL     1       1.442  10.539  18.553  0.00  0.00    +0.000 A 
ATOM      8  N   UNL     1       0.975  10.063  19.692  0.00  0.00    +0.000 NA
ATOM      9  C   UNL     1       1.395   8.767  19.765  0.00  0.00    +0.000 A 
ATOM     10  C   UNL     1       1.199   7.815  20.776  0.00  0.00    +0.000 A 
ATOM     11  C   UNL     1       1.765   6.541  20.615  0.00  0.00    +0.000 A 
ATOM     12  C   UNL     1       2.522   6.214  19.478  0.00  0.00    +0.000 A 
ATOM     13  C   UNL     1       2.704   7.168  18.456  0.00  0.00    +0.000 A 
ATOM     14  C   UNL     1       2.127   8.423  18.640  0.00  0.00    +0.000 A 
ATOM     15  N   UNL     1       2.116   9.559  17.871  0.00  0.00    +0.000 N 
ATOM     16  C   UNL     1       0.504  12.978  19.984  0.00  0.00    +0.000 A 
ATOM     17  H   UNL     1       1.841  12.033  17.170  0.00  0.00    +0.000 HD
ATOM     18  H   UNL     1       2.570   9.678  16.979  0.00  0.00    +0.000 HD
ENDROOT
BRANCH  12  19
ATOM     19  C   UNL     1       3.160   4.913  19.322  0.00  0.00    +0.000 A 
ATOM     20  N   UNL     1       2.628   3.768  18.952  0.00  0.00    +0.000 NA
ATOM     21  C   UNL     1       3.717   2.941  18.922  0.00  0.00    +0.000 A 
ATOM     22  C   UNL     1       3.620   1.534  18.499  0.00  0.00    +0.000 C 
ATOM     23  N   UNL     1       4.877   3.513  19.270  0.00  0.00    +0.000 NA
ATOM     24  O   UNL     1       4.506   4.835  19.540  0.00  0.00    +0.000 OA
ENDBRANCH  12  19
BRANCH   1  25
ATOM     25  C   UNL     1      -0.369  14.188  21.998  0.00  0.00    +0.000 C 
BRANCH  25  29
ATOM     26  N   UNL     1      -3.776  14.788  23.469  0.00  0.00    +0.000 NA
ATOM     27  C   UNL     1      -2.666  14.124  24.189  0.00  0.00    +0.000 C 
ATOM     28  C   UNL     1      -1.972  12.973  23.422  0.00  0.00    +0.000 C 
ATOM     29  N   UNL     1      -1.543  13.297  22.040  0.00  0.00    +0.000 NA
ATOM     30  C   UNL     1      -2.678  13.928  21.335  0.00  0.00    +0.000 C 
ATOM     31  C   UNL     1      -3.326  15.115  22.097  0.00  0.00    +0.000 C 
BRANCH  26  32
ATOM     32  C   UNL     1      -5.016  13.995  23.420  0.00  0.00    +0.000 C 
BRANCH  32  34
ATOM     33  C   UNL     1      -7.475  14.281  24.072  0.00  0.00    +0.000 C 
ATOM     34  C   UNL     1      -6.314  14.791  23.232  0.00  0.00    +0.000 C 
ENDBRANCH  32  34
ENDBRANCH  26  32
ENDBRANCH  25  29
ENDBRANCH   1  25
TORSDOF 5
ENDMDL
MODEL 6
REMARK VINA RESULT:      -7.3      2.348      2.984
REMARK  Name = 
REMARK  7 active torsions:
REMARK  status: ('A' for Active; 'I' for Inactive)
REMARK    1  A    between atoms: C_1  and  C_2
REMARK    2  A    between atoms: C_2  and  C_3
REMARK    3  A    between atoms: C_3  and  N_4
REMARK    4  A    between atoms: N_7  and  C_8
REMARK    5  A    between atoms: C_8  and  C_9
REMARK    6  A    between atoms: C_20  and  C_21
REMARK    7  A    between atoms: C_23  and  C_24
REMARK                            x       y       z     vdW  Elec       q    Type
REMARK                         _______ _______ _______ _____ _____    ______ ____
ROOT
ATOM      1  C   UNL     1       1.261  14.284  20.425  0.00  0.00    +0.000 A 
ATOM      2  C   UNL     1       1.875  15.333  19.750  0.00  0.00    +0.000 A 
ATOM      3  C   UNL     1       2.394  15.080  18.494  0.00  0.00    +0.000 A 
ATOM      4  N   UNL     1       2.374  13.867  17.892  0.00  0.00    +0.000 NA
ATOM      5  C   UNL     1       1.813  12.840  18.568  0.00  0.00    +0.000 A 
ATOM      6  N   UNL     1       1.876  11.599  17.931  0.00  0.00    +0.000 N 
ATOM      7  C   UNL     1       1.757  10.396  18.520  0.00  0.00    +0.000 A 
ATOM      8  N   UNL     1       1.240  10.062  19.687  0.00  0.00    +0.000 NA
ATOM      9  C   UNL     1       1.454   8.723  19.830  0.00  0.00    +0.000 A 
ATOM     10  C   UNL     1       1.128   7.870  20.895  0.00  0.00    +0.000 A 
ATOM     11  C   UNL     1       1.485   6.517  20.803  0.00  0.00    +0.000 A 
ATOM     12  C   UNL     1       2.164   6.013  19.680  0.00  0.00    +0.000 A 
ATOM     13  C   UNL     1       2.476   6.869  18.605  0.00  0.00    +0.000 A 
ATOM     14  C   UNL     1       2.105   8.207  18.721  0.00  0.00    +0.000 A 
ATOM     15  N   UNL     1       2.259   9.287  17.889  0.00  0.00    +0.000 N 
ATOM     16  C   UNL     1       1.235  13.027  19.817  0.00  0.00    +0.000 A 
ATOM     17  H   UNL     1       2.363  11.731  17.051  0.00  0.00    +0.000 HD
ATOM     18  H   UNL     1       2.711   9.284  16.989  0.00  0.00    +0.000 HD
ENDROOT
BRANCH  12  19
ATOM     19  C   UNL     1       2.588   4.622  19.594  0.00  0.00    +0.000 A 
ATOM     20  N   UNL     1       2.754   3.870  18.527  0.00  0.00    +0.000 NA
ATOM     21  C   UNL     1       3.224   2.704  19.066  0.00  0.00    +0.000 A 
ATOM     22  C   UNL     1       3.613   1.556  18.230  0.00  0.00    +0.000 C 
ATOM     23  N   UNL     1       3.337   2.698  20.401  0.00  0.00    +0.000 NA
ATOM     24  O   UNL     1       2.910   3.981  20.757  0.00  0.00    +0.000 OA
ENDBRANCH  12  19
BRANCH   1  25
ATOM     25  C   UNL     1       0.594  14.468  21.765  0.00  0.00    +0.000 C 
BRANCH  25  29
ATOM     26  N   UNL     1      -2.469  15.648  23.597  0.00  0.00    +0.000 NA
ATOM     27  C   UNL     1      -1.499  14.674  24.144  0.00  0.00    +0.000 C 
ATOM     28  C   UNL     1      -1.148  13.491  23.209  0.00  0.00    +0.000 C 
ATOM     29  N   UNL     1      -0.751  13.866  21.830  0.00  0.00    +0.000 NA
ATOM     30  C   UNL     1      -1.752  14.814  21.297  0.00  0.00    +0.000 C 
ATOM     31  C   UNL     1      -2.049  16.021  22.227  0.00  0.00    +0.000 C 
BRANCH  26  32
ATOM     32  C   UNL     1      -3.860  15.167  23.588  0.00  0.00    +0.000 C 
BRANCH  32  34
ATOM     33  C   UNL     1      -4.270  17.205  25.083  0.00  0.00    +0.000 C 
ATOM     34  C   UNL     1      -4.889  16.073  24.278  0.00  0.00    +0.000 C 
ENDBRANCH  32  34
ENDBRANCH  26  32
ENDBRANCH  25  29
ENDBRANCH   1  25
TORSDOF 5
ENDMDL
MODEL 7
REMARK VINA RESULT:      -7.3      1.242      1.681
REMARK  Name = 
REMARK  7 active torsions:
REMARK  status: ('A' for Active; 'I' for Inactive)
REMARK    1  A    between atoms: C_1  and  C_2
REMARK    2  A    between atoms: C_2  and  C_3
REMARK    3  A    between atoms: C_3  and  N_4
REMARK    4  A    between atoms: N_7  and  C_8
REMARK    5  A    between atoms: C_8  and  C_9
REMARK    6  A    between atoms: C_20  and  C_21
REMARK    7  A    between atoms: C_23  and  C_24
REMARK                            x       y       z     vdW  Elec       q    Type
REMARK                         _______ _______ _______ _____ _____    ______ ____
ROOT
ATOM      1  C   UNL     1      -0.975  14.080  20.867  0.00  0.00    +0.000 A 
ATOM      2  C   UNL     1      -0.706  15.321  20.302  0.00  0.00    +0.000 A 
ATOM      3  C   UNL     1      -0.097  15.350  19.060  0.00  0.00    +0.000 A 
ATOM      4  N   UNL     1       0.284  14.247  18.374  0.00  0.00    +0.000 NA
ATOM      5  C   UNL     1       0.058  13.043  18.943  0.00  0.00    +0.000 A 
ATOM      6  N   UNL     1       0.528  11.943  18.224  0.00  0.00    +0.000 N 
ATOM      7  C   UNL     1       0.779  10.718  18.718  0.00  0.00    +0.000 A 
ATOM      8  N   UNL     1       0.362  10.142  19.829  0.00  0.00    +0.000 NA
ATOM      9  C   UNL     1       0.984   8.930  19.888  0.00  0.00    +0.000 A 
ATOM     10  C   UNL     1       0.914   7.931  20.871  0.00  0.00    +0.000 A 
ATOM     11  C   UNL     1       1.684   6.770  20.701  0.00  0.00    +0.000 A 
ATOM     12  C   UNL     1       2.518   6.601  19.584  0.00  0.00    +0.000 A 
ATOM     13  C   UNL     1       2.574   7.599  18.590  0.00  0.00    +0.000 A 
ATOM     14  C   UNL     1       1.796   8.739  18.781  0.00  0.00    +0.000 A 
ATOM     15  N   UNL     1       1.623   9.879  18.038  0.00  0.00    +0.000 N 
ATOM     16  C   UNL     1      -0.585  12.934  20.170  0.00  0.00    +0.000 A 
ATOM     17  H   UNL     1       0.972  12.295  17.383  0.00  0.00    +0.000 HD
ATOM     18  H   UNL     1       2.079  10.094  17.165  0.00  0.00    +0.000 HD
ENDROOT
BRANCH  12  19
ATOM     19  C   UNL     1       3.363   5.425  19.421  0.00  0.00    +0.000 A 
ATOM     20  N   UNL     1       3.267   4.248  20.002  0.00  0.00    +0.000 NA
ATOM     21  C   UNL     1       4.279   3.548  19.405  0.00  0.00    +0.000 A 
ATOM     22  C   UNL     1       4.532   2.129  19.703  0.00  0.00    +0.000 C 
ATOM     23  N   UNL     1       4.996   4.237  18.507  0.00  0.00    +0.000 NA
ATOM     24  O   UNL     1       4.385   5.496  18.518  0.00  0.00    +0.000 OA
ENDBRANCH  12  19
BRANCH   1  25
ATOM     25  C   UNL     1      -1.703  13.932  22.179  0.00  0.00    +0.000 C 
BRANCH  25  29
ATOM     26  N   UNL     1      -5.415  13.992  22.768  0.00  0.00    +0.000 NA
ATOM     27  C   UNL     1      -4.411  13.734  23.824  0.00  0.00    +0.000 C 
ATOM     28  C   UNL     1      -3.355  12.654  23.487  0.00  0.00    +0.000 C 
ATOM     29  N   UNL     1      -2.671  12.819  22.182  0.00  0.00    +0.000 NA
ATOM     30  C   UNL     1      -3.697  13.042  21.142  0.00  0.00    +0.000 C 
ATOM     31  C   UNL     1      -4.713  14.167  21.476  0.00  0.00    +0.000 C 
BRANCH  26  32
ATOM     32  C   UNL     1      -6.442  12.942  22.650  0.00  0.00    +0.000 C 
BRANCH  32  34
ATOM     33  C   UNL     1      -7.916  13.825  24.547  0.00  0.00    +0.000 C 
ATOM     34  C   UNL     1      -7.853  13.329  23.111  0.00  0.00    +0.000 C 
ENDBRANCH  32  34
ENDBRANCH  26  32
ENDBRANCH  25  29
ENDBRANCH   1  25
TORSDOF 5
ENDMDL
MODEL 8
REMARK VINA RESULT:      -7.3      3.370     11.717
REMARK  Name = 
REMARK  7 active torsions:
REMARK  status: ('A' for Active; 'I' for Inactive)
REMARK    1  A    between atoms: C_1  and  C_2
REMARK    2  A    between atoms: C_2  and  C_3
REMARK    3  A    between atoms: C_3  and  N_4
REMARK    4  A    between atoms: N_7  and  C_8
REMARK    5  A    between atoms: C_8  and  C_9
REMARK    6  A    between atoms: C_20  and  C_21
REMARK    7  A    between atoms: C_23  and  C_24
REMARK                            x       y       z     vdW  Elec       q    Type
REMARK                         _______ _______ _______ _____ _____    ______ ____
ROOT
ATOM      1  C   UNL     1       3.961   5.024  19.512  0.00  0.00    +0.000 A 
ATOM      2  C   UNL     1       3.964   3.758  20.088  0.00  0.00    +0.000 A 
ATOM      3  C   UNL     1       2.872   3.391  20.853  0.00  0.00    +0.000 A 
ATOM      4  N   UNL     1       1.814   4.197  21.105  0.00  0.00    +0.000 NA
ATOM      5  C   UNL     1       1.832   5.441  20.579  0.00  0.00    +0.000 A 
ATOM      6  N   UNL     1       0.750   6.252  20.923  0.00  0.00    +0.000 N 
ATOM      7  C   UNL     1       0.713   7.595  20.866  0.00  0.00    +0.000 A 
ATOM      8  N   UNL     1       1.472   8.445  20.200  0.00  0.00    +0.000 NA
ATOM      9  C   UNL     1       1.060   9.692  20.565  0.00  0.00    +0.000 A 
ATOM     10  C   UNL     1       1.546  10.949  20.174  0.00  0.00    +0.000 A 
ATOM     11  C   UNL     1       0.954  12.096  20.723  0.00  0.00    +0.000 A 
ATOM     12  C   UNL     1      -0.095  12.005  21.653  0.00  0.00    +0.000 A 
ATOM     13  C   UNL     1      -0.592  10.742  22.032  0.00  0.00    +0.000 A 
ATOM     14  C   UNL     1       0.011   9.620  21.468  0.00  0.00    +0.000 A 
ATOM     15  N   UNL     1      -0.210   8.275  21.618  0.00  0.00    +0.000 N 
ATOM     16  C   UNL     1       2.876   5.866  19.767  0.00  0.00    +0.000 A 
ATOM     17  H   UNL     1       0.147   5.715  21.536  0.00  0.00    +0.000 HD
ATOM     18  H   UNL     1      -0.897   7.849  22.220  0.00  0.00    +0.000 HD
ENDROOT
BRANCH  12  19
ATOM     19  C   UNL     1      -0.684  13.187  22.271  0.00  0.00    +0.000 A 
ATOM     20  N   UNL     1      -1.614  13.991  21.804  0.00  0.00    +0.000 NA
ATOM     21  C   UNL     1      -1.797  14.856  22.847  0.00  0.00    +0.000 A 
ATOM     22  C   UNL     1      -2.806  15.928  22.808  0.00  0.00    +0.000 C 
ATOM     23  N   UNL     1      -1.020  14.635  23.915  0.00  0.00    +0.000 NA
ATOM     24  O   UNL     1      -0.271  13.517  23.531  0.00  0.00    +0.000 OA
ENDBRANCH  12  19
BRANCH   1  25
ATOM     25  C   UNL     1       5.063   5.497  18.599  0.00  0.00    +0.000 C 
BRANCH  25  29
ATOM     26  N   UNL     1       6.500   5.684  15.130  0.00  0.00    +0.000 NA
ATOM     27  C   UNL     1       5.087   5.359  15.427  0.00  0.00    +0.000 C 
ATOM     28  C   UNL     1       4.870   4.249  16.483  0.00  0.00    +0.000 C 
ATOM     29  N   UNL     1       5.615   4.423  17.753  0.00  0.00    +0.000 NA
ATOM     30  C   UNL     1       7.028   4.715  17.429  0.00  0.00    +0.000 C 
ATOM     31  C   UNL     1       7.225   5.868  16.408  0.00  0.00    +0.000 C 
BRANCH  26  32
ATOM     32  C   UNL     1       7.184   4.679  14.299  0.00  0.00    +0.000 C 
BRANCH  32  34
ATOM     33  C   UNL     1       6.941   3.633  11.975  0.00  0.00    +0.000 C 
ATOM     34  C   UNL     1       6.294   3.894  13.327  0.00  0.00    +0.000 C 
ENDBRANCH  32  34
ENDBRANCH  26  32
ENDBRANCH  25  29
ENDBRANCH   1  25
TORSDOF 5
ENDMDL
MODEL 9
REMARK VINA RESULT:      -7.3      3.447     11.240
REMARK  Name = 
REMARK  7 active torsions:
REMARK  status: ('A' for Active; 'I' for Inactive)
REMARK    1  A    between atoms: C_1  and  C_2
REMARK    2  A    between atoms: C_2  and  C_3
REMARK    3  A    between atoms: C_3  and  N_4
REMARK    4  A    between atoms: N_7  and  C_8
REMARK    5  A    between atoms: C_8  and  C_9
REMARK    6  A    between atoms: C_20  and  C_21
REMARK    7  A    between atoms: C_23  and  C_24
REMARK                            x       y       z     vdW  Elec       q    Type
REMARK                         _______ _______ _______ _____ _____    ______ ____
ROOT
ATOM      1  C   UNL     1       3.905   3.631  18.282  0.00  0.00    +0.000 A 
ATOM      2  C   UNL     1       4.299   2.510  19.005  0.00  0.00    +0.000 A 
ATOM      3  C   UNL     1       3.755   2.326  20.263  0.00  0.00    +0.000 A 
ATOM      4  N   UNL     1       2.888   3.184  20.850  0.00  0.00    +0.000 NA
ATOM      5  C   UNL     1       2.538   4.293  20.162  0.00  0.00    +0.000 A 
ATOM      6  N   UNL     1       1.694   5.176  20.838  0.00  0.00    +0.000 N 
ATOM      7  C   UNL     1       1.517   6.479  20.557  0.00  0.00    +0.000 A 
ATOM      8  N   UNL     1       1.778   7.161  19.459  0.00  0.00    +0.000 NA
ATOM      9  C   UNL     1       1.490   8.464  19.740  0.00  0.00    +0.000 A 
ATOM     10  C   UNL     1       1.611   9.605  18.933  0.00  0.00    +0.000 A 
ATOM     11  C   UNL     1       1.264  10.850  19.478  0.00  0.00    +0.000 A 
ATOM     12  C   UNL     1       0.813  10.970  20.803  0.00  0.00    +0.000 A 
ATOM     13  C   UNL     1       0.676   9.819  21.605  0.00  0.00    +0.000 A 
ATOM     14  C   UNL     1       1.023   8.595  21.038  0.00  0.00    +0.000 A 
ATOM     15  N   UNL     1       1.022   7.314  21.526  0.00  0.00    +0.000 N 
ATOM     16  C   UNL     1       3.013   4.526  18.878  0.00  0.00    +0.000 A 
ATOM     17  H   UNL     1       1.515   4.785  21.756  0.00  0.00    +0.000 HD
ATOM     18  H   UNL     1       0.754   7.032  22.456  0.00  0.00    +0.000 HD
ENDROOT
BRANCH  12  19
ATOM     19  C   UNL     1       0.499  12.262  21.399  0.00  0.00    +0.000 A 
ATOM     20  N   UNL     1      -0.618  12.666  21.964  0.00  0.00    +0.000 NA
ATOM     21  C   UNL     1      -0.288  13.923  22.390  0.00  0.00    +0.000 A 
ATOM     22  C   UNL     1      -1.230  14.766  23.146  0.00  0.00    +0.000 C 
ATOM     23  N   UNL     1       0.960  14.314  22.101  0.00  0.00    +0.000 NA
ATOM     24  O   UNL     1       1.489  13.203  21.435  0.00  0.00    +0.000 OA
ENDBRANCH  12  19
BRANCH   1  25
ATOM     25  C   UNL     1       4.378   3.888  16.874  0.00  0.00    +0.000 C 
BRANCH  25  29
ATOM     26  N   UNL     1       7.472   5.947  17.439  0.00  0.00    +0.000 NA
ATOM     27  C   UNL     1       6.354   5.846  18.404  0.00  0.00    +0.000 C 
ATOM     28  C   UNL     1       4.944   6.094  17.815  0.00  0.00    +0.000 C 
ATOM     29  N   UNL     1       4.618   5.316  16.595  0.00  0.00    +0.000 NA
ATOM     30  C   UNL     1       5.735   5.460  15.637  0.00  0.00    +0.000 C 
ATOM     31  C   UNL     1       7.134   5.154  16.235  0.00  0.00    +0.000 C 
BRANCH  26  32
ATOM     32  C   UNL     1       7.811   7.328  17.059  0.00  0.00    +0.000 C 
BRANCH  32  34
ATOM     33  C   UNL     1       8.304   9.725  17.814  0.00  0.00    +0.000 C 
ATOM     34  C   UNL     1       8.228   8.257  18.206  0.00  0.00    +0.000 C 
ENDBRANCH  32  34
ENDBRANCH  26  32
ENDBRANCH  25  29
ENDBRANCH   1  25
TORSDOF 5
ENDMDL
