MODEL 1
REMARK VINA RESULT:      -8.5      0.000      0.000
REMARK  Name = 
REMARK  3 active torsions:
REMARK  status: ('A' for Active; 'I' for Inactive)
REMARK    1  A    between atoms: C_2  and  C_5
REMARK    2  A    between atoms: C_11  and  O_12
REMARK    3  A    between atoms: O_12  and  C_13
REMARK                            x       y       z     vdW  Elec       q    Type
REMARK                         _______ _______ _______ _____ _____    ______ ____
ROOT
ATOM      1  C   UNL     1       3.834   3.568  17.721  0.00  0.00    +0.000 A 
ATOM      2  N   UNL     1       3.339   2.340  17.714  0.00  0.00    +0.000 NA
ATOM      3  N   UNL     1       2.282   2.299  18.594  0.00  0.00    +0.000 NA
ATOM      4  C   UNL     1       2.152   3.499  19.115  0.00  0.00    +0.000 A 
ATOM      5  C   UNL     1       1.242   4.037  20.050  0.00  0.00    +0.000 A 
ATOM      6  C   UNL     1       1.355   5.323  20.404  0.00  0.00    +0.000 A 
ATOM      7  C   UNL     1       2.483   6.077  19.805  0.00  0.00    +0.000 A 
ATOM      8  N   UNL     1       3.338   5.647  18.933  0.00  0.00    +0.000 NA
ATOM      9  N   UNL     1       3.125   4.338  18.603  0.00  0.00    +0.000 N 
ENDROOT
BRANCH   1  11
ATOM     10  F   UNL     1       5.993   4.502  17.741  0.00  0.00    +0.000 F 
ATOM     11  C   UNL     1       4.954   4.121  16.949  0.00  0.00    +0.000 C 
ATOM     12  F   UNL     1       4.598   5.223  16.236  0.00  0.00    +0.000 F 
ATOM     13  F   UNL     1       5.463   3.224  16.063  0.00  0.00    +0.000 F 
ENDBRANCH   1  11
BRANCH   7  14
ATOM     14  O   UNL     1       2.493   7.353  20.352  0.00  0.00    +0.000 OA
BRANCH  14  15
ATOM     15  C   UNL     1       1.603   8.354  19.875  0.00  0.00    +0.000 A 
ATOM     16  C   UNL     1       1.610   8.676  18.516  0.00  0.00    +0.000 A 
ATOM     17  C   UNL     1       0.818   9.720  18.058  0.00  0.00    +0.000 A 
ATOM     18  C   UNL     1       0.040  10.456  18.954  0.00  0.00    +0.000 A 
ATOM     19 CL   UNL     1      -0.884  11.762  18.282  0.00  0.00    +0.000 Cl
ATOM     20  C   UNL     1       0.027  10.158  20.342  0.00  0.00    +0.000 A 
ATOM     21  C   UNL     1      -0.743  10.884  21.283  0.00  0.00    +0.000 A 
ATOM     22  C   UNL     1      -0.724  10.575  22.643  0.00  0.00    +0.000 A 
ATOM     23  C   UNL     1       0.072   9.535  23.099  0.00  0.00    +0.000 A 
ATOM     24  C   UNL     1       0.842   8.800  22.196  0.00  0.00    +0.000 A 
ATOM     25  C   UNL     1       0.834   9.087  20.812  0.00  0.00    +0.000 A 
ENDBRANCH  14  15
ENDBRANCH   7  14
TORSDOF 3
ENDMDL
MODEL 2
REMARK VINA RESULT:      -8.4      4.740      7.757
REMARK  Name = 
REMARK  3 active torsions:
REMARK  status: ('A' for Active; 'I' for Inactive)
REMARK    1  A    between atoms: C_2  and  C_5
REMARK    2  A    between atoms: C_11  and  O_12
REMARK    3  A    between atoms: O_12  and  C_13
REMARK                            x       y       z     vdW  Elec       q    Type
REMARK                         _______ _______ _______ _____ _____    ______ ____
ROOT
ATOM      1  C   UNL     1      -0.490  10.166  21.196  0.00  0.00    +0.000 A 
ATOM      2  N   UNL     1      -1.207  11.071  20.548  0.00  0.00    +0.000 NA
ATOM      3  N   UNL     1      -0.812  11.066  19.230  0.00  0.00    +0.000 NA
ATOM      4  C   UNL     1       0.131  10.160  19.100  0.00  0.00    +0.000 A 
ATOM      5  C   UNL     1       0.881   9.718  17.989  0.00  0.00    +0.000 A 
ATOM      6  C   UNL     1       1.798   8.758  18.162  0.00  0.00    +0.000 A 
ATOM      7  C   UNL     1       1.985   8.264  19.547  0.00  0.00    +0.000 A 
ATOM      8  N   UNL     1       1.321   8.615  20.602  0.00  0.00    +0.000 NA
ATOM      9  N   UNL     1       0.383   9.570  20.326  0.00  0.00    +0.000 N 
ENDROOT
BRANCH   1  11
ATOM     10  F   UNL     1       0.680   9.837  23.209  0.00  0.00    +0.000 F 
ATOM     11  C   UNL     1      -0.541   9.783  22.612  0.00  0.00    +0.000 C 
ATOM     12  F   UNL     1      -0.995   8.515  22.791  0.00  0.00    +0.000 F 
ATOM     13  F   UNL     1      -1.352  10.599  23.338  0.00  0.00    +0.000 F 
ENDBRANCH   1  11
BRANCH   7  14
ATOM     14  O   UNL     1       3.028   7.347  19.546  0.00  0.00    +0.000 OA
BRANCH  14  15
ATOM     15  C   UNL     1       2.849   6.046  19.000  0.00  0.00    +0.000 A 
ATOM     16  C   UNL     1       1.956   5.168  19.618  0.00  0.00    +0.000 A 
ATOM     17  C   UNL     1       1.850   3.864  19.154  0.00  0.00    +0.000 A 
ATOM     18  C   UNL     1       2.648   3.430  18.093  0.00  0.00    +0.000 A 
ATOM     19 CL   UNL     1       2.461   1.773  17.616  0.00  0.00    +0.000 Cl
ATOM     20  C   UNL     1       3.574   4.298  17.459  0.00  0.00    +0.000 A 
ATOM     21  C   UNL     1       4.405   3.895  16.385  0.00  0.00    +0.000 A 
ATOM     22  C   UNL     1       5.315   4.768  15.791  0.00  0.00    +0.000 A 
ATOM     23  C   UNL     1       5.423   6.069  16.260  0.00  0.00    +0.000 A 
ATOM     24  C   UNL     1       4.617   6.498  17.317  0.00  0.00    +0.000 A 
ATOM     25  C   UNL     1       3.681   5.635  17.930  0.00  0.00    +0.000 A 
ENDBRANCH  14  15
ENDBRANCH   7  14
TORSDOF 3
ENDMDL
MODEL 3
REMARK VINA RESULT:      -8.3      4.783      7.785
REMARK  Name = 
REMARK  3 active torsions:
REMARK  status: ('A' for Active; 'I' for Inactive)
REMARK    1  A    between atoms: C_2  and  C_5
REMARK    2  A    between atoms: C_11  and  O_12
REMARK    3  A    between atoms: O_12  and  C_13
REMARK                            x       y       z     vdW  Elec       q    Type
REMARK                         _______ _______ _______ _____ _____    ______ ____
ROOT
ATOM      1  C   UNL     1      -0.519  10.344  21.347  0.00  0.00    +0.000 A 
ATOM      2  N   UNL     1      -1.134  11.310  20.684  0.00  0.00    +0.000 NA
ATOM      3  N   UNL     1      -0.681  11.293  19.385  0.00  0.00    +0.000 NA
ATOM      4  C   UNL     1       0.195  10.319  19.281  0.00  0.00    +0.000 A 
ATOM      5  C   UNL     1       0.959   9.837  18.197  0.00  0.00    +0.000 A 
ATOM      6  C   UNL     1       1.792   8.807  18.394  0.00  0.00    +0.000 A 
ATOM      7  C   UNL     1       1.877   8.280  19.777  0.00  0.00    +0.000 A 
ATOM      8  N   UNL     1       1.194   8.666  20.807  0.00  0.00    +0.000 NA
ATOM      9  N   UNL     1       0.345   9.694  20.507  0.00  0.00    +0.000 N 
ENDROOT
BRANCH   1  11
ATOM     10  F   UNL     1      -1.102   8.664  22.888  0.00  0.00    +0.000 F 
ATOM     11  C   UNL     1      -0.663   9.946  22.753  0.00  0.00    +0.000 C 
ATOM     12  F   UNL     1      -1.555  10.723  23.423  0.00  0.00    +0.000 F 
ATOM     13  F   UNL     1       0.512  10.016  23.432  0.00  0.00    +0.000 F 
ENDBRANCH   1  11
BRANCH   7  14
ATOM     14  O   UNL     1       2.846   7.286  19.806  0.00  0.00    +0.000 OA
BRANCH  14  15
ATOM     15  C   UNL     1       2.513   5.939  19.492  0.00  0.00    +0.000 A 
ATOM     16  C   UNL     1       1.606   5.258  20.307  0.00  0.00    +0.000 A 
ATOM     17  C   UNL     1       1.351   3.914  20.070  0.00  0.00    +0.000 A 
ATOM     18  C   UNL     1       2.016   3.245  19.039  0.00  0.00    +0.000 A 
ATOM     19 CL   UNL     1       1.651   1.560  18.852  0.00  0.00    +0.000 Cl
ATOM     20  C   UNL     1       2.954   3.912  18.208  0.00  0.00    +0.000 A 
ATOM     21  C   UNL     1       3.653   3.268  17.158  0.00  0.00    +0.000 A 
ATOM     22  C   UNL     1       4.578   3.947  16.366  0.00  0.00    +0.000 A 
ATOM     23  C   UNL     1       4.835   5.288  16.608  0.00  0.00    +0.000 A 
ATOM     24  C   UNL     1       4.161   5.952  17.636  0.00  0.00    +0.000 A 
ATOM     25  C   UNL     1       3.213   5.289  18.446  0.00  0.00    +0.000 A 
ENDBRANCH  14  15
ENDBRANCH   7  14
TORSDOF 3
ENDMDL
MODEL 4
REMARK VINA RESULT:      -8.2      1.035      1.194
REMARK  Name = 
REMARK  3 active torsions:
REMARK  status: ('A' for Active; 'I' for Inactive)
REMARK    1  A    between atoms: C_2  and  C_5
REMARK    2  A    between atoms: C_11  and  O_12
REMARK    3  A    between atoms: O_12  and  C_13
REMARK                            x       y       z     vdW  Elec       q    Type
REMARK                         _______ _______ _______ _____ _____    ______ ____
ROOT
ATOM      1  C   UNL     1       4.449   5.004  16.951  0.00  0.00    +0.000 A 
ATOM      2  N   UNL     1       4.327   3.717  16.669  0.00  0.00    +0.000 NA
ATOM      3  N   UNL     1       3.393   3.178  17.523  0.00  0.00    +0.000 NA
ATOM      4  C   UNL     1       2.964   4.144  18.304  0.00  0.00    +0.000 A 
ATOM      5  C   UNL     1       2.008   4.175  19.343  0.00  0.00    +0.000 A 
ATOM      6  C   UNL     1       1.775   5.330  19.978  0.00  0.00    +0.000 A 
ATOM      7  C   UNL     1       2.593   6.493  19.559  0.00  0.00    +0.000 A 
ATOM      8  N   UNL     1       3.469   6.533  18.606  0.00  0.00    +0.000 NA
ATOM      9  N   UNL     1       3.616   5.323  17.989  0.00  0.00    +0.000 N 
ENDROOT
BRANCH   1  11
ATOM     10  F   UNL     1       6.207   6.549  17.184  0.00  0.00    +0.000 F 
ATOM     11  C   UNL     1       5.304   6.015  16.317  0.00  0.00    +0.000 C 
ATOM     12  F   UNL     1       4.591   7.061  15.822  0.00  0.00    +0.000 F 
ATOM     13  F   UNL     1       6.027   5.506  15.285  0.00  0.00    +0.000 F 
ENDBRANCH   1  11
BRANCH   7  14
ATOM     14  O   UNL     1       2.278   7.567  20.381  0.00  0.00    +0.000 OA
BRANCH  14  15
ATOM     15  C   UNL     1       1.395   8.588  19.933  0.00  0.00    +0.000 A 
ATOM     16  C   UNL     1       1.401   8.947  18.584  0.00  0.00    +0.000 A 
ATOM     17  C   UNL     1       0.618  10.010  18.156  0.00  0.00    +0.000 A 
ATOM     18  C   UNL     1      -0.152  10.728  19.075  0.00  0.00    +0.000 A 
ATOM     19 CL   UNL     1      -1.066  12.059  18.442  0.00  0.00    +0.000 Cl
ATOM     20  C   UNL     1      -0.163  10.393  20.454  0.00  0.00    +0.000 A 
ATOM     21  C   UNL     1      -0.924  11.099  21.417  0.00  0.00    +0.000 A 
ATOM     22  C   UNL     1      -0.904  10.754  22.767  0.00  0.00    +0.000 A 
ATOM     23  C   UNL     1      -0.117   9.694  23.193  0.00  0.00    +0.000 A 
ATOM     24  C   UNL     1       0.645   8.977  22.268  0.00  0.00    +0.000 A 
ATOM     25  C   UNL     1       0.635   9.302  20.893  0.00  0.00    +0.000 A 
ENDBRANCH  14  15
ENDBRANCH   7  14
TORSDOF 3
ENDMDL
MODEL 5
REMARK VINA RESULT:      -8.2      3.965      5.912
REMARK  Name = 
REMARK  3 active torsions:
REMARK  status: ('A' for Active; 'I' for Inactive)
REMARK    1  A    between atoms: C_2  and  C_5
REMARK    2  A    between atoms: C_11  and  O_12
REMARK    3  A    between atoms: O_12  and  C_13
REMARK                            x       y       z     vdW  Elec       q    Type
REMARK                         _______ _______ _______ _____ _____    ______ ____
ROOT
ATOM      1  C   UNL     1       6.498   4.218  13.007  0.00  0.00    +0.000 A 
ATOM      2  N   UNL     1       7.577   4.925  12.713  0.00  0.00    +0.000 NA
ATOM      3  N   UNL     1       8.087   5.435  13.884  0.00  0.00    +0.000 NA
ATOM      4  C   UNL     1       7.315   5.028  14.865  0.00  0.00    +0.000 A 
ATOM      5  C   UNL     1       7.364   5.228  16.262  0.00  0.00    +0.000 A 
ATOM      6  C   UNL     1       6.416   4.680  17.032  0.00  0.00    +0.000 A 
ATOM      7  C   UNL     1       5.346   3.930  16.332  0.00  0.00    +0.000 A 
ATOM      8  N   UNL     1       5.254   3.697  15.061  0.00  0.00    +0.000 NA
ATOM      9  N   UNL     1       6.280   4.262  14.358  0.00  0.00    +0.000 N 
ENDROOT
BRANCH   1  11
ATOM     10  F   UNL     1       5.746   3.839  10.810  0.00  0.00    +0.000 F 
ATOM     11  C   UNL     1       5.607   3.468  12.112  0.00  0.00    +0.000 C 
ATOM     12  F   UNL     1       4.295   3.645  12.419  0.00  0.00    +0.000 F 
ATOM     13  F   UNL     1       5.845   2.129  12.151  0.00  0.00    +0.000 F 
ENDBRANCH   1  11
BRANCH   7  14
ATOM     14  O   UNL     1       4.415   3.514  17.275  0.00  0.00    +0.000 OA
BRANCH  14  15
ATOM     15  C   UNL     1       3.667   4.465  18.023  0.00  0.00    +0.000 A 
ATOM     16  C   UNL     1       3.582   5.779  17.557  0.00  0.00    +0.000 A 
ATOM     17  C   UNL     1       2.941   6.737  18.331  0.00  0.00    +0.000 A 
ATOM     18  C   UNL     1       2.406   6.391  19.574  0.00  0.00    +0.000 A 
ATOM     19 CL   UNL     1       1.657   7.671  20.474  0.00  0.00    +0.000 Cl
ATOM     20  C   UNL     1       2.493   5.067  20.076  0.00  0.00    +0.000 A 
ATOM     21  C   UNL     1       1.970   4.678  21.333  0.00  0.00    +0.000 A 
ATOM     22  C   UNL     1       2.083   3.371  21.805  0.00  0.00    +0.000 A 
ATOM     23  C   UNL     1       2.729   2.417  21.033  0.00  0.00    +0.000 A 
ATOM     24  C   UNL     1       3.255   2.768  19.788  0.00  0.00    +0.000 A 
ATOM     25  C   UNL     1       3.146   4.083  19.284  0.00  0.00    +0.000 A 
ENDBRANCH  14  15
ENDBRANCH   7  14
TORSDOF 3
ENDMDL
MODEL 6
REMARK VINA RESULT:      -8.0      1.675      2.062
REMARK  Name = 
REMARK  3 active torsions:
REMARK  status: ('A' for Active; 'I' for Inactive)
REMARK    1  A    between atoms: C_2  and  C_5
REMARK    2  A    between atoms: C_11  and  O_12
REMARK    3  A    between atoms: O_12  and  C_13
REMARK                            x       y       z     vdW  Elec       q    Type
REMARK                         _______ _______ _______ _____ _____    ______ ____
ROOT
ATOM      1  C   UNL     1       5.811   4.904  17.874  0.00  0.00    +0.000 A 
ATOM      2  N   UNL     1       5.819   3.924  16.985  0.00  0.00    +0.000 NA
ATOM      3  N   UNL     1       4.515   3.562  16.736  0.00  0.00    +0.000 NA
ATOM      4  C   UNL     1       3.742   4.327  17.474  0.00  0.00    +0.000 A 
ATOM      5  C   UNL     1       2.340   4.410  17.614  0.00  0.00    +0.000 A 
ATOM      6  C   UNL     1       1.822   5.305  18.464  0.00  0.00    +0.000 A 
ATOM      7  C   UNL     1       2.790   6.120  19.237  0.00  0.00    +0.000 A 
ATOM      8  N   UNL     1       4.082   6.103  19.142  0.00  0.00    +0.000 NA
ATOM      9  N   UNL     1       4.520   5.188  18.227  0.00  0.00    +0.000 N 
ENDROOT
BRANCH   1  11
ATOM     10  F   UNL     1       6.985   6.935  18.047  0.00  0.00    +0.000 F 
ATOM     11  C   UNL     1       6.943   5.638  18.455  0.00  0.00    +0.000 C 
ATOM     12  F   UNL     1       8.142   5.095  18.117  0.00  0.00    +0.000 F 
ATOM     13  F   UNL     1       6.893   5.671  19.814  0.00  0.00    +0.000 F 
ENDBRANCH   1  11
BRANCH   7  14
ATOM     14  O   UNL     1       2.079   6.920  20.122  0.00  0.00    +0.000 OA
BRANCH  14  15
ATOM     15  C   UNL     1       1.631   8.212  19.730  0.00  0.00    +0.000 A 
ATOM     16  C   UNL     1       2.001   8.708  18.478  0.00  0.00    +0.000 A 
ATOM     17  C   UNL     1       1.655  10.006  18.129  0.00  0.00    +0.000 A 
ATOM     18  C   UNL     1       0.962  10.815  19.032  0.00  0.00    +0.000 A 
ATOM     19 CL   UNL     1       0.611  12.431  18.509  0.00  0.00    +0.000 Cl
ATOM     20  C   UNL     1       0.589  10.339  20.316  0.00  0.00    +0.000 A 
ATOM     21  C   UNL     1      -0.108  11.129  21.263  0.00  0.00    +0.000 A 
ATOM     22  C   UNL     1      -0.450  10.638  22.522  0.00  0.00    +0.000 A 
ATOM     23  C   UNL     1      -0.099   9.342  22.871  0.00  0.00    +0.000 A 
ATOM     24  C   UNL     1       0.588   8.537  21.959  0.00  0.00    +0.000 A 
ATOM     25  C   UNL     1       0.938   9.009  20.675  0.00  0.00    +0.000 A 
ENDBRANCH  14  15
ENDBRANCH   7  14
TORSDOF 3
ENDMDL
MODEL 7
REMARK VINA RESULT:      -8.0      2.270      2.785
REMARK  Name = 
REMARK  3 active torsions:
REMARK  status: ('A' for Active; 'I' for Inactive)
REMARK    1  A    between atoms: C_2  and  C_5
REMARK    2  A    between atoms: C_11  and  O_12
REMARK    3  A    between atoms: O_12  and  C_13
REMARK                            x       y       z     vdW  Elec       q    Type
REMARK                         _______ _______ _______ _____ _____    ______ ____
ROOT
ATOM      1  C   UNL     1       1.936   3.317  18.451  0.00  0.00    +0.000 A 
ATOM      2  N   UNL     1       2.475   2.661  17.436  0.00  0.00    +0.000 NA
ATOM      3  N   UNL     1       3.359   3.503  16.802  0.00  0.00    +0.000 NA
ATOM      4  C   UNL     1       3.343   4.651  17.443  0.00  0.00    +0.000 A 
ATOM      5  C   UNL     1       4.048   5.859  17.250  0.00  0.00    +0.000 A 
ATOM      6  C   UNL     1       3.819   6.886  18.078  0.00  0.00    +0.000 A 
ATOM      7  C   UNL     1       2.785   6.677  19.120  0.00  0.00    +0.000 A 
ATOM      8  N   UNL     1       2.118   5.593  19.358  0.00  0.00    +0.000 NA
ATOM      9  N   UNL     1       2.442   4.588  18.491  0.00  0.00    +0.000 N 
ENDROOT
BRANCH   1  11
ATOM     10  F   UNL     1       1.509   2.094  20.415  0.00  0.00    +0.000 F 
ATOM     11  C   UNL     1       0.949   2.854  19.435  0.00  0.00    +0.000 C 
ATOM     12  F   UNL     1      -0.025   2.091  18.873  0.00  0.00    +0.000 F 
ATOM     13  F   UNL     1       0.327   3.886  20.066  0.00  0.00    +0.000 F 
ENDBRANCH   1  11
BRANCH   7  14
ATOM     14  O   UNL     1       2.623   7.867  19.818  0.00  0.00    +0.000 OA
BRANCH  14  15
ATOM     15  C   UNL     1       1.504   8.708  19.566  0.00  0.00    +0.000 A 
ATOM     16  C   UNL     1       1.226   9.091  18.252  0.00  0.00    +0.000 A 
ATOM     17  C   UNL     1       0.199   9.993  18.007  0.00  0.00    +0.000 A 
ATOM     18  C   UNL     1      -0.533  10.529  19.069  0.00  0.00    +0.000 A 
ATOM     19 CL   UNL     1      -1.769  11.672  18.655  0.00  0.00    +0.000 Cl
ATOM     20  C   UNL     1      -0.258  10.167  20.414  0.00  0.00    +0.000 A 
ATOM     21  C   UNL     1      -0.972  10.692  21.519  0.00  0.00    +0.000 A 
ATOM     22  C   UNL     1      -0.671  10.328  22.830  0.00  0.00    +0.000 A 
ATOM     23  C   UNL     1       0.359   9.431  23.073  0.00  0.00    +0.000 A 
ATOM     24  C   UNL     1       1.082   8.894  22.005  0.00  0.00    +0.000 A 
ATOM     25  C   UNL     1       0.790   9.241  20.667  0.00  0.00    +0.000 A 
ENDBRANCH  14  15
ENDBRANCH   7  14
TORSDOF 3
ENDMDL
MODEL 8
REMARK VINA RESULT:      -7.8      2.626      3.672
REMARK  Name = 
REMARK  3 active torsions:
REMARK  status: ('A' for Active; 'I' for Inactive)
REMARK    1  A    between atoms: C_2  and  C_5
REMARK    2  A    between atoms: C_11  and  O_12
REMARK    3  A    between atoms: O_12  and  C_13
REMARK                            x       y       z     vdW  Elec       q    Type
REMARK                         _______ _______ _______ _____ _____    ______ ____
ROOT
ATOM      1  C   UNL     1       3.252   3.930  19.871  0.00  0.00    +0.000 A 
ATOM      2  N   UNL     1       4.254   3.192  19.419  0.00  0.00    +0.000 NA
ATOM      3  N   UNL     1       4.911   3.912  18.448  0.00  0.00    +0.000 NA
ATOM      4  C   UNL     1       4.302   5.070  18.330  0.00  0.00    +0.000 A 
ATOM      5  C   UNL     1       4.544   6.195  17.513  0.00  0.00    +0.000 A 
ATOM      6  C   UNL     1       3.736   7.258  17.611  0.00  0.00    +0.000 A 
ATOM      7  C   UNL     1       2.601   7.141  18.557  0.00  0.00    +0.000 A 
ATOM      8  N   UNL     1       2.335   6.147  19.344  0.00  0.00    +0.000 NA
ATOM      9  N   UNL     1       3.230   5.125  19.204  0.00  0.00    +0.000 N 
ENDROOT
BRANCH   1  11
ATOM     10  F   UNL     1       0.991   3.619  20.440  0.00  0.00    +0.000 F 
ATOM     11  C   UNL     1       2.267   3.617  20.914  0.00  0.00    +0.000 C 
ATOM     12  F   UNL     1       2.293   4.511  21.937  0.00  0.00    +0.000 F 
ATOM     13  F   UNL     1       2.465   2.387  21.458  0.00  0.00    +0.000 F 
ENDBRANCH   1  11
BRANCH   7  14
ATOM     14  O   UNL     1       1.830   8.292  18.458  0.00  0.00    +0.000 OA
BRANCH  14  15
ATOM     15  C   UNL     1       1.248   8.876  19.616  0.00  0.00    +0.000 A 
ATOM     16  C   UNL     1       1.583   8.369  20.874  0.00  0.00    +0.000 A 
ATOM     17  C   UNL     1       0.944   8.864  22.002  0.00  0.00    +0.000 A 
ATOM     18  C   UNL     1      -0.042   9.845  21.876  0.00  0.00    +0.000 A 
ATOM     19 CL   UNL     1      -0.802  10.369  23.345  0.00  0.00    +0.000 Cl
ATOM     20  C   UNL     1      -0.412  10.365  20.608  0.00  0.00    +0.000 A 
ATOM     21  C   UNL     1      -1.411  11.355  20.438  0.00  0.00    +0.000 A 
ATOM     22  C   UNL     1      -1.761  11.837  19.177  0.00  0.00    +0.000 A 
ATOM     23  C   UNL     1      -1.125  11.337  18.051  0.00  0.00    +0.000 A 
ATOM     24  C   UNL     1      -0.135  10.361  18.185  0.00  0.00    +0.000 A 
ATOM     25  C   UNL     1       0.244   9.863  19.452  0.00  0.00    +0.000 A 
ENDBRANCH  14  15
ENDBRANCH   7  14
TORSDOF 3
ENDMDL
MODEL 9
REMARK VINA RESULT:      -7.8      2.492      3.493
REMARK  Name = 
REMARK  3 active torsions:
REMARK  status: ('A' for Active; 'I' for Inactive)
REMARK    1  A    between atoms: C_2  and  C_5
REMARK    2  A    between atoms: C_11  and  O_12
REMARK    3  A    between atoms: O_12  and  C_13
REMARK                            x       y       z     vdW  Elec       q    Type
REMARK                         _______ _______ _______ _____ _____    ______ ____
ROOT
ATOM      1  C   UNL     1       2.897   3.580  18.527  0.00  0.00    +0.000 A 
ATOM      2  N   UNL     1       3.998   2.952  18.148  0.00  0.00    +0.000 NA
ATOM      3  N   UNL     1       4.869   3.886  17.636  0.00  0.00    +0.000 NA
ATOM      4  C   UNL     1       4.285   5.060  17.716  0.00  0.00    +0.000 A 
ATOM      5  C   UNL     1       4.706   6.360  17.361  0.00  0.00    +0.000 A 
ATOM      6  C   UNL     1       3.876   7.391  17.560  0.00  0.00    +0.000 A 
ATOM      7  C   UNL     1       2.536   7.066  18.106  0.00  0.00    +0.000 A 
ATOM      8  N   UNL     1       2.098   5.902  18.467  0.00  0.00    +0.000 NA
ATOM      9  N   UNL     1       3.022   4.917  18.263  0.00  0.00    +0.000 N 
ENDROOT
BRANCH   1  11
ATOM     10  F   UNL     1       0.592   3.151  18.335  0.00  0.00    +0.000 F 
ATOM     11  C   UNL     1       1.681   3.031  19.142  0.00  0.00    +0.000 C 
ATOM     12  F   UNL     1       1.361   3.656  20.306  0.00  0.00    +0.000 F 
ATOM     13  F   UNL     1       1.799   1.706  19.424  0.00  0.00    +0.000 F 
ENDBRANCH   1  11
BRANCH   7  14
ATOM     14  O   UNL     1       1.791   8.237  18.160  0.00  0.00    +0.000 OA
BRANCH  14  15
ATOM     15  C   UNL     1       1.313   8.735  19.403  0.00  0.00    +0.000 A 
ATOM     16  C   UNL     1       1.682   8.084  20.582  0.00  0.00    +0.000 A 
ATOM     17  C   UNL     1       1.139   8.500  21.790  0.00  0.00    +0.000 A 
ATOM     18  C   UNL     1       0.214   9.546  21.821  0.00  0.00    +0.000 A 
ATOM     19 CL   UNL     1      -0.429   9.962  23.377  0.00  0.00    +0.000 Cl
ATOM     20  C   UNL     1      -0.189  10.213  20.634  0.00  0.00    +0.000 A 
ATOM     21  C   UNL     1      -1.128  11.273  20.622  0.00  0.00    +0.000 A 
ATOM     22  C   UNL     1      -1.514  11.900  19.438  0.00  0.00    +0.000 A 
ATOM     23  C   UNL     1      -0.974  11.480  18.232  0.00  0.00    +0.000 A 
ATOM     24  C   UNL     1      -0.045  10.437  18.210  0.00  0.00    +0.000 A 
ATOM     25  C   UNL     1       0.369   9.791  19.397  0.00  0.00    +0.000 A 
ENDBRANCH  14  15
ENDBRANCH   7  14
TORSDOF 3
ENDMDL
