MODEL 1
REMARK VINA RESULT:      -7.1      0.000      0.000
REMARK  Name = 
REMARK  7 active torsions:
REMARK  status: ('A' for Active; 'I' for Inactive)
REMARK    1  A    between atoms: C_1  and  C_2
REMARK    2  A    between atoms: C_2  and  C_3
REMARK    3  A    between atoms: C_6  and  S_7
REMARK    4  A    between atoms: S_7  and  N_10
REMARK    5  A    between atoms: N_13  and  C_14
REMARK    6  A    between atoms: C_14  and  C_15
REMARK    7  A    between atoms: C_15  and  N_16
REMARK                            x       y       z     vdW  Elec       q    Type
REMARK                         _______ _______ _______ _____ _____    ______ ____
ROOT
ATOM      1  N   UNL     1       2.941   4.438  18.806  0.00  0.00    +0.000 NA
ATOM      2  C   UNL     1       2.056   4.586  19.988  0.00  0.00    +0.000 C 
ATOM      3  C   UNL     1       2.205   5.949  20.678  0.00  0.00    +0.000 C 
ATOM      4  N   UNL     1       2.312   7.115  19.806  0.00  0.00    +0.000 NA
ATOM      5  C   UNL     1       2.739   6.929  18.418  0.00  0.00    +0.000 C 
ATOM      6  C   UNL     1       2.571   5.512  17.824  0.00  0.00    +0.000 C 
ENDROOT
BRANCH   1   7
ATOM      7  S   UNL     1       4.631   4.301  19.058  0.00  0.00    +0.000 S 
ATOM      8  O   UNL     1       4.920   2.971  19.546  0.00  0.00    +0.000 OA
ATOM      9  O   UNL     1       5.043   5.463  19.819  0.00  0.00    +0.000 OA
BRANCH   7  13
ATOM     10  C   UNL     1       6.546   4.698  14.908  0.00  0.00    +0.000 A 
ATOM     11  C   UNL     1       5.498   3.786  15.123  0.00  0.00    +0.000 A 
ATOM     12  C   UNL     1       4.910   3.652  16.388  0.00  0.00    +0.000 A 
ATOM     13  C   UNL     1       5.372   4.437  17.445  0.00  0.00    +0.000 A 
ATOM     14  C   UNL     1       6.373   5.392  17.230  0.00  0.00    +0.000 A 
ATOM     15  C   UNL     1       6.954   5.521  15.967  0.00  0.00    +0.000 A 
BRANCH  10  17
ATOM     16  C   UNL     1       6.668   3.849  12.516  0.00  0.00    +0.000 C 
ATOM     17  C   UNL     1       7.248   4.775  13.574  0.00  0.00    +0.000 C 
ENDBRANCH  10  17
ENDBRANCH   7  13
ENDBRANCH   1   7
BRANCH   4  18
ATOM     18  C   UNL     1       1.495   8.281  20.113  0.00  0.00    +0.000 C 
BRANCH  18  19
ATOM     19  C   UNL     1       0.628   8.093  21.366  0.00  0.00    +0.000 C 
BRANCH  19  20
ATOM     20  N   UNL     1       0.082   9.346  21.849  0.00  0.00    +0.000 N 
ATOM     21  C   UNL     1      -0.225  10.440  21.094  0.00  0.00    +0.000 A 
ATOM     22  C   UNL     1      -0.654  11.383  21.998  0.00  0.00    +0.000 A 
ATOM     23  N   UNL     1      -0.619  10.883  23.275  0.00  0.00    +0.000 NA
ATOM     24  C   UNL     1      -0.167   9.658  23.155  0.00  0.00    +0.000 A 
ENDBRANCH  19  20
ENDBRANCH  18  19
ENDBRANCH   4  18
TORSDOF 6
ENDMDL
MODEL 2
REMARK VINA RESULT:      -7.0      0.682      1.371
REMARK  Name = 
REMARK  7 active torsions:
REMARK  status: ('A' for Active; 'I' for Inactive)
REMARK    1  A    between atoms: C_1  and  C_2
REMARK    2  A    between atoms: C_2  and  C_3
REMARK    3  A    between atoms: C_6  and  S_7
REMARK    4  A    between atoms: S_7  and  N_10
REMARK    5  A    between atoms: N_13  and  C_14
REMARK    6  A    between atoms: C_14  and  C_15
REMARK    7  A    between atoms: C_15  and  N_16
REMARK                            x       y       z     vdW  Elec       q    Type
REMARK                         _______ _______ _______ _____ _____    ______ ____
ROOT
ATOM      1  N   UNL     1       2.796   4.783  18.362  0.00  0.00    +0.000 NA
ATOM      2  C   UNL     1       1.732   4.349  19.301  0.00  0.00    +0.000 C 
ATOM      3  C   UNL     1       1.732   5.147  20.612  0.00  0.00    +0.000 C 
ATOM      4  N   UNL     1       1.943   6.588  20.502  0.00  0.00    +0.000 NA
ATOM      5  C   UNL     1       2.588   7.123  19.302  0.00  0.00    +0.000 C 
ATOM      6  C   UNL     1       2.556   6.231  18.040  0.00  0.00    +0.000 C 
ENDROOT
BRANCH   1   7
ATOM      7  S   UNL     1       4.429   4.438  18.754  0.00  0.00    +0.000 S 
ATOM      8  O   UNL     1       4.517   3.066  19.199  0.00  0.00    +0.000 OA
ATOM      9  O   UNL     1       4.898   5.513  19.606  0.00  0.00    +0.000 OA
BRANCH   7  13
ATOM     10  C   UNL     1       6.730   4.681  14.794  0.00  0.00    +0.000 A 
ATOM     11  C   UNL     1       7.218   5.332  15.940  0.00  0.00    +0.000 A 
ATOM     12  C   UNL     1       6.520   5.269  17.153  0.00  0.00    +0.000 A 
ATOM     13  C   UNL     1       5.328   4.549  17.222  0.00  0.00    +0.000 A 
ATOM     14  C   UNL     1       4.863   3.847  16.104  0.00  0.00    +0.000 A 
ATOM     15  C   UNL     1       5.563   3.913  14.897  0.00  0.00    +0.000 A 
BRANCH  10  17
ATOM     16  C   UNL     1       6.808   3.999  12.347  0.00  0.00    +0.000 C 
ATOM     17  C   UNL     1       7.426   4.828  13.462  0.00  0.00    +0.000 C 
ENDBRANCH  10  17
ENDBRANCH   7  13
ENDBRANCH   1   7
BRANCH   4  18
ATOM     18  C   UNL     1       1.054   7.471  21.244  0.00  0.00    +0.000 C 
BRANCH  18  19
ATOM     19  C   UNL     1       1.019   8.899  20.682  0.00  0.00    +0.000 C 
BRANCH  19  20
ATOM     20  N   UNL     1       0.263   9.804  21.525  0.00  0.00    +0.000 N 
ATOM     21  C   UNL     1      -0.294   9.508  22.734  0.00  0.00    +0.000 A 
ATOM     22  C   UNL     1      -0.945  10.658  23.113  0.00  0.00    +0.000 A 
ATOM     23  N   UNL     1      -0.789  11.639  22.166  0.00  0.00    +0.000 NA
ATOM     24  C   UNL     1      -0.063  11.095  21.220  0.00  0.00    +0.000 A 
ENDBRANCH  19  20
ENDBRANCH  18  19
ENDBRANCH   4  18
TORSDOF 6
ENDMDL
MODEL 3
REMARK VINA RESULT:      -6.9      3.444      4.792
REMARK  Name = 
REMARK  7 active torsions:
REMARK  status: ('A' for Active; 'I' for Inactive)
REMARK    1  A    between atoms: C_1  and  C_2
REMARK    2  A    between atoms: C_2  and  C_3
REMARK    3  A    between atoms: C_6  and  S_7
REMARK    4  A    between atoms: S_7  and  N_10
REMARK    5  A    between atoms: N_13  and  C_14
REMARK    6  A    between atoms: C_14  and  C_15
REMARK    7  A    between atoms: C_15  and  N_16
REMARK                            x       y       z     vdW  Elec       q    Type
REMARK                         _______ _______ _______ _____ _____    ______ ____
ROOT
ATOM      1  N   UNL     1       5.492   4.508  17.197  0.00  0.00    +0.000 NA
ATOM      2  C   UNL     1       5.758   4.657  18.650  0.00  0.00    +0.000 C 
ATOM      3  C   UNL     1       4.974   5.815  19.283  0.00  0.00    +0.000 C 
ATOM      4  N   UNL     1       3.584   5.972  18.865  0.00  0.00    +0.000 NA
ATOM      5  C   UNL     1       3.153   5.384  17.596  0.00  0.00    +0.000 C 
ATOM      6  C   UNL     1       4.024   4.240  17.028  0.00  0.00    +0.000 C 
ENDROOT
BRANCH   1   7
ATOM      7  S   UNL     1       6.091   5.705  16.126  0.00  0.00    +0.000 S 
ATOM      8  O   UNL     1       7.375   6.159  16.611  0.00  0.00    +0.000 OA
ATOM      9  O   UNL     1       5.017   6.652  15.903  0.00  0.00    +0.000 OA
BRANCH   7  13
ATOM     10  C   UNL     1       6.864   3.585  12.132  0.00  0.00    +0.000 A 
ATOM     11  C   UNL     1       5.701   3.307  12.870  0.00  0.00    +0.000 A 
ATOM     12  C   UNL     1       5.458   3.944  14.094  0.00  0.00    +0.000 A 
ATOM     13  C   UNL     1       6.383   4.867  14.582  0.00  0.00    +0.000 A 
ATOM     14  C   UNL     1       7.515   5.198  13.828  0.00  0.00    +0.000 A 
ATOM     15  C   UNL     1       7.751   4.559  12.608  0.00  0.00    +0.000 A 
BRANCH  10  17
ATOM     16  C   UNL     1       6.801   1.356  10.911  0.00  0.00    +0.000 C 
ATOM     17  C   UNL     1       7.178   2.829  10.863  0.00  0.00    +0.000 C 
ENDBRANCH  10  17
ENDBRANCH   7  13
ENDBRANCH   1   7
BRANCH   4  18
ATOM     18  C   UNL     1       2.575   6.175  19.895  0.00  0.00    +0.000 C 
BRANCH  18  19
ATOM     19  C   UNL     1       2.432   4.975  20.842  0.00  0.00    +0.000 C 
BRANCH  19  20
ATOM     20  N   UNL     1       2.021   3.772  20.146  0.00  0.00    +0.000 N 
ATOM     21  C   UNL     1       0.821   3.563  19.532  0.00  0.00    +0.000 A 
ATOM     22  C   UNL     1       0.884   2.269  19.069  0.00  0.00    +0.000 A 
ATOM     23  N   UNL     1       2.092   1.699  19.382  0.00  0.00    +0.000 NA
ATOM     24  C   UNL     1       2.753   2.624  20.035  0.00  0.00    +0.000 A 
ENDBRANCH  19  20
ENDBRANCH  18  19
ENDBRANCH   4  18
TORSDOF 6
ENDMDL
MODEL 4
REMARK VINA RESULT:      -6.9      1.035      1.579
REMARK  Name = 
REMARK  7 active torsions:
REMARK  status: ('A' for Active; 'I' for Inactive)
REMARK    1  A    between atoms: C_1  and  C_2
REMARK    2  A    between atoms: C_2  and  C_3
REMARK    3  A    between atoms: C_6  and  S_7
REMARK    4  A    between atoms: S_7  and  N_10
REMARK    5  A    between atoms: N_13  and  C_14
REMARK    6  A    between atoms: C_14  and  C_15
REMARK    7  A    between atoms: C_15  and  N_16
REMARK                            x       y       z     vdW  Elec       q    Type
REMARK                         _______ _______ _______ _____ _____    ______ ____
ROOT
ATOM      1  N   UNL     1       2.934   4.475  18.613  0.00  0.00    +0.000 NA
ATOM      2  C   UNL     1       1.976   4.085  19.677  0.00  0.00    +0.000 C 
ATOM      3  C   UNL     1       1.942   5.081  20.844  0.00  0.00    +0.000 C 
ATOM      4  N   UNL     1       1.973   6.499  20.496  0.00  0.00    +0.000 NA
ATOM      5  C   UNL     1       2.491   6.899  19.187  0.00  0.00    +0.000 C 
ATOM      6  C   UNL     1       2.506   5.815  18.085  0.00  0.00    +0.000 C 
ENDROOT
BRANCH   1   7
ATOM      7  S   UNL     1       4.614   4.382  18.945  0.00  0.00    +0.000 S 
ATOM      8  O   UNL     1       4.903   3.081  19.503  0.00  0.00    +0.000 OA
ATOM      9  O   UNL     1       4.970   5.584  19.672  0.00  0.00    +0.000 OA
BRANCH   7  13
ATOM     10  C   UNL     1       6.675   4.556  14.852  0.00  0.00    +0.000 A 
ATOM     11  C   UNL     1       7.382   4.897  16.018  0.00  0.00    +0.000 A 
ATOM     12  C   UNL     1       6.760   4.853  17.273  0.00  0.00    +0.000 A 
ATOM     13  C   UNL     1       5.424   4.464  17.362  0.00  0.00    +0.000 A 
ATOM     14  C   UNL     1       4.727   4.064  16.216  0.00  0.00    +0.000 A 
ATOM     15  C   UNL     1       5.352   4.110  14.968  0.00  0.00    +0.000 A 
BRANCH  10  17
ATOM     16  C   UNL     1       6.694   3.804  12.424  0.00  0.00    +0.000 C 
ATOM     17  C   UNL     1       7.311   4.697  13.489  0.00  0.00    +0.000 C 
ENDBRANCH  10  17
ENDBRANCH   7  13
ENDBRANCH   1   7
BRANCH   4  18
ATOM     18  C   UNL     1       1.021   7.388  21.148  0.00  0.00    +0.000 C 
BRANCH  18  19
ATOM     19  C   UNL     1       1.477   8.853  21.158  0.00  0.00    +0.000 C 
BRANCH  19  20
ATOM     20  N   UNL     1       0.540   9.726  20.480  0.00  0.00    +0.000 N 
ATOM     21  C   UNL     1       0.471   9.952  19.137  0.00  0.00    +0.000 A 
ATOM     22  C   UNL     1      -0.531  10.883  18.988  0.00  0.00    +0.000 A 
ATOM     23  N   UNL     1      -1.069  11.217  20.205  0.00  0.00    +0.000 NA
ATOM     24  C   UNL     1      -0.402  10.510  21.084  0.00  0.00    +0.000 A 
ENDBRANCH  19  20
ENDBRANCH  18  19
ENDBRANCH   4  18
TORSDOF 6
ENDMDL
MODEL 5
REMARK VINA RESULT:      -6.8      1.036      1.419
REMARK  Name = 
REMARK  7 active torsions:
REMARK  status: ('A' for Active; 'I' for Inactive)
REMARK    1  A    between atoms: C_1  and  C_2
REMARK    2  A    between atoms: C_2  and  C_3
REMARK    3  A    between atoms: C_6  and  S_7
REMARK    4  A    between atoms: S_7  and  N_10
REMARK    5  A    between atoms: N_13  and  C_14
REMARK    6  A    between atoms: C_14  and  C_15
REMARK    7  A    between atoms: C_15  and  N_16
REMARK                            x       y       z     vdW  Elec       q    Type
REMARK                         _______ _______ _______ _____ _____    ______ ____
ROOT
ATOM      1  N   UNL     1       2.919   4.441  18.647  0.00  0.00    +0.000 NA
ATOM      2  C   UNL     1       1.985   4.049  19.732  0.00  0.00    +0.000 C 
ATOM      3  C   UNL     1       1.974   5.046  20.899  0.00  0.00    +0.000 C 
ATOM      4  N   UNL     1       1.993   6.464  20.548  0.00  0.00    +0.000 NA
ATOM      5  C   UNL     1       2.481   6.864  19.228  0.00  0.00    +0.000 C 
ATOM      6  C   UNL     1       2.476   5.779  18.127  0.00  0.00    +0.000 C 
ENDROOT
BRANCH   1   7
ATOM      7  S   UNL     1       4.606   4.353  18.943  0.00  0.00    +0.000 S 
ATOM      8  O   UNL     1       4.912   3.051  19.490  0.00  0.00    +0.000 OA
ATOM      9  O   UNL     1       4.973   5.554  19.666  0.00  0.00    +0.000 OA
BRANCH   7  13
ATOM     10  C   UNL     1       6.632   4.618  14.836  0.00  0.00    +0.000 A 
ATOM     11  C   UNL     1       5.266   4.303  14.936  0.00  0.00    +0.000 A 
ATOM     12  C   UNL     1       4.638   4.214  16.185  0.00  0.00    +0.000 A 
ATOM     13  C   UNL     1       5.381   4.443  17.343  0.00  0.00    +0.000 A 
ATOM     14  C   UNL     1       6.727   4.817  17.256  0.00  0.00    +0.000 A 
ATOM     15  C   UNL     1       7.347   4.905  16.007  0.00  0.00    +0.000 A 
BRANCH  10  17
ATOM     16  C   UNL     1       6.678   3.727  12.456  0.00  0.00    +0.000 C 
ATOM     17  C   UNL     1       7.334   4.619  13.499  0.00  0.00    +0.000 C 
ENDBRANCH  10  17
ENDBRANCH   7  13
ENDBRANCH   1   7
BRANCH   4  18
ATOM     18  C   UNL     1       1.053   7.350  21.220  0.00  0.00    +0.000 C 
BRANCH  18  19
ATOM     19  C   UNL     1       1.537   8.806  21.279  0.00  0.00    +0.000 C 
BRANCH  19  20
ATOM     20  N   UNL     1       0.621   9.717  20.622  0.00  0.00    +0.000 N 
ATOM     21  C   UNL     1      -0.359  10.451  21.222  0.00  0.00    +0.000 A 
ATOM     22  C   UNL     1      -0.987  11.110  20.191  0.00  0.00    +0.000 A 
ATOM     23  N   UNL     1      -0.405  10.796  18.989  0.00  0.00    +0.000 NA
ATOM     24  C   UNL     1       0.555   9.952  19.278  0.00  0.00    +0.000 A 
ENDBRANCH  19  20
ENDBRANCH  18  19
ENDBRANCH   4  18
TORSDOF 6
ENDMDL
MODEL 6
REMARK VINA RESULT:      -6.7      1.710      2.365
REMARK  Name = 
REMARK  7 active torsions:
REMARK  status: ('A' for Active; 'I' for Inactive)
REMARK    1  A    between atoms: C_1  and  C_2
REMARK    2  A    between atoms: C_2  and  C_3
REMARK    3  A    between atoms: C_6  and  S_7
REMARK    4  A    between atoms: S_7  and  N_10
REMARK    5  A    between atoms: N_13  and  C_14
REMARK    6  A    between atoms: C_14  and  C_15
REMARK    7  A    between atoms: C_15  and  N_16
REMARK                            x       y       z     vdW  Elec       q    Type
REMARK                         _______ _______ _______ _____ _____    ______ ____
ROOT
ATOM      1  N   UNL     1       1.730   3.444  18.918  0.00  0.00    +0.000 NA
ATOM      2  C   UNL     1       0.990   3.968  20.093  0.00  0.00    +0.000 C 
ATOM      3  C   UNL     1       1.663   5.196  20.722  0.00  0.00    +0.000 C 
ATOM      4  N   UNL     1       2.195   6.195  19.799  0.00  0.00    +0.000 NA
ATOM      5  C   UNL     1       2.494   5.803  18.421  0.00  0.00    +0.000 C 
ATOM      6  C   UNL     1       1.785   4.537  17.890  0.00  0.00    +0.000 C 
ENDROOT
BRANCH   1   7
ATOM      7  S   UNL     1       3.243   2.678  19.175  0.00  0.00    +0.000 S 
ATOM      8  O   UNL     1       3.283   1.461  18.396  0.00  0.00    +0.000 OA
ATOM      9  O   UNL     1       3.460   2.636  20.607  0.00  0.00    +0.000 OA
BRANCH   7  13
ATOM     10  C   UNL     1       6.394   5.482  17.372  0.00  0.00    +0.000 A 
ATOM     11  C   UNL     1       6.209   5.423  18.764  0.00  0.00    +0.000 A 
ATOM     12  C   UNL     1       5.245   4.575  19.325  0.00  0.00    +0.000 A 
ATOM     13  C   UNL     1       4.463   3.778  18.488  0.00  0.00    +0.000 A 
ATOM     14  C   UNL     1       4.679   3.782  17.106  0.00  0.00    +0.000 A 
ATOM     15  C   UNL     1       5.642   4.630  16.553  0.00  0.00    +0.000 A 
BRANCH  10  17
ATOM     16  C   UNL     1       7.648   7.678  17.631  0.00  0.00    +0.000 C 
ATOM     17  C   UNL     1       7.362   6.465  16.758  0.00  0.00    +0.000 C 
ENDBRANCH  10  17
ENDBRANCH   7  13
ENDBRANCH   1   7
BRANCH   4  18
ATOM     18  C   UNL     1       1.893   7.597  20.054  0.00  0.00    +0.000 C 
BRANCH  18  19
ATOM     19  C   UNL     1       1.155   7.820  21.382  0.00  0.00    +0.000 C 
BRANCH  19  20
ATOM     20  N   UNL     1       0.690   9.185  21.529  0.00  0.00    +0.000 N 
ATOM     21  C   UNL     1       0.794  10.180  20.602  0.00  0.00    +0.000 A 
ATOM     22  C   UNL     1       0.264  11.291  21.217  0.00  0.00    +0.000 A 
ATOM     23  N   UNL     1      -0.161  10.987  22.485  0.00  0.00    +0.000 NA
ATOM     24  C   UNL     1       0.113   9.716  22.648  0.00  0.00    +0.000 A 
ENDBRANCH  19  20
ENDBRANCH  18  19
ENDBRANCH   4  18
TORSDOF 6
ENDMDL
MODEL 7
REMARK VINA RESULT:      -6.7      4.486      6.228
REMARK  Name = 
REMARK  7 active torsions:
REMARK  status: ('A' for Active; 'I' for Inactive)
REMARK    1  A    between atoms: C_1  and  C_2
REMARK    2  A    between atoms: C_2  and  C_3
REMARK    3  A    between atoms: C_6  and  S_7
REMARK    4  A    between atoms: S_7  and  N_10
REMARK    5  A    between atoms: N_13  and  C_14
REMARK    6  A    between atoms: C_14  and  C_15
REMARK    7  A    between atoms: C_15  and  N_16
REMARK                            x       y       z     vdW  Elec       q    Type
REMARK                         _______ _______ _______ _____ _____    ______ ____
ROOT
ATOM      1  N   UNL     1       6.065   5.275  17.997  0.00  0.00    +0.000 NA
ATOM      2  C   UNL     1       5.006   5.656  18.965  0.00  0.00    +0.000 C 
ATOM      3  C   UNL     1       3.607   5.693  18.335  0.00  0.00    +0.000 C 
ATOM      4  N   UNL     1       3.275   4.609  17.414  0.00  0.00    +0.000 NA
ATOM      5  C   UNL     1       4.359   3.855  16.783  0.00  0.00    +0.000 C 
ATOM      6  C   UNL     1       5.737   3.902  17.482  0.00  0.00    +0.000 C 
ENDROOT
BRANCH   1   7
ATOM      7  S   UNL     1       6.482   6.383  16.756  0.00  0.00    +0.000 S 
ATOM      8  O   UNL     1       5.270   6.989  16.252  0.00  0.00    +0.000 OA
ATOM      9  O   UNL     1       7.383   5.692  15.855  0.00  0.00    +0.000 OA
BRANCH   7  13
ATOM     10  C   UNL     1       8.893   9.675  18.850  0.00  0.00    +0.000 A 
ATOM     11  C   UNL     1       7.968  10.003  17.844  0.00  0.00    +0.000 A 
ATOM     12  C   UNL     1       7.230   9.005  17.194  0.00  0.00    +0.000 A 
ATOM     13  C   UNL     1       7.417   7.670  17.553  0.00  0.00    +0.000 A 
ATOM     14  C   UNL     1       8.291   7.336  18.595  0.00  0.00    +0.000 A 
ATOM     15  C   UNL     1       9.023   8.336  19.240  0.00  0.00    +0.000 A 
BRANCH  10  17
ATOM     16  C   UNL     1       9.274  11.198  20.849  0.00  0.00    +0.000 C 
ATOM     17  C   UNL     1       9.760  10.737  19.484  0.00  0.00    +0.000 C 
ENDBRANCH  10  17
ENDBRANCH   7  13
ENDBRANCH   1   7
BRANCH   4  18
ATOM     18  C   UNL     1       1.988   3.946  17.570  0.00  0.00    +0.000 C 
BRANCH  18  19
ATOM     19  C   UNL     1       2.103   2.554  18.208  0.00  0.00    +0.000 C 
BRANCH  19  20
ATOM     20  N   UNL     1       2.119   2.613  19.656  0.00  0.00    +0.000 N 
ATOM     21  C   UNL     1       1.056   2.880  20.467  0.00  0.00    +0.000 A 
ATOM     22  C   UNL     1       1.574   2.878  21.741  0.00  0.00    +0.000 A 
ATOM     23  N   UNL     1       2.920   2.611  21.716  0.00  0.00    +0.000 NA
ATOM     24  C   UNL     1       3.221   2.462  20.450  0.00  0.00    +0.000 A 
ENDBRANCH  19  20
ENDBRANCH  18  19
ENDBRANCH   4  18
TORSDOF 6
ENDMDL
MODEL 8
REMARK VINA RESULT:      -6.6      3.314      4.770
REMARK  Name = 
REMARK  7 active torsions:
REMARK  status: ('A' for Active; 'I' for Inactive)
REMARK    1  A    between atoms: C_1  and  C_2
REMARK    2  A    between atoms: C_2  and  C_3
REMARK    3  A    between atoms: C_6  and  S_7
REMARK    4  A    between atoms: S_7  and  N_10
REMARK    5  A    between atoms: N_13  and  C_14
REMARK    6  A    between atoms: C_14  and  C_15
REMARK    7  A    between atoms: C_15  and  N_16
REMARK                            x       y       z     vdW  Elec       q    Type
REMARK                         _______ _______ _______ _____ _____    ______ ____
ROOT
ATOM      1  N   UNL     1       5.174   4.507  17.302  0.00  0.00    +0.000 NA
ATOM      2  C   UNL     1       5.438   4.498  18.762  0.00  0.00    +0.000 C 
ATOM      3  C   UNL     1       4.733   5.644  19.502  0.00  0.00    +0.000 C 
ATOM      4  N   UNL     1       3.361   5.938  19.098  0.00  0.00    +0.000 NA
ATOM      5  C   UNL     1       2.899   5.505  17.778  0.00  0.00    +0.000 C 
ATOM      6  C   UNL     1       3.692   4.361  17.106  0.00  0.00    +0.000 C 
ENDROOT
BRANCH   1   7
ATOM      7  S   UNL     1       5.865   5.754  16.350  0.00  0.00    +0.000 S 
ATOM      8  O   UNL     1       7.112   6.162  16.956  0.00  0.00    +0.000 OA
ATOM      9  O   UNL     1       4.821   6.728  16.103  0.00  0.00    +0.000 OA
BRANCH   7  13
ATOM     10  C   UNL     1       6.875   3.778  12.335  0.00  0.00    +0.000 A 
ATOM     11  C   UNL     1       7.736   4.740  12.890  0.00  0.00    +0.000 A 
ATOM     12  C   UNL     1       7.434   5.355  14.112  0.00  0.00    +0.000 A 
ATOM     13  C   UNL     1       6.265   5.002  14.786  0.00  0.00    +0.000 A 
ATOM     14  C   UNL     1       5.430   4.002  14.275  0.00  0.00    +0.000 A 
ATOM     15  C   UNL     1       5.737   3.393  13.056  0.00  0.00    +0.000 A 
BRANCH  10  17
ATOM     16  C   UNL     1       7.146   1.665  10.948  0.00  0.00    +0.000 C 
ATOM     17  C   UNL     1       7.146   3.186  10.973  0.00  0.00    +0.000 C 
ENDBRANCH  10  17
ENDBRANCH   7  13
ENDBRANCH   1   7
BRANCH   4  18
ATOM     18  C   UNL     1       2.360   6.114  20.141  0.00  0.00    +0.000 C 
BRANCH  18  19
ATOM     19  C   UNL     1       2.207   4.880  21.042  0.00  0.00    +0.000 C 
BRANCH  19  20
ATOM     20  N   UNL     1       1.854   3.692  20.291  0.00  0.00    +0.000 N 
ATOM     21  C   UNL     1       2.634   2.588  20.110  0.00  0.00    +0.000 A 
ATOM     22  C   UNL     1       1.895   1.764  19.293  0.00  0.00    +0.000 A 
ATOM     23  N   UNL     1       0.689   2.342  18.984  0.00  0.00    +0.000 NA
ATOM     24  C   UNL     1       0.695   3.503  19.593  0.00  0.00    +0.000 A 
ENDBRANCH  19  20
ENDBRANCH  18  19
ENDBRANCH   4  18
TORSDOF 6
ENDMDL
MODEL 9
REMARK VINA RESULT:      -6.6      4.256      5.732
REMARK  Name = 
REMARK  7 active torsions:
REMARK  status: ('A' for Active; 'I' for Inactive)
REMARK    1  A    between atoms: C_1  and  C_2
REMARK    2  A    between atoms: C_2  and  C_3
REMARK    3  A    between atoms: C_6  and  S_7
REMARK    4  A    between atoms: S_7  and  N_10
REMARK    5  A    between atoms: N_13  and  C_14
REMARK    6  A    between atoms: C_14  and  C_15
REMARK    7  A    between atoms: C_15  and  N_16
REMARK                            x       y       z     vdW  Elec       q    Type
REMARK                         _______ _______ _______ _____ _____    ______ ____
ROOT
ATOM      1  N   UNL     1       5.644   5.114  18.989  0.00  0.00    +0.000 NA
ATOM      2  C   UNL     1       4.395   5.891  18.789  0.00  0.00    +0.000 C 
ATOM      3  C   UNL     1       3.548   5.368  17.621  0.00  0.00    +0.000 C 
ATOM      4  N   UNL     1       3.429   3.919  17.496  0.00  0.00    +0.000 NA
ATOM      5  C   UNL     1       4.435   3.065  18.129  0.00  0.00    +0.000 C 
ATOM      6  C   UNL     1       5.254   3.693  19.280  0.00  0.00    +0.000 C 
ENDROOT
BRANCH   1   7
ATOM      7  S   UNL     1       6.891   5.249  17.820  0.00  0.00    +0.000 S 
ATOM      8  O   UNL     1       6.306   5.127  16.504  0.00  0.00    +0.000 OA
ATOM      9  O   UNL     1       7.957   4.358  18.231  0.00  0.00    +0.000 OA
BRANCH   7  13
ATOM     10  C   UNL     1       8.490   9.528  18.237  0.00  0.00    +0.000 A 
ATOM     11  C   UNL     1       7.512   9.226  17.275  0.00  0.00    +0.000 A 
ATOM     12  C   UNL     1       7.020   7.921  17.134  0.00  0.00    +0.000 A 
ATOM     13  C   UNL     1       7.509   6.912  17.964  0.00  0.00    +0.000 A 
ATOM     14  C   UNL     1       8.439   7.212  18.967  0.00  0.00    +0.000 A 
ATOM     15  C   UNL     1       8.924   8.515  19.102  0.00  0.00    +0.000 A 
BRANCH  10  17
ATOM     16  C   UNL     1      10.132  11.062  19.425  0.00  0.00    +0.000 C 
ATOM     17  C   UNL     1       9.092  10.910  18.325  0.00  0.00    +0.000 C 
ENDBRANCH  10  17
ENDBRANCH   7  13
ENDBRANCH   1   7
BRANCH   4  18
ATOM     18  C   UNL     1       2.106   3.354  17.271  0.00  0.00    +0.000 C 
BRANCH  18  19
ATOM     19  C   UNL     1       1.060   3.857  18.276  0.00  0.00    +0.000 C 
BRANCH  19  20
ATOM     20  N   UNL     1       1.409   3.529  19.644  0.00  0.00    +0.000 N 
ATOM     21  C   UNL     1       1.675   4.415  20.646  0.00  0.00    +0.000 A 
ATOM     22  C   UNL     1       2.004   3.634  21.729  0.00  0.00    +0.000 A 
ATOM     23  N   UNL     1       1.937   2.302  21.406  0.00  0.00    +0.000 NA
ATOM     24  C   UNL     1       1.582   2.269  20.144  0.00  0.00    +0.000 A 
ENDBRANCH  19  20
ENDBRANCH  18  19
ENDBRANCH   4  18
TORSDOF 6
ENDMDL
