MODEL 1
REMARK VINA RESULT:      -9.1      0.000      0.000
REMARK  Name = 
REMARK  7 active torsions:
REMARK  status: ('A' for Active; 'I' for Inactive)
REMARK    1  A    between atoms: C_2  and  O_3
REMARK    2  A    between atoms: C_2  and  C_4
REMARK    3  A    between atoms: C_7  and  C_8
REMARK    4  A    between atoms: C_11  and  C_12
REMARK    5  A    between atoms: C_15  and  N_16
REMARK    6  A    between atoms: N_16  and  C_17
REMARK    7  A    between atoms: N_16  and  C_23
REMARK                            x       y       z     vdW  Elec       q    Type
REMARK                         _______ _______ _______ _____ _____    ______ ____
ROOT
ATOM      1  C   UNL     1       0.936   9.569  19.436  0.00  0.00    +0.000 A 
ATOM      2  C   UNL     1       1.360   9.267  18.135  0.00  0.00    +0.000 A 
ATOM      3  C   UNL     1       2.110   8.108  17.869  0.00  0.00    +0.000 A 
ATOM      4  C   UNL     1       2.436   7.193  18.885  0.00  0.00    +0.000 A 
ATOM      5  C   UNL     1       1.991   7.497  20.183  0.00  0.00    +0.000 A 
ATOM      6  C   UNL     1       1.267   8.670  20.454  0.00  0.00    +0.000 A 
ENDROOT
BRANCH   1  10
ATOM      7  C   UNL     1      -1.277  12.533  20.795  0.00  0.00    +0.000 A 
ATOM      8  C   UNL     1      -1.077  12.769  19.448  0.00  0.00    +0.000 A 
ATOM      9  C   UNL     1      -0.269  11.771  18.828  0.00  0.00    +0.000 A 
ATOM     10  C   UNL     1       0.129  10.776  19.703  0.00  0.00    +0.000 A 
ATOM     11  S   UNL     1      -0.441  11.118  21.287  0.00  0.00    +0.000 S 
BRANCH   7  15
ATOM     12  C   UNL     1      -2.876  14.575  23.712  0.00  0.00    +0.000 A 
ATOM     13  C   UNL     1      -3.783  14.575  22.671  0.00  0.00    +0.000 A 
ATOM     14  C   UNL     1      -3.313  13.857  21.534  0.00  0.00    +0.000 A 
ATOM     15  C   UNL     1      -2.059  13.308  21.732  0.00  0.00    +0.000 A 
ATOM     16  S   UNL     1      -1.473  13.684  23.301  0.00  0.00    +0.000 S 
BRANCH  12  18
ATOM     17  O   UNL     1      -2.220  15.200  25.910  0.00  0.00    +0.000 OA
ATOM     18  C   UNL     1      -3.044  15.218  25.005  0.00  0.00    +0.000 C 
BRANCH  18  19
ATOM     19  O   UNL     1      -4.232  15.858  25.137  0.00  0.00    +0.000 OA
ATOM     20  H   UNL     1      -4.115  16.779  25.438  0.00  0.00    +0.000 HD
ENDBRANCH  18  19
ENDBRANCH  12  18
ENDBRANCH   7  15
ENDBRANCH   1  10
BRANCH   4  21
ATOM     21  N   UNL     1       3.188   5.982  18.608  0.00  0.00    +0.000 N 
BRANCH  21  22
ATOM     22  C   UNL     1       4.628   6.035  18.391  0.00  0.00    +0.000 A 
ATOM     23  C   UNL     1       5.527   5.446  19.305  0.00  0.00    +0.000 A 
ATOM     24  C   UNL     1       6.907   5.451  19.083  0.00  0.00    +0.000 A 
ATOM     25  C   UNL     1       7.429   6.092  17.966  0.00  0.00    +0.000 A 
ATOM     26  C   UNL     1       6.570   6.710  17.063  0.00  0.00    +0.000 A 
ATOM     27  C   UNL     1       5.184   6.663  17.261  0.00  0.00    +0.000 A 
ENDBRANCH  21  22
BRANCH  21  28
ATOM     28  C   UNL     1       2.520   4.692  18.618  0.00  0.00    +0.000 A 
ATOM     29  C   UNL     1       2.807   3.717  17.641  0.00  0.00    +0.000 A 
ATOM     30  C   UNL     1       2.247   2.438  17.703  0.00  0.00    +0.000 A 
ATOM     31  C   UNL     1       1.347   2.121  18.715  0.00  0.00    +0.000 A 
ATOM     32  C   UNL     1       1.011   3.080  19.666  0.00  0.00    +0.000 A 
ATOM     33  C   UNL     1       1.602   4.348  19.627  0.00  0.00    +0.000 A 
ENDBRANCH  21  28
ENDBRANCH   4  21
TORSDOF 7
ENDMDL
MODEL 2
REMARK VINA RESULT:      -9.0      0.685      1.134
REMARK  Name = 
REMARK  7 active torsions:
REMARK  status: ('A' for Active; 'I' for Inactive)
REMARK    1  A    between atoms: C_2  and  O_3
REMARK    2  A    between atoms: C_2  and  C_4
REMARK    3  A    between atoms: C_7  and  C_8
REMARK    4  A    between atoms: C_11  and  C_12
REMARK    5  A    between atoms: C_15  and  N_16
REMARK    6  A    between atoms: N_16  and  C_17
REMARK    7  A    between atoms: N_16  and  C_23
REMARK                            x       y       z     vdW  Elec       q    Type
REMARK                         _______ _______ _______ _____ _____    ______ ____
ROOT
ATOM      1  C   UNL     1       0.963   9.338  19.932  0.00  0.00    +0.000 A 
ATOM      2  C   UNL     1       1.400   9.181  18.610  0.00  0.00    +0.000 A 
ATOM      3  C   UNL     1       2.160   8.061  18.227  0.00  0.00    +0.000 A 
ATOM      4  C   UNL     1       2.484   7.044  19.142  0.00  0.00    +0.000 A 
ATOM      5  C   UNL     1       2.027   7.204  20.461  0.00  0.00    +0.000 A 
ATOM      6  C   UNL     1       1.293   8.337  20.850  0.00  0.00    +0.000 A 
ENDROOT
BRANCH   1  10
ATOM      7  C   UNL     1      -1.262  12.135  21.591  0.00  0.00    +0.000 A 
ATOM      8  C   UNL     1      -1.088  12.496  20.268  0.00  0.00    +0.000 A 
ATOM      9  C   UNL     1      -0.279  11.570  19.547  0.00  0.00    +0.000 A 
ATOM     10  C   UNL     1       0.147  10.505  20.321  0.00  0.00    +0.000 A 
ATOM     11  S   UNL     1      -0.401  10.693  21.938  0.00  0.00    +0.000 S 
BRANCH   7  15
ATOM     12  C   UNL     1      -2.984  14.470  24.202  0.00  0.00    +0.000 A 
ATOM     13  C   UNL     1      -3.657  13.265  24.229  0.00  0.00    +0.000 A 
ATOM     14  C   UNL     1      -3.121  12.318  23.310  0.00  0.00    +0.000 A 
ATOM     15  C   UNL     1      -2.038  12.811  22.606  0.00  0.00    +0.000 A 
ATOM     16  S   UNL     1      -1.696  14.427  23.075  0.00  0.00    +0.000 S 
BRANCH  12  18
ATOM     17  O   UNL     1      -2.457  16.275  25.658  0.00  0.00    +0.000 OA
ATOM     18  C   UNL     1      -3.280  15.644  25.007  0.00  0.00    +0.000 C 
BRANCH  18  19
ATOM     19  O   UNL     1      -4.589  15.995  24.985  0.00  0.00    +0.000 OA
ATOM     20  H   UNL     1      -5.009  15.772  24.133  0.00  0.00    +0.000 HD
ENDBRANCH  18  19
ENDBRANCH  12  18
ENDBRANCH   7  15
ENDBRANCH   1  10
BRANCH   4  21
ATOM     21  N   UNL     1       3.246   5.875  18.742  0.00  0.00    +0.000 N 
BRANCH  21  22
ATOM     22  C   UNL     1       4.663   5.986  18.419  0.00  0.00    +0.000 A 
ATOM     23  C   UNL     1       5.649   5.406  19.245  0.00  0.00    +0.000 A 
ATOM     24  C   UNL     1       7.007   5.467  18.920  0.00  0.00    +0.000 A 
ATOM     25  C   UNL     1       7.419   6.156  17.786  0.00  0.00    +0.000 A 
ATOM     26  C   UNL     1       6.473   6.766  16.968  0.00  0.00    +0.000 A 
ATOM     27  C   UNL     1       5.109   6.664  17.269  0.00  0.00    +0.000 A 
ENDBRANCH  21  22
BRANCH  21  28
ATOM     28  C   UNL     1       2.619   4.564  18.733  0.00  0.00    +0.000 A 
ATOM     29  C   UNL     1       1.659   4.211  19.702  0.00  0.00    +0.000 A 
ATOM     30  C   UNL     1       0.975   2.993  19.639  0.00  0.00    +0.000 A 
ATOM     31  C   UNL     1       1.274   2.079  18.635  0.00  0.00    +0.000 A 
ATOM     32  C   UNL     1       2.251   2.385  17.691  0.00  0.00    +0.000 A 
ATOM     33  C   UNL     1       2.907   3.620  17.731  0.00  0.00    +0.000 A 
ENDBRANCH  21  28
ENDBRANCH   4  21
TORSDOF 7
ENDMDL
MODEL 3
REMARK VINA RESULT:      -8.9      1.019      1.329
REMARK  Name = 
REMARK  7 active torsions:
REMARK  status: ('A' for Active; 'I' for Inactive)
REMARK    1  A    between atoms: C_2  and  O_3
REMARK    2  A    between atoms: C_2  and  C_4
REMARK    3  A    between atoms: C_7  and  C_8
REMARK    4  A    between atoms: C_11  and  C_12
REMARK    5  A    between atoms: C_15  and  N_16
REMARK    6  A    between atoms: N_16  and  C_17
REMARK    7  A    between atoms: N_16  and  C_23
REMARK                            x       y       z     vdW  Elec       q    Type
REMARK                         _______ _______ _______ _____ _____    ______ ____
ROOT
ATOM      1  C   UNL     1       1.211   9.246  19.661  0.00  0.00    +0.000 A 
ATOM      2  C   UNL     1       1.600   9.116  18.321  0.00  0.00    +0.000 A 
ATOM      3  C   UNL     1       2.295   7.978  17.876  0.00  0.00    +0.000 A 
ATOM      4  C   UNL     1       2.599   6.915  18.745  0.00  0.00    +0.000 A 
ATOM      5  C   UNL     1       2.190   7.050  20.083  0.00  0.00    +0.000 A 
ATOM      6  C   UNL     1       1.521   8.199  20.533  0.00  0.00    +0.000 A 
ENDROOT
BRANCH   1  10
ATOM      7  C   UNL     1      -0.910  12.044  21.450  0.00  0.00    +0.000 A 
ATOM      8  C   UNL     1      -0.603  12.521  20.190  0.00  0.00    +0.000 A 
ATOM      9  C   UNL     1       0.184  11.606  19.431  0.00  0.00    +0.000 A 
ATOM     10  C   UNL     1       0.462  10.435  20.114  0.00  0.00    +0.000 A 
ATOM     11  S   UNL     1      -0.196  10.505  21.700  0.00  0.00    +0.000 S 
BRANCH   7  15
ATOM     12  C   UNL     1      -2.593  14.199  24.236  0.00  0.00    +0.000 A 
ATOM     13  C   UNL     1      -3.458  13.162  23.945  0.00  0.00    +0.000 A 
ATOM     14  C   UNL     1      -2.955  12.297  22.932  0.00  0.00    +0.000 A 
ATOM     15  C   UNL     1      -1.707  12.679  22.475  0.00  0.00    +0.000 A 
ATOM     16  S   UNL     1      -1.172  14.094  23.288  0.00  0.00    +0.000 S 
BRANCH  12  18
ATOM     17  O   UNL     1      -1.965  15.658  26.005  0.00  0.00    +0.000 OA
ATOM     18  C   UNL     1      -2.806  15.255  25.212  0.00  0.00    +0.000 C 
BRANCH  18  19
ATOM     19  O   UNL     1      -4.058  15.773  25.178  0.00  0.00    +0.000 OA
ATOM     20  H   UNL     1      -4.048  16.748  25.211  0.00  0.00    +0.000 HD
ENDBRANCH  18  19
ENDBRANCH  12  18
ENDBRANCH   7  15
ENDBRANCH   1  10
BRANCH   4  21
ATOM     21  N   UNL     1       3.294   5.728  18.281  0.00  0.00    +0.000 N 
BRANCH  21  22
ATOM     22  C   UNL     1       4.552   5.839  17.554  0.00  0.00    +0.000 A 
ATOM     23  C   UNL     1       4.750   5.167  16.330  0.00  0.00    +0.000 A 
ATOM     24  C   UNL     1       5.935   5.303  15.601  0.00  0.00    +0.000 A 
ATOM     25  C   UNL     1       6.975   6.076  16.105  0.00  0.00    +0.000 A 
ATOM     26  C   UNL     1       6.821   6.727  17.325  0.00  0.00    +0.000 A 
ATOM     27  C   UNL     1       5.615   6.627  18.031  0.00  0.00    +0.000 A 
ENDBRANCH  21  22
BRANCH  21  28
ATOM     28  C   UNL     1       2.777   4.409  18.605  0.00  0.00    +0.000 A 
ATOM     29  C   UNL     1       3.489   3.537  19.453  0.00  0.00    +0.000 A 
ATOM     30  C   UNL     1       2.951   2.310  19.852  0.00  0.00    +0.000 A 
ATOM     31  C   UNL     1       1.712   1.904  19.369  0.00  0.00    +0.000 A 
ATOM     32  C   UNL     1       1.008   2.726  18.493  0.00  0.00    +0.000 A 
ATOM     33  C   UNL     1       1.529   3.972  18.125  0.00  0.00    +0.000 A 
ENDBRANCH  21  28
ENDBRANCH   4  21
TORSDOF 7
ENDMDL
MODEL 4
REMARK VINA RESULT:      -8.9      0.136      3.308
REMARK  Name = 
REMARK  7 active torsions:
REMARK  status: ('A' for Active; 'I' for Inactive)
REMARK    1  A    between atoms: C_2  and  O_3
REMARK    2  A    between atoms: C_2  and  C_4
REMARK    3  A    between atoms: C_7  and  C_8
REMARK    4  A    between atoms: C_11  and  C_12
REMARK    5  A    between atoms: C_15  and  N_16
REMARK    6  A    between atoms: N_16  and  C_17
REMARK    7  A    between atoms: N_16  and  C_23
REMARK                            x       y       z     vdW  Elec       q    Type
REMARK                         _______ _______ _______ _____ _____    ______ ____
ROOT
ATOM      1  C   UNL     1       0.934   9.561  19.443  0.00  0.00    +0.000 A 
ATOM      2  C   UNL     1       1.360   9.220  18.152  0.00  0.00    +0.000 A 
ATOM      3  C   UNL     1       2.114   8.055  17.924  0.00  0.00    +0.000 A 
ATOM      4  C   UNL     1       2.442   7.173  18.969  0.00  0.00    +0.000 A 
ATOM      5  C   UNL     1       1.995   7.518  20.256  0.00  0.00    +0.000 A 
ATOM      6  C   UNL     1       1.267   8.696  20.489  0.00  0.00    +0.000 A 
ENDROOT
BRANCH   1  10
ATOM      7  C   UNL     1      -1.280  12.566  20.707  0.00  0.00    +0.000 A 
ATOM      8  C   UNL     1      -1.097  12.749  19.350  0.00  0.00    +0.000 A 
ATOM      9  C   UNL     1      -0.291  11.731  18.761  0.00  0.00    +0.000 A 
ATOM     10  C   UNL     1       0.124  10.774  19.670  0.00  0.00    +0.000 A 
ATOM     11  S   UNL     1      -0.431  11.176  21.246  0.00  0.00    +0.000 S 
BRANCH   7  15
ATOM     12  C   UNL     1      -2.909  14.616  23.601  0.00  0.00    +0.000 A 
ATOM     13  C   UNL     1      -3.710  14.778  22.488  0.00  0.00    +0.000 A 
ATOM     14  C   UNL     1      -3.218  14.073  21.353  0.00  0.00    +0.000 A 
ATOM     15  C   UNL     1      -2.056  13.373  21.621  0.00  0.00    +0.000 A 
ATOM     16  S   UNL     1      -1.581  13.593  23.257  0.00  0.00    +0.000 S 
BRANCH  12  18
ATOM     17  O   UNL     1      -2.321  15.174  25.837  0.00  0.00    +0.000 OA
ATOM     18  C   UNL     1      -3.125  15.203  24.914  0.00  0.00    +0.000 C 
BRANCH  18  19
ATOM     19  O   UNL     1      -4.334  15.803  25.043  0.00  0.00    +0.000 OA
ATOM     20  H   UNL     1      -4.266  16.773  24.973  0.00  0.00    +0.000 HD
ENDBRANCH  18  19
ENDBRANCH  12  18
ENDBRANCH   7  15
ENDBRANCH   1  10
BRANCH   4  21
ATOM     21  N   UNL     1       3.198   5.957  18.731  0.00  0.00    +0.000 N 
BRANCH  21  22
ATOM     22  C   UNL     1       2.535   4.659  18.732  0.00  0.00    +0.000 A 
ATOM     23  C   UNL     1       1.591   4.321  19.724  0.00  0.00    +0.000 A 
ATOM     24  C   UNL     1       0.916   3.097  19.709  0.00  0.00    +0.000 A 
ATOM     25  C   UNL     1       1.207   2.157  18.728  0.00  0.00    +0.000 A 
ATOM     26  C   UNL     1       2.156   2.448  17.754  0.00  0.00    +0.000 A 
ATOM     27  C   UNL     1       2.797   3.693  17.743  0.00  0.00    +0.000 A 
ENDBRANCH  21  22
BRANCH  21  28
ATOM     28  C   UNL     1       4.614   6.030  18.413  0.00  0.00    +0.000 A 
ATOM     29  C   UNL     1       5.581   5.465  19.270  0.00  0.00    +0.000 A 
ATOM     30  C   UNL     1       6.934   5.439  18.922  0.00  0.00    +0.000 A 
ATOM     31  C   UNL     1       7.358   6.024  17.734  0.00  0.00    +0.000 A 
ATOM     32  C   UNL     1       6.429   6.629  16.891  0.00  0.00    +0.000 A 
ATOM     33  C   UNL     1       5.069   6.620  17.221  0.00  0.00    +0.000 A 
ENDBRANCH  21  28
ENDBRANCH   4  21
TORSDOF 7
ENDMDL
MODEL 5
REMARK VINA RESULT:      -8.9      0.433      1.275
REMARK  Name = 
REMARK  7 active torsions:
REMARK  status: ('A' for Active; 'I' for Inactive)
REMARK    1  A    between atoms: C_2  and  O_3
REMARK    2  A    between atoms: C_2  and  C_4
REMARK    3  A    between atoms: C_7  and  C_8
REMARK    4  A    between atoms: C_11  and  C_12
REMARK    5  A    between atoms: C_15  and  N_16
REMARK    6  A    between atoms: N_16  and  C_17
REMARK    7  A    between atoms: N_16  and  C_23
REMARK                            x       y       z     vdW  Elec       q    Type
REMARK                         _______ _______ _______ _____ _____    ______ ____
ROOT
ATOM      1  C   UNL     1       0.970   9.652  19.336  0.00  0.00    +0.000 A 
ATOM      2  C   UNL     1       1.279   8.788  20.395  0.00  0.00    +0.000 A 
ATOM      3  C   UNL     1       1.971   7.584  20.170  0.00  0.00    +0.000 A 
ATOM      4  C   UNL     1       2.406   7.215  18.885  0.00  0.00    +0.000 A 
ATOM      5  C   UNL     1       2.104   8.097  17.833  0.00  0.00    +0.000 A 
ATOM      6  C   UNL     1       1.389   9.285  18.054  0.00  0.00    +0.000 A 
ENDROOT
BRANCH   1  10
ATOM      7  C   UNL     1      -0.934  12.835  20.665  0.00  0.00    +0.000 A 
ATOM      8  C   UNL     1      -0.839  12.971  19.293  0.00  0.00    +0.000 A 
ATOM      9  C   UNL     1      -0.150  11.884  18.679  0.00  0.00    +0.000 A 
ATOM     10  C   UNL     1       0.264  10.924  19.585  0.00  0.00    +0.000 A 
ATOM     11  S   UNL     1      -0.144  11.403  21.183  0.00  0.00    +0.000 S 
BRANCH   7  15
ATOM     12  C   UNL     1      -2.447  14.827  23.661  0.00  0.00    +0.000 A 
ATOM     13  C   UNL     1      -2.774  15.515  22.510  0.00  0.00    +0.000 A 
ATOM     14  C   UNL     1      -2.273  14.885  21.335  0.00  0.00    +0.000 A 
ATOM     15  C   UNL     1      -1.584  13.718  21.607  0.00  0.00    +0.000 A 
ATOM     16  S   UNL     1      -1.553  13.413  23.297  0.00  0.00    +0.000 S 
BRANCH  12  18
ATOM     17  O   UNL     1      -2.031  15.182  25.976  0.00  0.00    +0.000 OA
ATOM     18  C   UNL     1      -2.798  15.202  25.022  0.00  0.00    +0.000 C 
BRANCH  18  19
ATOM     19  O   UNL     1      -4.092  15.583  25.158  0.00  0.00    +0.000 OA
ATOM     20  H   UNL     1      -4.172  16.429  25.637  0.00  0.00    +0.000 HD
ENDBRANCH  18  19
ENDBRANCH  12  18
ENDBRANCH   7  15
ENDBRANCH   1  10
BRANCH   4  21
ATOM     21  N   UNL     1       3.142   5.986  18.654  0.00  0.00    +0.000 N 
BRANCH  21  22
ATOM     22  C   UNL     1       4.582   6.014  18.426  0.00  0.00    +0.000 A 
ATOM     23  C   UNL     1       5.134   6.704  17.327  0.00  0.00    +0.000 A 
ATOM     24  C   UNL     1       6.515   6.775  17.124  0.00  0.00    +0.000 A 
ATOM     25  C   UNL     1       7.379   6.115  17.990  0.00  0.00    +0.000 A 
ATOM     26  C   UNL     1       6.863   5.400  19.066  0.00  0.00    +0.000 A 
ATOM     27  C   UNL     1       5.481   5.368  19.294  0.00  0.00    +0.000 A 
ENDBRANCH  21  22
BRANCH  21  28
ATOM     28  C   UNL     1       2.461   4.704  18.723  0.00  0.00    +0.000 A 
ATOM     29  C   UNL     1       2.658   3.722  17.731  0.00  0.00    +0.000 A 
ATOM     30  C   UNL     1       2.088   2.451  17.843  0.00  0.00    +0.000 A 
ATOM     31  C   UNL     1       1.266   2.149  18.924  0.00  0.00    +0.000 A 
ATOM     32  C   UNL     1       1.018   3.117  19.894  0.00  0.00    +0.000 A 
ATOM     33  C   UNL     1       1.620   4.377  19.802  0.00  0.00    +0.000 A 
ENDBRANCH  21  28
ENDBRANCH   4  21
TORSDOF 7
ENDMDL
MODEL 6
REMARK VINA RESULT:      -8.9      0.947      3.384
REMARK  Name = 
REMARK  7 active torsions:
REMARK  status: ('A' for Active; 'I' for Inactive)
REMARK    1  A    between atoms: C_2  and  O_3
REMARK    2  A    between atoms: C_2  and  C_4
REMARK    3  A    between atoms: C_7  and  C_8
REMARK    4  A    between atoms: C_11  and  C_12
REMARK    5  A    between atoms: C_15  and  N_16
REMARK    6  A    between atoms: N_16  and  C_17
REMARK    7  A    between atoms: N_16  and  C_23
REMARK                            x       y       z     vdW  Elec       q    Type
REMARK                         _______ _______ _______ _____ _____    ______ ____
ROOT
ATOM      1  C   UNL     1       1.227   9.217  19.491  0.00  0.00    +0.000 A 
ATOM      2  C   UNL     1       1.696   9.053  18.181  0.00  0.00    +0.000 A 
ATOM      3  C   UNL     1       2.425   7.909  17.811  0.00  0.00    +0.000 A 
ATOM      4  C   UNL     1       2.686   6.874  18.726  0.00  0.00    +0.000 A 
ATOM      5  C   UNL     1       2.197   7.042  20.033  0.00  0.00    +0.000 A 
ATOM      6  C   UNL     1       1.494   8.197  20.410  0.00  0.00    +0.000 A 
ENDROOT
BRANCH   1  10
ATOM      7  C   UNL     1      -1.004  12.049  21.080  0.00  0.00    +0.000 A 
ATOM      8  C   UNL     1      -0.655  12.480  19.814  0.00  0.00    +0.000 A 
ATOM      9  C   UNL     1       0.175  11.547  19.125  0.00  0.00    +0.000 A 
ATOM     10  C   UNL     1       0.443  10.410  19.866  0.00  0.00    +0.000 A 
ATOM     11  S   UNL     1      -0.278  10.533  21.420  0.00  0.00    +0.000 S 
BRANCH   7  15
ATOM     12  C   UNL     1      -2.746  14.109  23.901  0.00  0.00    +0.000 A 
ATOM     13  C   UNL     1      -3.740  13.442  23.212  0.00  0.00    +0.000 A 
ATOM     14  C   UNL     1      -3.229  12.649  22.146  0.00  0.00    +0.000 A 
ATOM     15  C   UNL     1      -1.851  12.712  22.046  0.00  0.00    +0.000 A 
ATOM     16  S   UNL     1      -1.203  13.745  23.255  0.00  0.00    +0.000 S 
BRANCH  12  18
ATOM     17  O   UNL     1      -2.079  15.244  25.882  0.00  0.00    +0.000 OA
ATOM     18  C   UNL     1      -2.929  15.002  25.035  0.00  0.00    +0.000 C 
BRANCH  18  19
ATOM     19  O   UNL     1      -4.163  15.560  25.085  0.00  0.00    +0.000 OA
ATOM     20  H   UNL     1      -4.448  15.888  24.211  0.00  0.00    +0.000 HD
ENDBRANCH  18  19
ENDBRANCH  12  18
ENDBRANCH   7  15
ENDBRANCH   1  10
BRANCH   4  21
ATOM     21  N   UNL     1       3.416   5.681  18.338  0.00  0.00    +0.000 N 
BRANCH  21  22
ATOM     22  C   UNL     1       2.876   4.356  18.615  0.00  0.00    +0.000 A 
ATOM     23  C   UNL     1       1.538   4.034  18.307  0.00  0.00    +0.000 A 
ATOM     24  C   UNL     1       1.022   2.753  18.526  0.00  0.00    +0.000 A 
ATOM     25  C   UNL     1       1.818   1.775  19.109  0.00  0.00    +0.000 A 
ATOM     26  C   UNL     1       3.133   2.071  19.453  0.00  0.00    +0.000 A 
ATOM     27  C   UNL     1       3.662   3.341  19.189  0.00  0.00    +0.000 A 
ENDBRANCH  21  22
BRANCH  21  28
ATOM     28  C   UNL     1       4.663   5.797  17.600  0.00  0.00    +0.000 A 
ATOM     29  C   UNL     1       5.829   6.295  18.216  0.00  0.00    +0.000 A 
ATOM     30  C   UNL     1       7.055   6.313  17.546  0.00  0.00    +0.000 A 
ATOM     31  C   UNL     1       7.132   5.882  16.226  0.00  0.00    +0.000 A 
ATOM     32  C   UNL     1       5.985   5.429  15.579  0.00  0.00    +0.000 A 
ATOM     33  C   UNL     1       4.766   5.374  16.263  0.00  0.00    +0.000 A 
ENDBRANCH  21  28
ENDBRANCH   4  21
TORSDOF 7
ENDMDL
MODEL 7
REMARK VINA RESULT:      -8.9      0.798      1.146
REMARK  Name = 
REMARK  7 active torsions:
REMARK  status: ('A' for Active; 'I' for Inactive)
REMARK    1  A    between atoms: C_2  and  O_3
REMARK    2  A    between atoms: C_2  and  C_4
REMARK    3  A    between atoms: C_7  and  C_8
REMARK    4  A    between atoms: C_11  and  C_12
REMARK    5  A    between atoms: C_15  and  N_16
REMARK    6  A    between atoms: N_16  and  C_17
REMARK    7  A    between atoms: N_16  and  C_23
REMARK                            x       y       z     vdW  Elec       q    Type
REMARK                         _______ _______ _______ _____ _____    ______ ____
ROOT
ATOM      1  C   UNL     1       0.957   9.534  19.604  0.00  0.00    +0.000 A 
ATOM      2  C   UNL     1       1.356   9.259  18.289  0.00  0.00    +0.000 A 
ATOM      3  C   UNL     1       2.094   8.101  17.984  0.00  0.00    +0.000 A 
ATOM      4  C   UNL     1       2.433   7.163  18.974  0.00  0.00    +0.000 A 
ATOM      5  C   UNL     1       2.013   7.442  20.287  0.00  0.00    +0.000 A 
ATOM      6  C   UNL     1       1.301   8.612  20.596  0.00  0.00    +0.000 A 
ENDROOT
BRANCH   1  10
ATOM      7  C   UNL     1      -1.160  12.512  21.081  0.00  0.00    +0.000 A 
ATOM      8  C   UNL     1      -1.089  12.712  19.716  0.00  0.00    +0.000 A 
ATOM      9  C   UNL     1      -0.328  11.706  19.050  0.00  0.00    +0.000 A 
ATOM     10  C   UNL     1       0.163  10.740  19.911  0.00  0.00    +0.000 A 
ATOM     11  S   UNL     1      -0.264  11.120  21.531  0.00  0.00    +0.000 S 
BRANCH   7  15
ATOM     12  C   UNL     1      -3.587  14.505  23.399  0.00  0.00    +0.000 A 
ATOM     13  C   UNL     1      -2.325  14.605  23.950  0.00  0.00    +0.000 A 
ATOM     14  C   UNL     1      -1.340  13.911  23.191  0.00  0.00    +0.000 A 
ATOM     15  C   UNL     1      -1.863  13.304  22.065  0.00  0.00    +0.000 A 
ATOM     16  S   UNL     1      -3.553  13.586  21.955  0.00  0.00    +0.000 S 
BRANCH  12  18
ATOM     17  O   UNL     1      -5.936  14.864  23.500  0.00  0.00    +0.000 OA
ATOM     18  C   UNL     1      -4.810  15.089  23.926  0.00  0.00    +0.000 C 
BRANCH  18  19
ATOM     19  O   UNL     1      -4.597  15.938  24.961  0.00  0.00    +0.000 OA
ATOM     20  H   UNL     1      -3.646  16.091  25.114  0.00  0.00    +0.000 HD
ENDBRANCH  18  19
ENDBRANCH  12  18
ENDBRANCH   7  15
ENDBRANCH   1  10
BRANCH   4  21
ATOM     21  N   UNL     1       3.172   5.954  18.657  0.00  0.00    +0.000 N 
BRANCH  21  22
ATOM     22  C   UNL     1       4.610   6.003  18.420  0.00  0.00    +0.000 A 
ATOM     23  C   UNL     1       5.520   5.428  19.331  0.00  0.00    +0.000 A 
ATOM     24  C   UNL     1       6.897   5.429  19.091  0.00  0.00    +0.000 A 
ATOM     25  C   UNL     1       7.404   6.052  17.956  0.00  0.00    +0.000 A 
ATOM     26  C   UNL     1       6.533   6.656  17.055  0.00  0.00    +0.000 A 
ATOM     27  C   UNL     1       5.151   6.613  17.273  0.00  0.00    +0.000 A 
ENDBRANCH  21  22
BRANCH  21  28
ATOM     28  C   UNL     1       2.496   4.668  18.646  0.00  0.00    +0.000 A 
ATOM     29  C   UNL     1       2.804   3.693  17.676  0.00  0.00    +0.000 A 
ATOM     30  C   UNL     1       2.235   2.417  17.721  0.00  0.00    +0.000 A 
ATOM     31  C   UNL     1       1.304   2.105  18.706  0.00  0.00    +0.000 A 
ATOM     32  C   UNL     1       0.948   3.066  19.649  0.00  0.00    +0.000 A 
ATOM     33  C   UNL     1       1.548   4.330  19.629  0.00  0.00    +0.000 A 
ENDBRANCH  21  28
ENDBRANCH   4  21
TORSDOF 7
ENDMDL
MODEL 8
REMARK VINA RESULT:      -8.9      1.415      1.629
REMARK  Name = 
REMARK  7 active torsions:
REMARK  status: ('A' for Active; 'I' for Inactive)
REMARK    1  A    between atoms: C_2  and  O_3
REMARK    2  A    between atoms: C_2  and  C_4
REMARK    3  A    between atoms: C_7  and  C_8
REMARK    4  A    between atoms: C_11  and  C_12
REMARK    5  A    between atoms: C_15  and  N_16
REMARK    6  A    between atoms: N_16  and  C_17
REMARK    7  A    between atoms: N_16  and  C_23
REMARK                            x       y       z     vdW  Elec       q    Type
REMARK                         _______ _______ _______ _____ _____    ______ ____
ROOT
ATOM      1  C   UNL     1       1.542   9.181  19.230  0.00  0.00    +0.000 A 
ATOM      2  C   UNL     1       2.007   9.011  17.919  0.00  0.00    +0.000 A 
ATOM      3  C   UNL     1       2.663   7.828  17.532  0.00  0.00    +0.000 A 
ATOM      4  C   UNL     1       2.849   6.762  18.429  0.00  0.00    +0.000 A 
ATOM      5  C   UNL     1       2.363   6.938  19.736  0.00  0.00    +0.000 A 
ATOM      6  C   UNL     1       1.735   8.130  20.131  0.00  0.00    +0.000 A 
ENDROOT
BRANCH   1  10
ATOM      7  C   UNL     1      -0.784  12.046  20.611  0.00  0.00    +0.000 A 
ATOM      8  C   UNL     1       0.163  12.654  19.809  0.00  0.00    +0.000 A 
ATOM      9  C   UNL     1       1.090  11.724  19.251  0.00  0.00    +0.000 A 
ATOM     10  C   UNL     1       0.835  10.416  19.623  0.00  0.00    +0.000 A 
ATOM     11  S   UNL     1      -0.500  10.357  20.702  0.00  0.00    +0.000 S 
BRANCH   7  15
ATOM     12  C   UNL     1      -3.651  13.269  22.961  0.00  0.00    +0.000 A 
ATOM     13  C   UNL     1      -3.628  14.118  21.872  0.00  0.00    +0.000 A 
ATOM     14  C   UNL     1      -2.614  13.776  20.932  0.00  0.00    +0.000 A 
ATOM     15  C   UNL     1      -1.888  12.662  21.312  0.00  0.00    +0.000 A 
ATOM     16  S   UNL     1      -2.453  12.055  22.816  0.00  0.00    +0.000 S 
BRANCH  12  18
ATOM     17  O   UNL     1      -5.079  12.381  24.643  0.00  0.00    +0.000 OA
ATOM     18  C   UNL     1      -4.555  13.344  24.097  0.00  0.00    +0.000 C 
BRANCH  18  19
ATOM     19  O   UNL     1      -4.787  14.612  24.517  0.00  0.00    +0.000 OA
ATOM     20  H   UNL     1      -5.706  14.731  24.821  0.00  0.00    +0.000 HD
ENDBRANCH  18  19
ENDBRANCH  12  18
ENDBRANCH   7  15
ENDBRANCH   1  10
BRANCH   4  21
ATOM     21  N   UNL     1       3.502   5.531  18.023  0.00  0.00    +0.000 N 
BRANCH  21  22
ATOM     22  C   UNL     1       4.752   5.565  17.274  0.00  0.00    +0.000 A 
ATOM     23  C   UNL     1       5.870   6.282  17.750  0.00  0.00    +0.000 A 
ATOM     24  C   UNL     1       7.087   6.284  17.063  0.00  0.00    +0.000 A 
ATOM     25  C   UNL     1       7.203   5.609  15.854  0.00  0.00    +0.000 A 
ATOM     26  C   UNL     1       6.109   4.918  15.343  0.00  0.00    +0.000 A 
ATOM     27  C   UNL     1       4.904   4.878  16.056  0.00  0.00    +0.000 A 
ENDBRANCH  21  22
BRANCH  21  28
ATOM     28  C   UNL     1       2.952   4.247  18.426  0.00  0.00    +0.000 A 
ATOM     29  C   UNL     1       3.675   3.379  19.269  0.00  0.00    +0.000 A 
ATOM     30  C   UNL     1       3.113   2.192  19.745  0.00  0.00    +0.000 A 
ATOM     31  C   UNL     1       1.833   1.819  19.346  0.00  0.00    +0.000 A 
ATOM     32  C   UNL     1       1.115   2.637  18.477  0.00  0.00    +0.000 A 
ATOM     33  C   UNL     1       1.663   3.845  18.033  0.00  0.00    +0.000 A 
ENDBRANCH  21  28
ENDBRANCH   4  21
TORSDOF 7
ENDMDL
MODEL 9
REMARK VINA RESULT:      -8.9      0.122      1.022
REMARK  Name = 
REMARK  7 active torsions:
REMARK  status: ('A' for Active; 'I' for Inactive)
REMARK    1  A    between atoms: C_2  and  O_3
REMARK    2  A    between atoms: C_2  and  C_4
REMARK    3  A    between atoms: C_7  and  C_8
REMARK    4  A    between atoms: C_11  and  C_12
REMARK    5  A    between atoms: C_15  and  N_16
REMARK    6  A    between atoms: N_16  and  C_17
REMARK    7  A    between atoms: N_16  and  C_23
REMARK                            x       y       z     vdW  Elec       q    Type
REMARK                         _______ _______ _______ _____ _____    ______ ____
ROOT
ATOM      1  C   UNL     1       0.941   9.596  19.459  0.00  0.00    +0.000 A 
ATOM      2  C   UNL     1       1.378   9.299  18.162  0.00  0.00    +0.000 A 
ATOM      3  C   UNL     1       2.121   8.134  17.897  0.00  0.00    +0.000 A 
ATOM      4  C   UNL     1       2.426   7.210  18.911  0.00  0.00    +0.000 A 
ATOM      5  C   UNL     1       1.968   7.510  20.205  0.00  0.00    +0.000 A 
ATOM      6  C   UNL     1       1.252   8.687  20.475  0.00  0.00    +0.000 A 
ENDROOT
BRANCH   1  10
ATOM      7  C   UNL     1      -1.275  12.563  20.806  0.00  0.00    +0.000 A 
ATOM      8  C   UNL     1      -1.025  12.825  19.473  0.00  0.00    +0.000 A 
ATOM      9  C   UNL     1      -0.211  11.829  18.859  0.00  0.00    +0.000 A 
ATOM     10  C   UNL     1       0.143  10.810  19.725  0.00  0.00    +0.000 A 
ATOM     11  S   UNL     1      -0.477  11.125  21.295  0.00  0.00    +0.000 S 
BRANCH   7  15
ATOM     12  C   UNL     1      -2.905  14.669  23.660  0.00  0.00    +0.000 A 
ATOM     13  C   UNL     1      -3.870  14.484  22.689  0.00  0.00    +0.000 A 
ATOM     14  C   UNL     1      -3.395  13.724  21.582  0.00  0.00    +0.000 A 
ATOM     15  C   UNL     1      -2.078  13.329  21.732  0.00  0.00    +0.000 A 
ATOM     16  S   UNL     1      -1.441  13.899  23.222  0.00  0.00    +0.000 S 
BRANCH  12  18
ATOM     17  O   UNL     1      -3.937  16.227  25.130  0.00  0.00    +0.000 OA
ATOM     18  C   UNL     1      -3.062  15.401  24.907  0.00  0.00    +0.000 C 
BRANCH  18  19
ATOM     19  O   UNL     1      -2.124  15.089  25.834  0.00  0.00    +0.000 OA
ATOM     20  H   UNL     1      -2.377  14.304  26.355  0.00  0.00    +0.000 HD
ENDBRANCH  18  19
ENDBRANCH  12  18
ENDBRANCH   7  15
ENDBRANCH   1  10
BRANCH   4  21
ATOM     21  N   UNL     1       3.169   5.994  18.634  0.00  0.00    +0.000 N 
BRANCH  21  22
ATOM     22  C   UNL     1       4.609   6.038  18.411  0.00  0.00    +0.000 A 
ATOM     23  C   UNL     1       5.156   6.709  17.298  0.00  0.00    +0.000 A 
ATOM     24  C   UNL     1       6.537   6.796  17.099  0.00  0.00    +0.000 A 
ATOM     25  C   UNL     1       7.406   6.170  17.984  0.00  0.00    +0.000 A 
ATOM     26  C   UNL     1       6.896   5.474  19.075  0.00  0.00    +0.000 A 
ATOM     27  C   UNL     1       5.514   5.427  19.298  0.00  0.00    +0.000 A 
ENDBRANCH  21  22
BRANCH  21  28
ATOM     28  C   UNL     1       2.494   4.707  18.650  0.00  0.00    +0.000 A 
ATOM     29  C   UNL     1       2.764   3.732  17.669  0.00  0.00    +0.000 A 
ATOM     30  C   UNL     1       2.197   2.456  17.736  0.00  0.00    +0.000 A 
ATOM     31  C   UNL     1       1.306   2.144  18.757  0.00  0.00    +0.000 A 
ATOM     32  C   UNL     1       0.987   3.104  19.714  0.00  0.00    +0.000 A 
ATOM     33  C   UNL     1       1.585   4.368  19.669  0.00  0.00    +0.000 A 
ENDBRANCH  21  28
ENDBRANCH   4  21
TORSDOF 7
ENDMDL
