MODEL 1
REMARK VINA RESULT:      -8.7      0.000      0.000
REMARK  Name = 
REMARK  4 active torsions:
REMARK  status: ('A' for Active; 'I' for Inactive)
REMARK    1  A    between atoms: C_1  and  C_2
REMARK    2  A    between atoms: C_5  and  C_6
REMARK    3  A    between atoms: C_9  and  C_10
REMARK    4  A    between atoms: C_17  and  C_19
REMARK                            x       y       z     vdW  Elec       q    Type
REMARK                         _______ _______ _______ _____ _____    ______ ____
ROOT
ATOM      1  C   UNL     1       6.148   5.398  17.355  0.00  0.00    +0.000 C 
ATOM      2  O   UNL     1       6.447   4.807  16.308  0.00  0.00    +0.000 OA
ATOM      3  N   UNL     1       5.105   4.940  18.176  0.00  0.00    +0.000 N 
ATOM      4  C   UNL     1       4.413   5.685  19.237  0.00  0.00    +0.000 C 
ATOM      5  C   UNL     1       3.233   6.527  18.770  0.00  0.00    +0.000 C 
ATOM      6  C   UNL     1       2.091   5.798  18.065  0.00  0.00    +0.000 C 
ATOM      7  N   UNL     1       2.136   4.343  18.153  0.00  0.00    +0.000 N 
ATOM      8  C   UNL     1       1.462   3.724  19.220  0.00  0.00    +0.000 C 
ATOM      9  O   UNL     1       0.845   4.429  20.034  0.00  0.00    +0.000 OA
ATOM     10  C   UNL     1       3.110   3.700  17.256  0.00  0.00    +0.000 C 
ATOM     11  C   UNL     1       4.523   3.623  17.855  0.00  0.00    +0.000 C 
ENDROOT
BRANCH   1  15
ATOM     12  C   UNL     1       8.527   8.856  18.470  0.00  0.00    +0.000 A 
ATOM     13  C   UNL     1       8.669   7.629  19.130  0.00  0.00    +0.000 A 
ATOM     14  C   UNL     1       7.909   6.512  18.740  0.00  0.00    +0.000 A 
ATOM     15  C   UNL     1       6.974   6.601  17.695  0.00  0.00    +0.000 A 
ATOM     16  C   UNL     1       6.770   7.850  17.111  0.00  0.00    +0.000 A 
ATOM     17  C   UNL     1       7.581   8.939  17.441  0.00  0.00    +0.000 A 
BRANCH  12  22
ATOM     18  C   UNL     1      10.836  12.923  17.451  0.00  0.00    +0.000 C 
ATOM     19  C   UNL     1      10.305  11.934  18.410  0.00  0.00    +0.000 A 
ATOM     20  C   UNL     1      10.215  11.878  19.783  0.00  0.00    +0.000 A 
ATOM     21  C   UNL     1       9.554  10.658  20.089  0.00  0.00    +0.000 A 
ATOM     22  C   UNL     1       9.259  10.051  18.884  0.00  0.00    +0.000 A 
ATOM     23  O   UNL     1       9.746  10.823  17.865  0.00  0.00    +0.000 OA
ENDBRANCH  12  22
ENDBRANCH   1  15
BRANCH   8  24
ATOM     24  C   UNL     1       1.447   2.178  19.385  0.00  0.00    +0.000 C 
ATOM     25  F   UNL     1       2.576   1.533  18.984  0.00  0.00    +0.000 F 
ATOM     26  F   UNL     1       1.270   1.815  20.689  0.00  0.00    +0.000 F 
ATOM     27  F   UNL     1       0.422   1.605  18.690  0.00  0.00    +0.000 F 
ENDBRANCH   8  24
TORSDOF 3
ENDMDL
MODEL 2
REMARK VINA RESULT:      -8.5      0.877      1.206
REMARK  Name = 
REMARK  4 active torsions:
REMARK  status: ('A' for Active; 'I' for Inactive)
REMARK    1  A    between atoms: C_1  and  C_2
REMARK    2  A    between atoms: C_5  and  C_6
REMARK    3  A    between atoms: C_9  and  C_10
REMARK    4  A    between atoms: C_17  and  C_19
REMARK                            x       y       z     vdW  Elec       q    Type
REMARK                         _______ _______ _______ _____ _____    ______ ____
ROOT
ATOM      1  C   UNL     1       6.426   5.323  17.951  0.00  0.00    +0.000 C 
ATOM      2  O   UNL     1       6.902   4.480  17.179  0.00  0.00    +0.000 OA
ATOM      3  N   UNL     1       5.307   5.030  18.748  0.00  0.00    +0.000 N 
ATOM      4  C   UNL     1       4.431   5.985  19.440  0.00  0.00    +0.000 C 
ATOM      5  C   UNL     1       3.281   6.529  18.603  0.00  0.00    +0.000 C 
ATOM      6  C   UNL     1       2.294   5.515  18.031  0.00  0.00    +0.000 C 
ATOM      7  N   UNL     1       2.411   4.164  18.569  0.00  0.00    +0.000 N 
ATOM      8  C   UNL     1       1.631   3.828  19.689  0.00  0.00    +0.000 C 
ATOM      9  O   UNL     1       0.866   4.679  20.169  0.00  0.00    +0.000 OA
ATOM     10  C   UNL     1       3.537   3.382  18.032  0.00  0.00    +0.000 C 
ATOM     11  C   UNL     1       4.854   3.627  18.783  0.00  0.00    +0.000 C 
ENDROOT
BRANCH   1  15
ATOM     12  C   UNL     1       8.452   9.155  18.215  0.00  0.00    +0.000 A 
ATOM     13  C   UNL     1       8.814   8.081  19.037  0.00  0.00    +0.000 A 
ATOM     14  C   UNL     1       8.165   6.838  18.921  0.00  0.00    +0.000 A 
ATOM     15  C   UNL     1       7.124   6.648  17.997  0.00  0.00    +0.000 A 
ATOM     16  C   UNL     1       6.706   7.751  17.255  0.00  0.00    +0.000 A 
ATOM     17  C   UNL     1       7.402   8.961  17.309  0.00  0.00    +0.000 A 
BRANCH  12  22
ATOM     18  C   UNL     1      11.886  12.036  19.893  0.00  0.00    +0.000 C 
ATOM     19  C   UNL     1      10.661  11.795  19.105  0.00  0.00    +0.000 A 
ATOM     20  C   UNL     1       9.890  12.566  18.265  0.00  0.00    +0.000 A 
ATOM     21  C   UNL     1       8.854  11.720  17.786  0.00  0.00    +0.000 A 
ATOM     22  C   UNL     1       9.065  10.475  18.346  0.00  0.00    +0.000 A 
ATOM     23  O   UNL     1      10.154  10.537  19.172  0.00  0.00    +0.000 OA
ENDBRANCH  12  22
ENDBRANCH   1  15
BRANCH   8  24
ATOM     24  C   UNL     1       1.684   2.407  20.319  0.00  0.00    +0.000 C 
ATOM     25  F   UNL     1       1.422   1.377  19.470  0.00  0.00    +0.000 F 
ATOM     26  F   UNL     1       2.917   2.137  20.841  0.00  0.00    +0.000 F 
ATOM     27  F   UNL     1       0.801   2.278  21.350  0.00  0.00    +0.000 F 
ENDBRANCH   8  24
TORSDOF 3
ENDMDL
MODEL 3
REMARK VINA RESULT:      -8.4      0.643      1.105
REMARK  Name = 
REMARK  4 active torsions:
REMARK  status: ('A' for Active; 'I' for Inactive)
REMARK    1  A    between atoms: C_1  and  C_2
REMARK    2  A    between atoms: C_5  and  C_6
REMARK    3  A    between atoms: C_9  and  C_10
REMARK    4  A    between atoms: C_17  and  C_19
REMARK                            x       y       z     vdW  Elec       q    Type
REMARK                         _______ _______ _______ _____ _____    ______ ____
ROOT
ATOM      1  C   UNL     1       6.250   5.338  17.461  0.00  0.00    +0.000 C 
ATOM      2  O   UNL     1       6.617   4.666  16.487  0.00  0.00    +0.000 OA
ATOM      3  N   UNL     1       5.180   4.923  18.270  0.00  0.00    +0.000 N 
ATOM      4  C   UNL     1       4.416   5.738  19.225  0.00  0.00    +0.000 C 
ATOM      5  C   UNL     1       3.240   6.499  18.628  0.00  0.00    +0.000 C 
ATOM      6  C   UNL     1       2.154   5.676  17.938  0.00  0.00    +0.000 C 
ATOM      7  N   UNL     1       2.232   4.236  18.160  0.00  0.00    +0.000 N 
ATOM      8  C   UNL     1       1.522   3.694  19.244  0.00  0.00    +0.000 C 
ATOM      9  O   UNL     1       0.846   4.450  19.961  0.00  0.00    +0.000 OA
ATOM     10  C   UNL     1       3.267   3.546  17.372  0.00  0.00    +0.000 C 
ATOM     11  C   UNL     1       4.649   3.566  18.041  0.00  0.00    +0.000 C 
ENDROOT
BRANCH   1  15
ATOM     12  C   UNL     1       8.490   8.945  18.372  0.00  0.00    +0.000 A 
ATOM     13  C   UNL     1       8.706   7.756  19.078  0.00  0.00    +0.000 A 
ATOM     14  C   UNL     1       7.990   6.589  18.753  0.00  0.00    +0.000 A 
ATOM     15  C   UNL     1       7.026   6.591  17.731  0.00  0.00    +0.000 A 
ATOM     16  C   UNL     1       6.750   7.803  17.102  0.00  0.00    +0.000 A 
ATOM     17  C   UNL     1       7.516   8.941  17.366  0.00  0.00    +0.000 A 
BRANCH  12  22
ATOM     18  C   UNL     1       9.849  12.234  21.573  0.00  0.00    +0.000 C 
ATOM     19  C   UNL     1       9.814  11.693  20.200  0.00  0.00    +0.000 A 
ATOM     20  C   UNL     1      10.419  12.040  19.013  0.00  0.00    +0.000 A 
ATOM     21  C   UNL     1       9.996  11.080  18.054  0.00  0.00    +0.000 A 
ATOM     22  C   UNL     1       9.174  10.190  18.718  0.00  0.00    +0.000 A 
ATOM     23  O   UNL     1       9.046  10.587  20.020  0.00  0.00    +0.000 OA
ENDBRANCH  12  22
ENDBRANCH   1  15
BRANCH   8  24
ATOM     24  C   UNL     1       1.539   2.169  19.547  0.00  0.00    +0.000 C 
ATOM     25  F   UNL     1       2.667   1.507  19.169  0.00  0.00    +0.000 F 
ATOM     26  F   UNL     1       1.409   1.923  20.883  0.00  0.00    +0.000 F 
ATOM     27  F   UNL     1       0.503   1.522  18.940  0.00  0.00    +0.000 F 
ENDBRANCH   8  24
TORSDOF 3
ENDMDL
MODEL 4
REMARK VINA RESULT:      -8.1      1.064      1.262
REMARK  Name = 
REMARK  4 active torsions:
REMARK  status: ('A' for Active; 'I' for Inactive)
REMARK    1  A    between atoms: C_1  and  C_2
REMARK    2  A    between atoms: C_5  and  C_6
REMARK    3  A    between atoms: C_9  and  C_10
REMARK    4  A    between atoms: C_17  and  C_19
REMARK                            x       y       z     vdW  Elec       q    Type
REMARK                         _______ _______ _______ _____ _____    ______ ____
ROOT
ATOM      1  C   UNL     1       6.418   5.243  18.065  0.00  0.00    +0.000 C 
ATOM      2  O   UNL     1       6.912   4.356  17.355  0.00  0.00    +0.000 OA
ATOM      3  N   UNL     1       5.292   4.991  18.866  0.00  0.00    +0.000 N 
ATOM      4  C   UNL     1       4.398   5.980  19.484  0.00  0.00    +0.000 C 
ATOM      5  C   UNL     1       3.253   6.456  18.600  0.00  0.00    +0.000 C 
ATOM      6  C   UNL     1       2.283   5.396  18.083  0.00  0.00    +0.000 C 
ATOM      7  N   UNL     1       2.407   4.084  18.709  0.00  0.00    +0.000 N 
ATOM      8  C   UNL     1       1.617   3.814  19.840  0.00  0.00    +0.000 C 
ATOM      9  O   UNL     1       0.838   4.687  20.254  0.00  0.00    +0.000 OA
ATOM     10  C   UNL     1       3.547   3.281  18.238  0.00  0.00    +0.000 C 
ATOM     11  C   UNL     1       4.852   3.588  18.987  0.00  0.00    +0.000 C 
ENDROOT
BRANCH   1  15
ATOM     12  C   UNL     1       8.406   9.104  18.102  0.00  0.00    +0.000 A 
ATOM     13  C   UNL     1       8.789   8.078  18.975  0.00  0.00    +0.000 A 
ATOM     14  C   UNL     1       8.152   6.825  18.933  0.00  0.00    +0.000 A 
ATOM     15  C   UNL     1       7.102   6.576  18.032  0.00  0.00    +0.000 A 
ATOM     16  C   UNL     1       6.665   7.633  17.237  0.00  0.00    +0.000 A 
ATOM     17  C   UNL     1       7.348   8.851  17.220  0.00  0.00    +0.000 A 
BRANCH  12  22
ATOM     18  C   UNL     1       8.093  13.865  17.723  0.00  0.00    +0.000 C 
ATOM     19  C   UNL     1       8.853  12.630  17.999  0.00  0.00    +0.000 A 
ATOM     20  C   UNL     1      10.126  12.364  18.451  0.00  0.00    +0.000 A 
ATOM     21  C   UNL     1      10.230  10.950  18.539  0.00  0.00    +0.000 A 
ATOM     22  C   UNL     1       9.007  10.435  18.156  0.00  0.00    +0.000 A 
ATOM     23  O   UNL     1       8.181  11.466  17.800  0.00  0.00    +0.000 OA
ENDBRANCH  12  22
ENDBRANCH   1  15
BRANCH   8  24
ATOM     24  C   UNL     1       1.676   2.438  20.562  0.00  0.00    +0.000 C 
ATOM     25  F   UNL     1       1.445   1.351  19.776  0.00  0.00    +0.000 F 
ATOM     26  F   UNL     1       2.901   2.221  21.124  0.00  0.00    +0.000 F 
ATOM     27  F   UNL     1       0.772   2.363  21.581  0.00  0.00    +0.000 F 
ENDBRANCH   8  24
TORSDOF 3
ENDMDL
MODEL 5
REMARK VINA RESULT:      -8.1      0.608      1.585
REMARK  Name = 
REMARK  4 active torsions:
REMARK  status: ('A' for Active; 'I' for Inactive)
REMARK    1  A    between atoms: C_1  and  C_2
REMARK    2  A    between atoms: C_5  and  C_6
REMARK    3  A    between atoms: C_9  and  C_10
REMARK    4  A    between atoms: C_17  and  C_19
REMARK                            x       y       z     vdW  Elec       q    Type
REMARK                         _______ _______ _______ _____ _____    ______ ____
ROOT
ATOM      1  C   UNL     1       6.256   5.511  17.466  0.00  0.00    +0.000 C 
ATOM      2  O   UNL     1       6.620   4.916  16.443  0.00  0.00    +0.000 OA
ATOM      3  N   UNL     1       5.202   5.024  18.256  0.00  0.00    +0.000 N 
ATOM      4  C   UNL     1       4.439   5.757  19.275  0.00  0.00    +0.000 C 
ATOM      5  C   UNL     1       3.245   6.543  18.748  0.00  0.00    +0.000 C 
ATOM      6  C   UNL     1       2.162   5.757  18.013  0.00  0.00    +0.000 C 
ATOM      7  N   UNL     1       2.262   4.306  18.129  0.00  0.00    +0.000 N 
ATOM      8  C   UNL     1       1.571   3.678  19.180  0.00  0.00    +0.000 C 
ATOM      9  O   UNL     1       0.895   4.371  19.957  0.00  0.00    +0.000 OA
ATOM     10  C   UNL     1       3.296   3.689  17.282  0.00  0.00    +0.000 C 
ATOM     11  C   UNL     1       4.685   3.680  17.935  0.00  0.00    +0.000 C 
ENDROOT
BRANCH   1  15
ATOM     12  C   UNL     1       8.475   9.136  18.356  0.00  0.00    +0.000 A 
ATOM     13  C   UNL     1       7.482   9.113  17.369  0.00  0.00    +0.000 A 
ATOM     14  C   UNL     1       6.754   7.937  17.111  0.00  0.00    +0.000 A 
ATOM     15  C   UNL     1       7.019   6.752  17.817  0.00  0.00    +0.000 A 
ATOM     16  C   UNL     1       8.075   6.760  18.726  0.00  0.00    +0.000 A 
ATOM     17  C   UNL     1       8.743   7.946  19.043  0.00  0.00    +0.000 A 
BRANCH  12  22
ATOM     18  C   UNL     1      10.237  12.451  21.325  0.00  0.00    +0.000 C 
ATOM     19  C   UNL     1      10.113  11.837  19.988  0.00  0.00    +0.000 A 
ATOM     20  C   UNL     1      10.718  12.053  18.771  0.00  0.00    +0.000 A 
ATOM     21  C   UNL     1      10.177  11.087  17.880  0.00  0.00    +0.000 A 
ATOM     22  C   UNL     1       9.288  10.323  18.612  0.00  0.00    +0.000 A 
ATOM     23  O   UNL     1       9.234  10.806  19.891  0.00  0.00    +0.000 OA
ENDBRANCH  12  22
ENDBRANCH   1  15
BRANCH   8  24
ATOM     24  C   UNL     1       1.612   2.135  19.371  0.00  0.00    +0.000 C 
ATOM     25  F   UNL     1       1.371   1.693  20.636  0.00  0.00    +0.000 F 
ATOM     26  F   UNL     1       0.684   1.509  18.589  0.00  0.00    +0.000 F 
ATOM     27  F   UNL     1       2.821   1.613  19.016  0.00  0.00    +0.000 F 
ENDBRANCH   8  24
TORSDOF 3
ENDMDL
MODEL 6
REMARK VINA RESULT:      -8.0      0.749      1.473
REMARK  Name = 
REMARK  4 active torsions:
REMARK  status: ('A' for Active; 'I' for Inactive)
REMARK    1  A    between atoms: C_1  and  C_2
REMARK    2  A    between atoms: C_5  and  C_6
REMARK    3  A    between atoms: C_9  and  C_10
REMARK    4  A    between atoms: C_17  and  C_19
REMARK                            x       y       z     vdW  Elec       q    Type
REMARK                         _______ _______ _______ _____ _____    ______ ____
ROOT
ATOM      1  C   UNL     1       6.435   5.512  17.701  0.00  0.00    +0.000 C 
ATOM      2  O   UNL     1       6.896   4.801  16.797  0.00  0.00    +0.000 OA
ATOM      3  N   UNL     1       5.342   5.088  18.474  0.00  0.00    +0.000 N 
ATOM      4  C   UNL     1       4.477   5.916  19.326  0.00  0.00    +0.000 C 
ATOM      5  C   UNL     1       3.300   6.567  18.612  0.00  0.00    +0.000 C 
ATOM      6  C   UNL     1       2.305   5.639  17.919  0.00  0.00    +0.000 C 
ATOM      7  N   UNL     1       2.448   4.223  18.242  0.00  0.00    +0.000 N 
ATOM      8  C   UNL     1       1.704   3.712  19.318  0.00  0.00    +0.000 C 
ATOM      9  O   UNL     1       0.945   4.471  19.942  0.00  0.00    +0.000 OA
ATOM     10  C   UNL     1       3.566   3.546  17.563  0.00  0.00    +0.000 C 
ATOM     11  C   UNL     1       4.901   3.690  18.307  0.00  0.00    +0.000 C 
ENDROOT
BRANCH   1  15
ATOM     12  C   UNL     1       8.428   9.333  18.232  0.00  0.00    +0.000 A 
ATOM     13  C   UNL     1       7.390   9.176  17.306  0.00  0.00    +0.000 A 
ATOM     14  C   UNL     1       6.737   7.937  17.164  0.00  0.00    +0.000 A 
ATOM     15  C   UNL     1       7.123   6.824  17.929  0.00  0.00    +0.000 A 
ATOM     16  C   UNL     1       8.221   6.966  18.775  0.00  0.00    +0.000 A 
ATOM     17  C   UNL     1       8.816   8.213  18.978  0.00  0.00    +0.000 A 
BRANCH  12  22
ATOM     18  C   UNL     1      12.187  11.840  19.812  0.00  0.00    +0.000 C 
ATOM     19  C   UNL     1      10.909  11.735  19.080  0.00  0.00    +0.000 A 
ATOM     20  C   UNL     1      10.173  12.598  18.301  0.00  0.00    +0.000 A 
ATOM     21  C   UNL     1       9.043  11.864  17.852  0.00  0.00    +0.000 A 
ATOM     22  C   UNL     1       9.166  10.588  18.367  0.00  0.00    +0.000 A 
ATOM     23  O   UNL     1      10.293  10.526  19.139  0.00  0.00    +0.000 OA
ENDBRANCH  12  22
ENDBRANCH   1  15
BRANCH   8  24
ATOM     24  C   UNL     1       1.786   2.213  19.724  0.00  0.00    +0.000 C 
ATOM     25  F   UNL     1       1.262   1.332  18.829  0.00  0.00    +0.000 F 
ATOM     26  F   UNL     1       3.079   1.814  19.905  0.00  0.00    +0.000 F 
ATOM     27  F   UNL     1       1.147   1.973  20.905  0.00  0.00    +0.000 F 
ENDBRANCH   8  24
TORSDOF 3
ENDMDL
MODEL 7
REMARK VINA RESULT:      -7.9      0.850      1.184
REMARK  Name = 
REMARK  4 active torsions:
REMARK  status: ('A' for Active; 'I' for Inactive)
REMARK    1  A    between atoms: C_1  and  C_2
REMARK    2  A    between atoms: C_5  and  C_6
REMARK    3  A    between atoms: C_9  and  C_10
REMARK    4  A    between atoms: C_17  and  C_19
REMARK                            x       y       z     vdW  Elec       q    Type
REMARK                         _______ _______ _______ _____ _____    ______ ____
ROOT
ATOM      1  C   UNL     1       6.532   5.984  17.049  0.00  0.00    +0.000 C 
ATOM      2  O   UNL     1       6.775   5.666  15.877  0.00  0.00    +0.000 OA
ATOM      3  N   UNL     1       5.596   5.272  17.816  0.00  0.00    +0.000 N 
ATOM      4  C   UNL     1       4.953   5.704  19.065  0.00  0.00    +0.000 C 
ATOM      5  C   UNL     1       3.686   6.530  18.886  0.00  0.00    +0.000 C 
ATOM      6  C   UNL     1       2.535   5.886  18.116  0.00  0.00    +0.000 C 
ATOM      7  N   UNL     1       2.679   4.455  17.868  0.00  0.00    +0.000 N 
ATOM      8  C   UNL     1       2.141   3.563  18.811  0.00  0.00    +0.000 C 
ATOM      9  O   UNL     1       1.554   4.018  19.805  0.00  0.00    +0.000 OA
ATOM     10  C   UNL     1       3.611   4.109  16.781  0.00  0.00    +0.000 C 
ATOM     11  C   UNL     1       5.072   4.017  17.246  0.00  0.00    +0.000 C 
ENDROOT
BRANCH   1  15
ATOM     12  C   UNL     1       8.756   9.301  18.753  0.00  0.00    +0.000 A 
ATOM     13  C   UNL     1       8.894   7.999  19.251  0.00  0.00    +0.000 A 
ATOM     14  C   UNL     1       8.185   6.931  18.670  0.00  0.00    +0.000 A 
ATOM     15  C   UNL     1       7.306   7.145  17.595  0.00  0.00    +0.000 A 
ATOM     16  C   UNL     1       7.103   8.457  17.173  0.00  0.00    +0.000 A 
ATOM     17  C   UNL     1       7.866   9.506  17.692  0.00  0.00    +0.000 A 
BRANCH  12  22
ATOM     18  C   UNL     1      11.696  13.069  18.490  0.00  0.00    +0.000 C 
ATOM     19  C   UNL     1      10.773  12.190  19.235  0.00  0.00    +0.000 A 
ATOM     20  C   UNL     1      10.228  12.216  20.498  0.00  0.00    +0.000 A 
ATOM     21  C   UNL     1       9.375  11.084  20.588  0.00  0.00    +0.000 A 
ATOM     22  C   UNL     1       9.433  10.443  19.366  0.00  0.00    +0.000 A 
ATOM     23  O   UNL     1      10.311  11.109  18.555  0.00  0.00    +0.000 OA
ENDBRANCH  12  22
ENDBRANCH   1  15
BRANCH   8  24
ATOM     24  C   UNL     1       2.238   2.023  18.620  0.00  0.00    +0.000 C 
ATOM     25  F   UNL     1       1.316   1.287  19.298  0.00  0.00    +0.000 F 
ATOM     26  F   UNL     1       2.086   1.671  17.310  0.00  0.00    +0.000 F 
ATOM     27  F   UNL     1       3.457   1.542  19.002  0.00  0.00    +0.000 F 
ENDBRANCH   8  24
TORSDOF 3
ENDMDL
MODEL 8
REMARK VINA RESULT:      -7.8      0.898      1.394
REMARK  Name = 
REMARK  4 active torsions:
REMARK  status: ('A' for Active; 'I' for Inactive)
REMARK    1  A    between atoms: C_1  and  C_2
REMARK    2  A    between atoms: C_5  and  C_6
REMARK    3  A    between atoms: C_9  and  C_10
REMARK    4  A    between atoms: C_17  and  C_19
REMARK                            x       y       z     vdW  Elec       q    Type
REMARK                         _______ _______ _______ _____ _____    ______ ____
ROOT
ATOM      1  C   UNL     1       6.702   6.047  17.195  0.00  0.00    +0.000 C 
ATOM      2  O   UNL     1       7.056   5.674  16.068  0.00  0.00    +0.000 OA
ATOM      3  N   UNL     1       5.718   5.351  17.916  0.00  0.00    +0.000 N 
ATOM      4  C   UNL     1       4.957   5.832  19.078  0.00  0.00    +0.000 C 
ATOM      5  C   UNL     1       3.692   6.611  18.743  0.00  0.00    +0.000 C 
ATOM      6  C   UNL     1       2.630   5.895  17.912  0.00  0.00    +0.000 C 
ATOM      7  N   UNL     1       2.828   4.457  17.758  0.00  0.00    +0.000 N 
ATOM      8  C   UNL     1       2.229   3.602  18.698  0.00  0.00    +0.000 C 
ATOM      9  O   UNL     1       1.545   4.093  19.611  0.00  0.00    +0.000 OA
ATOM     10  C   UNL     1       3.860   4.079  16.778  0.00  0.00    +0.000 C 
ATOM     11  C   UNL     1       5.276   4.053  17.373  0.00  0.00    +0.000 C 
ENDROOT
BRANCH   1  15
ATOM     12  C   UNL     1       8.740   9.592  18.656  0.00  0.00    +0.000 A 
ATOM     13  C   UNL     1       7.866   9.652  17.564  0.00  0.00    +0.000 A 
ATOM     14  C   UNL     1       7.193   8.499  17.119  0.00  0.00    +0.000 A 
ATOM     15  C   UNL     1       7.398   7.257  17.742  0.00  0.00    +0.000 A 
ATOM     16  C   UNL     1       8.343   7.190  18.763  0.00  0.00    +0.000 A 
ATOM     17  C   UNL     1       8.949   8.346  19.259  0.00  0.00    +0.000 A 
BRANCH  12  22
ATOM     18  C   UNL     1      10.794  13.838  17.840  0.00  0.00    +0.000 C 
ATOM     19  C   UNL     1      10.426  12.722  18.734  0.00  0.00    +0.000 A 
ATOM     20  C   UNL     1      10.533  12.498  20.088  0.00  0.00    +0.000 A 
ATOM     21  C   UNL     1       9.947  11.226  20.329  0.00  0.00    +0.000 A 
ATOM     22  C   UNL     1       9.498  10.757  19.110  0.00  0.00    +0.000 A 
ATOM     23  O   UNL     1       9.819  11.664  18.137  0.00  0.00    +0.000 OA
ENDBRANCH  12  22
ENDBRANCH   1  15
BRANCH   8  24
ATOM     24  C   UNL     1       2.378   2.057  18.603  0.00  0.00    +0.000 C 
ATOM     25  F   UNL     1       2.268   1.532  17.353  0.00  0.00    +0.000 F 
ATOM     26  F   UNL     1       3.597   1.644  19.060  0.00  0.00    +0.000 F 
ATOM     27  F   UNL     1       1.449   1.411  19.365  0.00  0.00    +0.000 F 
ENDBRANCH   8  24
TORSDOF 3
ENDMDL
MODEL 9
REMARK VINA RESULT:      -7.8      4.496      7.234
REMARK  Name = 
REMARK  4 active torsions:
REMARK  status: ('A' for Active; 'I' for Inactive)
REMARK    1  A    between atoms: C_1  and  C_2
REMARK    2  A    between atoms: C_5  and  C_6
REMARK    3  A    between atoms: C_9  and  C_10
REMARK    4  A    between atoms: C_17  and  C_19
REMARK                            x       y       z     vdW  Elec       q    Type
REMARK                         _______ _______ _______ _____ _____    ______ ____
ROOT
ATOM      1  C   UNL     1       2.949   4.967  18.261  0.00  0.00    +0.000 C 
ATOM      2  O   UNL     1       2.615   3.820  18.586  0.00  0.00    +0.000 OA
ATOM      3  N   UNL     1       3.761   5.199  17.139  0.00  0.00    +0.000 N 
ATOM      4  C   UNL     1       4.511   6.421  16.818  0.00  0.00    +0.000 C 
ATOM      5  C   UNL     1       5.901   6.506  17.432  0.00  0.00    +0.000 C 
ATOM      6  C   UNL     1       6.890   5.397  17.077  0.00  0.00    +0.000 C 
ATOM      7  N   UNL     1       6.478   4.526  15.982  0.00  0.00    +0.000 N 
ATOM      8  C   UNL     1       6.872   4.872  14.678  0.00  0.00    +0.000 C 
ATOM      9  O   UNL     1       7.563   5.889  14.506  0.00  0.00    +0.000 OA
ATOM     10  C   UNL     1       5.466   3.519  16.341  0.00  0.00    +0.000 C 
ATOM     11  C   UNL     1       4.028   4.051  16.252  0.00  0.00    +0.000 C 
ENDROOT
BRANCH   1  15
ATOM     12  C   UNL     1       1.310   8.110  20.770  0.00  0.00    +0.000 A 
ATOM     13  C   UNL     1       1.326   6.775  21.192  0.00  0.00    +0.000 A 
ATOM     14  C   UNL     1       1.883   5.772  20.378  0.00  0.00    +0.000 A 
ATOM     15  C   UNL     1       2.417   6.079  19.115  0.00  0.00    +0.000 A 
ATOM     16  C   UNL     1       2.307   7.393  18.665  0.00  0.00    +0.000 A 
ATOM     17  C   UNL     1       1.829   8.403  19.503  0.00  0.00    +0.000 A 
BRANCH  12  22
ATOM     18  C   UNL     1      -0.229  12.613  21.285  0.00  0.00    +0.000 C 
ATOM     19  C   UNL     1      -0.036  11.239  21.790  0.00  0.00    +0.000 A 
ATOM     20  C   UNL     1      -0.426  10.569  22.927  0.00  0.00    +0.000 A 
ATOM     21  C   UNL     1       0.053   9.238  22.789  0.00  0.00    +0.000 A 
ATOM     22  C   UNL     1       0.689   9.168  21.565  0.00  0.00    +0.000 A 
ATOM     23  O   UNL     1       0.655  10.402  20.974  0.00  0.00    +0.000 OA
ENDBRANCH  12  22
ENDBRANCH   1  15
BRANCH   8  24
ATOM     24  C   UNL     1       6.488   3.995  13.453  0.00  0.00    +0.000 C 
ATOM     25  F   UNL     1       6.686   2.657  13.603  0.00  0.00    +0.000 F 
ATOM     26  F   UNL     1       5.167   4.129  13.136  0.00  0.00    +0.000 F 
ATOM     27  F   UNL     1       7.183   4.354  12.336  0.00  0.00    +0.000 F 
ENDBRANCH   8  24
TORSDOF 3
ENDMDL
