MODEL 1
REMARK VINA RESULT:      -7.3      0.000      0.000
REMARK  Name = 
REMARK  12 active torsions:
REMARK  status: ('A' for Active; 'I' for Inactive)
REMARK    1  A    between atoms: C_1  and  C_2
REMARK    2  A    between atoms: C_2  and  O_3
REMARK    3  A    between atoms: O_3  and  C_4
REMARK    4  A    between atoms: C_4  and  C_6
REMARK    5  A    between atoms: C_7  and  C_8
REMARK    6  A    between atoms: C_8  and  S_9
REMARK    7  A    between atoms: S_9  and  C_12
REMARK    8  A    between atoms: C_15  and  O_16
REMARK    9  A    between atoms: O_16  and  C_17
REMARK   10  A    between atoms: C_25  and  C_26
REMARK   11  A    between atoms: C_30  and  O_31
REMARK   12  A    between atoms: O_31  and  C_32
REMARK                            x       y       z     vdW  Elec       q    Type
REMARK                         _______ _______ _______ _____ _____    ______ ____
ROOT
ATOM      1  C   UNL     1       2.025   6.405  19.901  0.00  0.00    +0.000 C 
ATOM      2  C   UNL     1       1.974   7.696  20.310  0.00  0.00    +0.000 C 
ATOM      3  N   UNL     1       2.061   8.675  19.320  0.00  0.00    +0.000 N 
ATOM      4  C   UNL     1       2.024   8.458  17.975  0.00  0.00    +0.000 C 
ATOM      5  O   UNL     1       1.986   9.372  17.164  0.00  0.00    +0.000 OA
ATOM      6  N   UNL     1       1.996   7.159  17.592  0.00  0.00    +0.000 N 
ATOM      7  C   UNL     1       2.418   6.091  18.471  0.00  0.00    +0.000 C 
ATOM      8  H   UNL     1       2.080   9.664  19.569  0.00  0.00    +0.000 HD
ATOM      9  H   UNL     1       2.057   7.015  16.597  0.00  0.00    +0.000 HD
ENDROOT
BRANCH   7  10
ATOM     10  C   UNL     1       3.916   5.828  18.310  0.00  0.00    +0.000 A 
ATOM     11  C   UNL     1       4.725   5.458  19.401  0.00  0.00    +0.000 A 
ATOM     12  C   UNL     1       6.100   5.291  19.251  0.00  0.00    +0.000 A 
ATOM     13  C   UNL     1       6.689   5.491  18.007  0.00  0.00    +0.000 A 
ATOM     14  C   UNL     1       5.909   5.836  16.902  0.00  0.00    +0.000 A 
ATOM     15  C   UNL     1       4.526   5.990  17.053  0.00  0.00    +0.000 A 
BRANCH  14  16
ATOM     16  O   UNL     1       6.617   6.008  15.744  0.00  0.00    +0.000 OA
ATOM     17  C   UNL     1       6.907   4.840  14.989  0.00  0.00    +0.000 C 
ENDBRANCH  14  16
ENDBRANCH   7  10
BRANCH   1  18
ATOM     18  C   UNL     1       1.705   5.157  20.647  0.00  0.00    +0.000 C 
ATOM     19  O   UNL     1       2.334   4.816  21.641  0.00  0.00    +0.000 OA
BRANCH  18  20
ATOM     20  O   UNL     1       0.690   4.443  20.111  0.00  0.00    +0.000 OA
BRANCH  20  22
ATOM     21  C   UNL     1       1.092   2.509  18.683  0.00  0.00    +0.000 C 
ATOM     22  C   UNL     1       0.900   3.018  20.101  0.00  0.00    +0.000 C 
ENDBRANCH  20  22
ENDBRANCH  18  20
ENDBRANCH   1  18
BRANCH   2  23
ATOM     23  C   UNL     1       1.759   8.239  21.701  0.00  0.00    +0.000 C 
BRANCH  23  24
ATOM     24  S   UNL     1       0.035   8.735  21.905  0.00  0.00    +0.000 S 
ATOM     25  O   UNL     1      -0.836   7.741  21.314  0.00  0.00    +0.000 OA
ATOM     26  O   UNL     1      -0.154   9.180  23.278  0.00  0.00    +0.000 OA
BRANCH  24  27
ATOM     27  C   UNL     1      -0.046  10.177  20.869  0.00  0.00    +0.000 A 
ATOM     28  C   UNL     1       0.747  11.286  21.139  0.00  0.00    +0.000 A 
ATOM     29  C   UNL     1       0.777  12.330  20.211  0.00  0.00    +0.000 A 
ATOM     30  C   UNL     1       0.023  12.289  19.021  0.00  0.00    +0.000 A 
ATOM     31  C   UNL     1      -0.821  11.188  18.803  0.00  0.00    +0.000 A 
ATOM     32 CL   UNL     1      -1.834  10.953  17.424  0.00  0.00    +0.000 Cl
ATOM     33  C   UNL     1      -0.863  10.144  19.738  0.00  0.00    +0.000 A 
BRANCH  30  34
ATOM     34  O   UNL     1       0.271  13.388  18.247  0.00  0.00    +0.000 OA
ATOM     35  C   UNL     1       0.138  14.694  18.782  0.00  0.00    +0.000 C 
ENDBRANCH  30  34
ENDBRANCH  24  27
ENDBRANCH  23  24
ENDBRANCH   2  23
TORSDOF 9
ENDMDL
MODEL 2
REMARK VINA RESULT:      -7.1      2.761      5.183
REMARK  Name = 
REMARK  12 active torsions:
REMARK  status: ('A' for Active; 'I' for Inactive)
REMARK    1  A    between atoms: C_1  and  C_2
REMARK    2  A    between atoms: C_2  and  O_3
REMARK    3  A    between atoms: O_3  and  C_4
REMARK    4  A    between atoms: C_4  and  C_6
REMARK    5  A    between atoms: C_7  and  C_8
REMARK    6  A    between atoms: C_8  and  S_9
REMARK    7  A    between atoms: S_9  and  C_12
REMARK    8  A    between atoms: C_15  and  O_16
REMARK    9  A    between atoms: O_16  and  C_17
REMARK   10  A    between atoms: C_25  and  C_26
REMARK   11  A    between atoms: C_30  and  O_31
REMARK   12  A    between atoms: O_31  and  C_32
REMARK                            x       y       z     vdW  Elec       q    Type
REMARK                         _______ _______ _______ _____ _____    ______ ____
ROOT
ATOM      1  C   UNL     1       6.015   5.749  17.024  0.00  0.00    +0.000 C 
ATOM      2  C   UNL     1       4.676   5.884  17.184  0.00  0.00    +0.000 C 
ATOM      3  N   UNL     1       3.908   4.724  17.077  0.00  0.00    +0.000 N 
ATOM      4  C   UNL     1       4.389   3.451  16.993  0.00  0.00    +0.000 C 
ATOM      5  O   UNL     1       3.659   2.471  17.020  0.00  0.00    +0.000 OA
ATOM      6  N   UNL     1       5.737   3.339  16.913  0.00  0.00    +0.000 N 
ATOM      7  C   UNL     1       6.575   4.442  16.499  0.00  0.00    +0.000 C 
ATOM      8  H   UNL     1       2.891   4.768  17.137  0.00  0.00    +0.000 HD
ATOM      9  H   UNL     1       6.069   2.400  16.763  0.00  0.00    +0.000 HD
ENDROOT
BRANCH   7  10
ATOM     10  C   UNL     1       6.752   4.438  14.980  0.00  0.00    +0.000 A 
ATOM     11  C   UNL     1       7.700   5.260  14.342  0.00  0.00    +0.000 A 
ATOM     12  C   UNL     1       7.800   5.294  12.953  0.00  0.00    +0.000 A 
ATOM     13  C   UNL     1       6.954   4.508  12.179  0.00  0.00    +0.000 A 
ATOM     14  C   UNL     1       6.019   3.667  12.784  0.00  0.00    +0.000 A 
ATOM     15  C   UNL     1       5.930   3.623  14.180  0.00  0.00    +0.000 A 
BRANCH  14  16
ATOM     16  O   UNL     1       5.248   2.957  11.905  0.00  0.00    +0.000 OA
ATOM     17  C   UNL     1       5.807   1.760  11.381  0.00  0.00    +0.000 C 
ENDBRANCH  14  16
ENDBRANCH   7  10
BRANCH   1  18
ATOM     18  C   UNL     1       7.111   6.710  17.327  0.00  0.00    +0.000 C 
ATOM     19  O   UNL     1       7.187   7.802  16.778  0.00  0.00    +0.000 OA
BRANCH  18  20
ATOM     20  O   UNL     1       8.007   6.252  18.230  0.00  0.00    +0.000 OA
BRANCH  20  22
ATOM     21  C   UNL     1       8.505   5.293  20.415  0.00  0.00    +0.000 C 
ATOM     22  C   UNL     1       7.430   5.806  19.472  0.00  0.00    +0.000 C 
ENDBRANCH  20  22
ENDBRANCH  18  20
ENDBRANCH   1  18
BRANCH   2  23
ATOM     23  C   UNL     1       3.886   7.119  17.542  0.00  0.00    +0.000 C 
BRANCH  23  24
ATOM     24  S   UNL     1       2.533   6.680  18.653  0.00  0.00    +0.000 S 
ATOM     25  O   UNL     1       1.491   5.998  17.914  0.00  0.00    +0.000 OA
ATOM     26  O   UNL     1       3.103   6.097  19.859  0.00  0.00    +0.000 OA
BRANCH  24  27
ATOM     27  C   UNL     1       1.896   8.280  19.091  0.00  0.00    +0.000 A 
ATOM     28  C   UNL     1       1.768   9.276  18.131  0.00  0.00    +0.000 A 
ATOM     29  C   UNL     1       1.112  10.460  18.477  0.00  0.00    +0.000 A 
ATOM     30  C   UNL     1       0.589  10.669  19.769  0.00  0.00    +0.000 A 
ATOM     31  C   UNL     1       0.790   9.676  20.740  0.00  0.00    +0.000 A 
ATOM     32 CL   UNL     1       0.245   9.742  22.378  0.00  0.00    +0.000 Cl
ATOM     33  C   UNL     1       1.458   8.491  20.400  0.00  0.00    +0.000 A 
BRANCH  30  34
ATOM     34  O   UNL     1      -0.064  11.868  19.843  0.00  0.00    +0.000 OA
ATOM     35  C   UNL     1       0.584  13.069  19.462  0.00  0.00    +0.000 C 
ENDBRANCH  30  34
ENDBRANCH  24  27
ENDBRANCH  23  24
ENDBRANCH   2  23
TORSDOF 9
ENDMDL
MODEL 3
REMARK VINA RESULT:      -7.1      3.087      8.314
REMARK  Name = 
REMARK  12 active torsions:
REMARK  status: ('A' for Active; 'I' for Inactive)
REMARK    1  A    between atoms: C_1  and  C_2
REMARK    2  A    between atoms: C_2  and  O_3
REMARK    3  A    between atoms: O_3  and  C_4
REMARK    4  A    between atoms: C_4  and  C_6
REMARK    5  A    between atoms: C_7  and  C_8
REMARK    6  A    between atoms: C_8  and  S_9
REMARK    7  A    between atoms: S_9  and  C_12
REMARK    8  A    between atoms: C_15  and  O_16
REMARK    9  A    between atoms: O_16  and  C_17
REMARK   10  A    between atoms: C_25  and  C_26
REMARK   11  A    between atoms: C_30  and  O_31
REMARK   12  A    between atoms: O_31  and  C_32
REMARK                            x       y       z     vdW  Elec       q    Type
REMARK                         _______ _______ _______ _____ _____    ______ ____
ROOT
ATOM      1  C   UNL     1       0.519   9.726  20.322  0.00  0.00    +0.000 C 
ATOM      2  C   UNL     1       1.509   9.130  19.612  0.00  0.00    +0.000 C 
ATOM      3  N   UNL     1       2.108   9.890  18.607  0.00  0.00    +0.000 N 
ATOM      4  C   UNL     1       1.910  11.220  18.383  0.00  0.00    +0.000 C 
ATOM      5  O   UNL     1       2.557  11.850  17.559  0.00  0.00    +0.000 OA
ATOM      6  N   UNL     1       0.970  11.811  19.161  0.00  0.00    +0.000 N 
ATOM      7  C   UNL     1      -0.049  11.047  19.845  0.00  0.00    +0.000 C 
ATOM      8  H   UNL     1       2.822   9.482  18.004  0.00  0.00    +0.000 HD
ATOM      9  H   UNL     1       0.775  12.770  18.923  0.00  0.00    +0.000 HD
ENDROOT
BRANCH   7  10
ATOM     10  C   UNL     1      -1.279  10.878  18.952  0.00  0.00    +0.000 A 
ATOM     11  C   UNL     1      -1.263  10.040  17.820  0.00  0.00    +0.000 A 
ATOM     12  C   UNL     1      -2.369   9.951  16.978  0.00  0.00    +0.000 A 
ATOM     13  C   UNL     1      -3.510  10.697  17.254  0.00  0.00    +0.000 A 
ATOM     14  C   UNL     1      -3.563  11.519  18.380  0.00  0.00    +0.000 A 
ATOM     15  C   UNL     1      -2.455  11.597  19.232  0.00  0.00    +0.000 A 
BRANCH  14  16
ATOM     16  O   UNL     1      -4.740  12.201  18.526  0.00  0.00    +0.000 OA
ATOM     17  C   UNL     1      -5.097  12.591  19.845  0.00  0.00    +0.000 C 
ENDBRANCH  14  16
ENDBRANCH   7  10
BRANCH   1  18
ATOM     18  C   UNL     1      -0.126   9.301  21.595  0.00  0.00    +0.000 C 
ATOM     19  O   UNL     1      -0.769   8.263  21.681  0.00  0.00    +0.000 OA
BRANCH  18  20
ATOM     20  O   UNL     1       0.045  10.174  22.614  0.00  0.00    +0.000 OA
BRANCH  20  22
ATOM     21  C   UNL     1      -1.386  12.092  23.071  0.00  0.00    +0.000 C 
ATOM     22  C   UNL     1      -1.175  10.599  23.249  0.00  0.00    +0.000 C 
ENDBRANCH  20  22
ENDBRANCH  18  20
ENDBRANCH   1  18
BRANCH   2  23
ATOM     23  C   UNL     1       2.118   7.763  19.803  0.00  0.00    +0.000 C 
BRANCH  23  24
ATOM     24  S   UNL     1       2.631   7.094  18.207  0.00  0.00    +0.000 S 
ATOM     25  O   UNL     1       1.512   7.098  17.289  0.00  0.00    +0.000 OA
ATOM     26  O   UNL     1       3.903   7.701  17.844  0.00  0.00    +0.000 OA
BRANCH  24  27
ATOM     27  C   UNL     1       2.957   5.396  18.620  0.00  0.00    +0.000 A 
ATOM     28  C   UNL     1       3.832   4.637  17.851  0.00  0.00    +0.000 A 
ATOM     29  C   UNL     1       4.188   3.364  18.302  0.00  0.00    +0.000 A 
ATOM     30  C   UNL     1       3.680   2.832  19.505  0.00  0.00    +0.000 A 
ATOM     31  C   UNL     1       2.747   3.591  20.229  0.00  0.00    +0.000 A 
ATOM     32 CL   UNL     1       1.997   3.119  21.711  0.00  0.00    +0.000 Cl
ATOM     33  C   UNL     1       2.378   4.865  19.774  0.00  0.00    +0.000 A 
BRANCH  30  34
ATOM     34  O   UNL     1       4.226   1.607  19.766  0.00  0.00    +0.000 OA
ATOM     35  C   UNL     1       5.144   1.437  20.832  0.00  0.00    +0.000 C 
ENDBRANCH  30  34
ENDBRANCH  24  27
ENDBRANCH  23  24
ENDBRANCH   2  23
TORSDOF 9
ENDMDL
MODEL 4
REMARK VINA RESULT:      -7.1      3.464      9.021
REMARK  Name = 
REMARK  12 active torsions:
REMARK  status: ('A' for Active; 'I' for Inactive)
REMARK    1  A    between atoms: C_1  and  C_2
REMARK    2  A    between atoms: C_2  and  O_3
REMARK    3  A    between atoms: O_3  and  C_4
REMARK    4  A    between atoms: C_4  and  C_6
REMARK    5  A    between atoms: C_7  and  C_8
REMARK    6  A    between atoms: C_8  and  S_9
REMARK    7  A    between atoms: S_9  and  C_12
REMARK    8  A    between atoms: C_15  and  O_16
REMARK    9  A    between atoms: O_16  and  C_17
REMARK   10  A    between atoms: C_25  and  C_26
REMARK   11  A    between atoms: C_30  and  O_31
REMARK   12  A    between atoms: O_31  and  C_32
REMARK                            x       y       z     vdW  Elec       q    Type
REMARK                         _______ _______ _______ _____ _____    ______ ____
ROOT
ATOM      1  C   UNL     1      -0.173  12.100  19.748  0.00  0.00    +0.000 C 
ATOM      2  C   UNL     1      -0.135  10.801  19.361  0.00  0.00    +0.000 C 
ATOM      3  N   UNL     1      -1.286  10.287  18.764  0.00  0.00    +0.000 N 
ATOM      4  C   UNL     1      -2.381  11.007  18.384  0.00  0.00    +0.000 C 
ATOM      5  O   UNL     1      -3.307  10.511  17.760  0.00  0.00    +0.000 OA
ATOM      6  N   UNL     1      -2.360  12.321  18.714  0.00  0.00    +0.000 N 
ATOM      7  C   UNL     1      -1.497  12.838  19.754  0.00  0.00    +0.000 C 
ATOM      8  H   UNL     1      -1.338   9.304  18.497  0.00  0.00    +0.000 HD
ATOM      9  H   UNL     1      -3.211  12.818  18.505  0.00  0.00    +0.000 HD
ENDROOT
BRANCH   7  10
ATOM     10  C   UNL     1      -2.203  12.783  21.109  0.00  0.00    +0.000 A 
ATOM     11  C   UNL     1      -1.755  11.940  22.145  0.00  0.00    +0.000 A 
ATOM     12  C   UNL     1      -2.450  11.851  23.348  0.00  0.00    +0.000 A 
ATOM     13  C   UNL     1      -3.605  12.602  23.537  0.00  0.00    +0.000 A 
ATOM     14  C   UNL     1      -4.060  13.463  22.538  0.00  0.00    +0.000 A 
ATOM     15  C   UNL     1      -3.353  13.561  21.334  0.00  0.00    +0.000 A 
BRANCH  14  16
ATOM     16  O   UNL     1      -5.210  14.134  22.853  0.00  0.00    +0.000 OA
ATOM     17  C   UNL     1      -5.105  15.166  23.824  0.00  0.00    +0.000 C 
ENDBRANCH  14  16
ENDBRANCH   7  10
BRANCH   1  18
ATOM     18  C   UNL     1       0.937  13.002  20.162  0.00  0.00    +0.000 C 
ATOM     19  O   UNL     1       1.501  12.882  21.242  0.00  0.00    +0.000 OA
BRANCH  18  20
ATOM     20  O   UNL     1       1.231  13.960  19.254  0.00  0.00    +0.000 OA
BRANCH  20  22
ATOM     21  C   UNL     1       3.024  14.936  17.923  0.00  0.00    +0.000 C 
ATOM     22  C   UNL     1       2.360  13.661  18.412  0.00  0.00    +0.000 C 
ENDBRANCH  20  22
ENDBRANCH  18  20
ENDBRANCH   1  18
BRANCH   2  23
ATOM     23  C   UNL     1       1.020   9.832  19.415  0.00  0.00    +0.000 C 
BRANCH  23  24
ATOM     24  S   UNL     1       0.911   8.833  20.915  0.00  0.00    +0.000 S 
ATOM     25  O   UNL     1       1.754   9.400  21.946  0.00  0.00    +0.000 OA
ATOM     26  O   UNL     1      -0.492   8.540  21.167  0.00  0.00    +0.000 OA
BRANCH  24  27
ATOM     27  C   UNL     1       1.679   7.318  20.391  0.00  0.00    +0.000 A 
ATOM     28  C   UNL     1       1.362   6.115  21.010  0.00  0.00    +0.000 A 
ATOM     29  C   UNL     1       1.860   4.929  20.464  0.00  0.00    +0.000 A 
ATOM     30  C   UNL     1       2.674   4.925  19.314  0.00  0.00    +0.000 A 
ATOM     31  C   UNL     1       3.035   6.158  18.746  0.00  0.00    +0.000 A 
ATOM     32 CL   UNL     1       4.032   6.373  17.352  0.00  0.00    +0.000 Cl
ATOM     33  C   UNL     1       2.548   7.350  19.299  0.00  0.00    +0.000 A 
BRANCH  30  34
ATOM     34  O   UNL     1       2.976   3.648  18.933  0.00  0.00    +0.000 OA
ATOM     35  C   UNL     1       2.464   3.113  17.724  0.00  0.00    +0.000 C 
ENDBRANCH  30  34
ENDBRANCH  24  27
ENDBRANCH  23  24
ENDBRANCH   2  23
TORSDOF 9
ENDMDL
MODEL 5
REMARK VINA RESULT:      -7.1      2.773      5.133
REMARK  Name = 
REMARK  12 active torsions:
REMARK  status: ('A' for Active; 'I' for Inactive)
REMARK    1  A    between atoms: C_1  and  C_2
REMARK    2  A    between atoms: C_2  and  O_3
REMARK    3  A    between atoms: O_3  and  C_4
REMARK    4  A    between atoms: C_4  and  C_6
REMARK    5  A    between atoms: C_7  and  C_8
REMARK    6  A    between atoms: C_8  and  S_9
REMARK    7  A    between atoms: S_9  and  C_12
REMARK    8  A    between atoms: C_15  and  O_16
REMARK    9  A    between atoms: O_16  and  C_17
REMARK   10  A    between atoms: C_25  and  C_26
REMARK   11  A    between atoms: C_30  and  O_31
REMARK   12  A    between atoms: O_31  and  C_32
REMARK                            x       y       z     vdW  Elec       q    Type
REMARK                         _______ _______ _______ _____ _____    ______ ____
ROOT
ATOM      1  C   UNL     1       5.875   5.625  17.374  0.00  0.00    +0.000 C 
ATOM      2  C   UNL     1       4.561   5.952  17.434  0.00  0.00    +0.000 C 
ATOM      3  N   UNL     1       3.645   4.932  17.181  0.00  0.00    +0.000 N 
ATOM      4  C   UNL     1       3.939   3.607  17.044  0.00  0.00    +0.000 C 
ATOM      5  O   UNL     1       3.073   2.751  16.940  0.00  0.00    +0.000 OA
ATOM      6  N   UNL     1       5.258   3.296  17.066  0.00  0.00    +0.000 N 
ATOM      7  C   UNL     1       6.283   4.281  16.803  0.00  0.00    +0.000 C 
ATOM      8  H   UNL     1       2.644   5.126  17.160  0.00  0.00    +0.000 HD
ATOM      9  H   UNL     1       5.461   2.328  16.876  0.00  0.00    +0.000 HD
ENDROOT
BRANCH   7  10
ATOM     10  C   UNL     1       6.595   4.340  15.307  0.00  0.00    +0.000 A 
ATOM     11  C   UNL     1       7.506   5.274  14.776  0.00  0.00    +0.000 A 
ATOM     12  C   UNL     1       7.726   5.360  13.404  0.00  0.00    +0.000 A 
ATOM     13  C   UNL     1       7.041   4.515  12.539  0.00  0.00    +0.000 A 
ATOM     14  C   UNL     1       6.149   3.564  13.037  0.00  0.00    +0.000 A 
ATOM     15  C   UNL     1       5.939   3.470  14.418  0.00  0.00    +0.000 A 
BRANCH  14  16
ATOM     16  O   UNL     1       5.539   2.805  12.077  0.00  0.00    +0.000 OA
ATOM     17  C   UNL     1       4.346   3.327  11.508  0.00  0.00    +0.000 C 
ENDBRANCH  14  16
ENDBRANCH   7  10
BRANCH   1  18
ATOM     18  C   UNL     1       7.068   6.387  17.835  0.00  0.00    +0.000 C 
ATOM     19  O   UNL     1       7.885   5.906  18.610  0.00  0.00    +0.000 OA
BRANCH  18  20
ATOM     20  O   UNL     1       7.138   7.644  17.343  0.00  0.00    +0.000 OA
BRANCH  20  22
ATOM     21  C   UNL     1       7.908   9.918  17.761  0.00  0.00    +0.000 C 
ATOM     22  C   UNL     1       8.217   8.436  17.874  0.00  0.00    +0.000 C 
ENDBRANCH  20  22
ENDBRANCH  18  20
ENDBRANCH   1  18
BRANCH   2  23
ATOM     23  C   UNL     1       3.932   7.270  17.815  0.00  0.00    +0.000 C 
BRANCH  23  24
ATOM     24  S   UNL     1       2.348   6.978  18.631  0.00  0.00    +0.000 S 
ATOM     25  O   UNL     1       1.383   6.488  17.670  0.00  0.00    +0.000 OA
ATOM     26  O   UNL     1       2.599   6.265  19.875  0.00  0.00    +0.000 OA
BRANCH  24  27
ATOM     27  C   UNL     1       1.858   8.631  19.061  0.00  0.00    +0.000 A 
ATOM     28  C   UNL     1       1.965   9.663  18.136  0.00  0.00    +0.000 A 
ATOM     29  C   UNL     1       1.419  10.909  18.455  0.00  0.00    +0.000 A 
ATOM     30  C   UNL     1       0.772  11.143  19.684  0.00  0.00    +0.000 A 
ATOM     31  C   UNL     1       0.735  10.105  20.629  0.00  0.00    +0.000 A 
ATOM     32 CL   UNL     1       0.008  10.190  22.193  0.00  0.00    +0.000 Cl
ATOM     33  C   UNL     1       1.293   8.857  20.317  0.00  0.00    +0.000 A 
BRANCH  30  34
ATOM     34  O   UNL     1       0.262  12.410  19.734  0.00  0.00    +0.000 OA
ATOM     35  C   UNL     1       0.650  13.384  18.781  0.00  0.00    +0.000 C 
ENDBRANCH  30  34
ENDBRANCH  24  27
ENDBRANCH  23  24
ENDBRANCH   2  23
TORSDOF 9
ENDMDL
MODEL 6
REMARK VINA RESULT:      -7.0      3.546      9.125
REMARK  Name = 
REMARK  12 active torsions:
REMARK  status: ('A' for Active; 'I' for Inactive)
REMARK    1  A    between atoms: C_1  and  C_2
REMARK    2  A    between atoms: C_2  and  O_3
REMARK    3  A    between atoms: O_3  and  C_4
REMARK    4  A    between atoms: C_4  and  C_6
REMARK    5  A    between atoms: C_7  and  C_8
REMARK    6  A    between atoms: C_8  and  S_9
REMARK    7  A    between atoms: S_9  and  C_12
REMARK    8  A    between atoms: C_15  and  O_16
REMARK    9  A    between atoms: O_16  and  C_17
REMARK   10  A    between atoms: C_25  and  C_26
REMARK   11  A    between atoms: C_30  and  O_31
REMARK   12  A    between atoms: O_31  and  C_32
REMARK                            x       y       z     vdW  Elec       q    Type
REMARK                         _______ _______ _______ _____ _____    ______ ____
ROOT
ATOM      1  C   UNL     1      -0.164  12.063  19.745  0.00  0.00    +0.000 C 
ATOM      2  C   UNL     1      -0.116  10.776  19.324  0.00  0.00    +0.000 C 
ATOM      3  N   UNL     1      -1.271  10.261  18.737  0.00  0.00    +0.000 N 
ATOM      4  C   UNL     1      -2.383  10.974  18.398  0.00  0.00    +0.000 C 
ATOM      5  O   UNL     1      -3.315  10.481  17.780  0.00  0.00    +0.000 OA
ATOM      6  N   UNL     1      -2.374  12.279  18.762  0.00  0.00    +0.000 N 
ATOM      7  C   UNL     1      -1.498  12.781  19.797  0.00  0.00    +0.000 C 
ATOM      8  H   UNL     1      -1.315   9.284  18.446  0.00  0.00    +0.000 HD
ATOM      9  H   UNL     1      -3.236  12.768  18.583  0.00  0.00    +0.000 HD
ENDROOT
BRANCH   7  10
ATOM     10  C   UNL     1      -2.175  12.681  21.164  0.00  0.00    +0.000 A 
ATOM     11  C   UNL     1      -1.659  11.866  22.189  0.00  0.00    +0.000 A 
ATOM     12  C   UNL     1      -2.326  11.732  23.404  0.00  0.00    +0.000 A 
ATOM     13  C   UNL     1      -3.520  12.412  23.616  0.00  0.00    +0.000 A 
ATOM     14  C   UNL     1      -4.045  13.246  22.627  0.00  0.00    +0.000 A 
ATOM     15  C   UNL     1      -3.366  13.389  21.411  0.00  0.00    +0.000 A 
BRANCH  14  16
ATOM     16  O   UNL     1      -5.227  13.846  22.964  0.00  0.00    +0.000 OA
ATOM     17  C   UNL     1      -6.414  13.267  22.438  0.00  0.00    +0.000 C 
ENDBRANCH  14  16
ENDBRANCH   7  10
BRANCH   1  18
ATOM     18  C   UNL     1       0.941  12.971  20.160  0.00  0.00    +0.000 C 
ATOM     19  O   UNL     1       1.488  12.870  21.251  0.00  0.00    +0.000 OA
BRANCH  18  20
ATOM     20  O   UNL     1       1.251  13.912  19.240  0.00  0.00    +0.000 OA
BRANCH  20  22
ATOM     21  C   UNL     1       0.192  16.073  19.626  0.00  0.00    +0.000 C 
ATOM     22  C   UNL     1       1.448  15.233  19.779  0.00  0.00    +0.000 C 
ENDBRANCH  20  22
ENDBRANCH  18  20
ENDBRANCH   1  18
BRANCH   2  23
ATOM     23  C   UNL     1       1.054   9.823  19.330  0.00  0.00    +0.000 C 
BRANCH  23  24
ATOM     24  S   UNL     1       0.976   8.767  20.792  0.00  0.00    +0.000 S 
ATOM     25  O   UNL     1       1.838   9.295  21.827  0.00  0.00    +0.000 OA
ATOM     26  O   UNL     1      -0.422   8.461  21.060  0.00  0.00    +0.000 OA
BRANCH  24  27
ATOM     27  C   UNL     1       1.735   7.275  20.196  0.00  0.00    +0.000 A 
ATOM     28  C   UNL     1       2.520   7.291  19.049  0.00  0.00    +0.000 A 
ATOM     29  C   UNL     1       3.232   6.138  18.707  0.00  0.00    +0.000 A 
ATOM     30  C   UNL     1       3.167   4.967  19.488  0.00  0.00    +0.000 A 
ATOM     31  C   UNL     1       2.316   4.953  20.604  0.00  0.00    +0.000 A 
ATOM     32 CL   UNL     1       2.081   3.621  21.677  0.00  0.00    +0.000 Cl
ATOM     33  C   UNL     1       1.591   6.105  20.943  0.00  0.00    +0.000 A 
BRANCH  30  34
ATOM     34  O   UNL     1       4.000   4.003  18.992  0.00  0.00    +0.000 OA
ATOM     35  C   UNL     1       3.475   2.863  18.333  0.00  0.00    +0.000 C 
ENDBRANCH  30  34
ENDBRANCH  24  27
ENDBRANCH  23  24
ENDBRANCH   2  23
TORSDOF 9
ENDMDL
MODEL 7
REMARK VINA RESULT:      -7.0      3.971      9.489
REMARK  Name = 
REMARK  12 active torsions:
REMARK  status: ('A' for Active; 'I' for Inactive)
REMARK    1  A    between atoms: C_1  and  C_2
REMARK    2  A    between atoms: C_2  and  O_3
REMARK    3  A    between atoms: O_3  and  C_4
REMARK    4  A    between atoms: C_4  and  C_6
REMARK    5  A    between atoms: C_7  and  C_8
REMARK    6  A    between atoms: C_8  and  S_9
REMARK    7  A    between atoms: S_9  and  C_12
REMARK    8  A    between atoms: C_15  and  O_16
REMARK    9  A    between atoms: O_16  and  C_17
REMARK   10  A    between atoms: C_25  and  C_26
REMARK   11  A    between atoms: C_30  and  O_31
REMARK   12  A    between atoms: O_31  and  C_32
REMARK                            x       y       z     vdW  Elec       q    Type
REMARK                         _______ _______ _______ _____ _____    ______ ____
ROOT
ATOM      1  C   UNL     1      -0.702  13.230  20.704  0.00  0.00    +0.000 C 
ATOM      2  C   UNL     1      -0.362  12.007  20.228  0.00  0.00    +0.000 C 
ATOM      3  N   UNL     1      -1.325  11.332  19.478  0.00  0.00    +0.000 N 
ATOM      4  C   UNL     1      -2.508  11.851  19.041  0.00  0.00    +0.000 C 
ATOM      5  O   UNL     1      -3.253  11.241  18.288  0.00  0.00    +0.000 OA
ATOM      6  N   UNL     1      -2.789  13.106  19.467  0.00  0.00    +0.000 N 
ATOM      7  C   UNL     1      -2.146  13.685  20.625  0.00  0.00    +0.000 C 
ATOM      8  H   UNL     1      -1.149  10.387  19.136  0.00  0.00    +0.000 HD
ATOM      9  H   UNL     1      -3.703  13.440  19.207  0.00  0.00    +0.000 HD
ENDROOT
BRANCH   7  10
ATOM     10  C   UNL     1      -2.940  13.364  21.892  0.00  0.00    +0.000 A 
ATOM     11  C   UNL     1      -2.453  12.472  22.867  0.00  0.00    +0.000 A 
ATOM     12  C   UNL     1      -3.220  12.138  23.981  0.00  0.00    +0.000 A 
ATOM     13  C   UNL     1      -4.486  12.690  24.139  0.00  0.00    +0.000 A 
ATOM     14  C   UNL     1      -4.987  13.594  23.201  0.00  0.00    +0.000 A 
ATOM     15  C   UNL     1      -4.209  13.939  22.090  0.00  0.00    +0.000 A 
BRANCH  14  16
ATOM     16  O   UNL     1      -6.246  14.052  23.476  0.00  0.00    +0.000 OA
ATOM     17  C   UNL     1      -7.159  13.120  24.039  0.00  0.00    +0.000 C 
ENDBRANCH  14  16
ENDBRANCH   7  10
BRANCH   1  18
ATOM     18  C   UNL     1       0.156  14.292  21.296  0.00  0.00    +0.000 C 
ATOM     19  O   UNL     1       0.884  14.077  22.257  0.00  0.00    +0.000 OA
BRANCH  18  20
ATOM     20  O   UNL     1       0.029  15.497  20.695  0.00  0.00    +0.000 OA
BRANCH  20  22
ATOM     21  C   UNL     1      -0.305  16.354  18.439  0.00  0.00    +0.000 C 
ATOM     22  C   UNL     1       0.598  15.569  19.374  0.00  0.00    +0.000 C 
ENDBRANCH  20  22
ENDBRANCH  18  20
ENDBRANCH   1  18
BRANCH   2  23
ATOM     23  C   UNL     1       0.960  11.287  20.331  0.00  0.00    +0.000 C 
BRANCH  23  24
ATOM     24  S   UNL     1       0.763   9.783  21.312  0.00  0.00    +0.000 S 
ATOM     25  O   UNL     1       1.661   9.816  22.447  0.00  0.00    +0.000 OA
ATOM     26  O   UNL     1      -0.660   9.535  21.486  0.00  0.00    +0.000 OA
BRANCH  24  27
ATOM     27  C   UNL     1       1.381   8.546  20.197  0.00  0.00    +0.000 A 
ATOM     28  C   UNL     1       1.687   8.870  18.880  0.00  0.00    +0.000 A 
ATOM     29  C   UNL     1       2.323   7.914  18.085  0.00  0.00    +0.000 A 
ATOM     30  C   UNL     1       2.654   6.637  18.579  0.00  0.00    +0.000 A 
ATOM     31  C   UNL     1       2.275   6.310  19.891  0.00  0.00    +0.000 A 
ATOM     32 CL   UNL     1       2.569   4.801  20.679  0.00  0.00    +0.000 Cl
ATOM     33  C   UNL     1       1.625   7.262  20.689  0.00  0.00    +0.000 A 
BRANCH  30  34
ATOM     34  O   UNL     1       3.329   5.909  17.640  0.00  0.00    +0.000 OA
ATOM     35  C   UNL     1       4.734   6.035  17.500  0.00  0.00    +0.000 C 
ENDBRANCH  30  34
ENDBRANCH  24  27
ENDBRANCH  23  24
ENDBRANCH   2  23
TORSDOF 9
ENDMDL
MODEL 8
REMARK VINA RESULT:      -7.0      3.579      9.093
REMARK  Name = 
REMARK  12 active torsions:
REMARK  status: ('A' for Active; 'I' for Inactive)
REMARK    1  A    between atoms: C_1  and  C_2
REMARK    2  A    between atoms: C_2  and  O_3
REMARK    3  A    between atoms: O_3  and  C_4
REMARK    4  A    between atoms: C_4  and  C_6
REMARK    5  A    between atoms: C_7  and  C_8
REMARK    6  A    between atoms: C_8  and  S_9
REMARK    7  A    between atoms: S_9  and  C_12
REMARK    8  A    between atoms: C_15  and  O_16
REMARK    9  A    between atoms: O_16  and  C_17
REMARK   10  A    between atoms: C_25  and  C_26
REMARK   11  A    between atoms: C_30  and  O_31
REMARK   12  A    between atoms: O_31  and  C_32
REMARK                            x       y       z     vdW  Elec       q    Type
REMARK                         _______ _______ _______ _____ _____    ______ ____
ROOT
ATOM      1  C   UNL     1      -0.258  12.094  19.917  0.00  0.00    +0.000 C 
ATOM      2  C   UNL     1      -0.240  10.788  19.556  0.00  0.00    +0.000 C 
ATOM      3  N   UNL     1      -1.364  10.303  18.888  0.00  0.00    +0.000 N 
ATOM      4  C   UNL     1      -2.402  11.053  18.419  0.00  0.00    +0.000 C 
ATOM      5  O   UNL     1      -3.299  10.577  17.739  0.00  0.00    +0.000 OA
ATOM      6  N   UNL     1      -2.356  12.372  18.726  0.00  0.00    +0.000 N 
ATOM      7  C   UNL     1      -1.551  12.878  19.815  0.00  0.00    +0.000 C 
ATOM      8  H   UNL     1      -1.433   9.317  18.636  0.00  0.00    +0.000 HD
ATOM      9  H   UNL     1      -3.172  12.893  18.448  0.00  0.00    +0.000 HD
ENDROOT
BRANCH   7  10
ATOM     10  C   UNL     1      -2.352  12.875  21.118  0.00  0.00    +0.000 A 
ATOM     11  C   UNL     1      -1.723  12.947  22.375  0.00  0.00    +0.000 A 
ATOM     12  C   UNL     1      -2.464  12.873  23.553  0.00  0.00    +0.000 A 
ATOM     13  C   UNL     1      -3.845  12.727  23.493  0.00  0.00    +0.000 A 
ATOM     14  C   UNL     1      -4.499  12.676  22.261  0.00  0.00    +0.000 A 
ATOM     15  C   UNL     1      -3.754  12.764  21.079  0.00  0.00    +0.000 A 
BRANCH  14  16
ATOM     16  O   UNL     1      -5.855  12.522  22.349  0.00  0.00    +0.000 OA
ATOM     17  C   UNL     1      -6.560  12.334  21.129  0.00  0.00    +0.000 C 
ENDBRANCH  14  16
ENDBRANCH   7  10
BRANCH   1  18
ATOM     18  C   UNL     1       0.852  12.965  20.393  0.00  0.00    +0.000 C 
ATOM     19  O   UNL     1       1.578  12.640  21.324  0.00  0.00    +0.000 OA
BRANCH  18  20
ATOM     20  O   UNL     1       0.955  14.136  19.724  0.00  0.00    +0.000 OA
BRANCH  20  22
ATOM     21  C   UNL     1       2.911  13.879  18.292  0.00  0.00    +0.000 C 
ATOM     22  C   UNL     1       2.307  14.578  19.498  0.00  0.00    +0.000 C 
ENDBRANCH  20  22
ENDBRANCH  18  20
ENDBRANCH   1  18
BRANCH   2  23
ATOM     23  C   UNL     1       0.873   9.780  19.710  0.00  0.00    +0.000 C 
BRANCH  23  24
ATOM     24  S   UNL     1       1.527   9.339  18.086  0.00  0.00    +0.000 S 
ATOM     25  O   UNL     1       0.448   8.914  17.220  0.00  0.00    +0.000 OA
ATOM     26  O   UNL     1       2.460  10.377  17.672  0.00  0.00    +0.000 OA
BRANCH  24  27
ATOM     27  C   UNL     1       2.485   7.892  18.468  0.00  0.00    +0.000 A 
ATOM     28  C   UNL     1       2.223   7.153  19.616  0.00  0.00    +0.000 A 
ATOM     29  C   UNL     1       2.884   5.936  19.795  0.00  0.00    +0.000 A 
ATOM     30  C   UNL     1       3.808   5.446  18.851  0.00  0.00    +0.000 A 
ATOM     31  C   UNL     1       4.107   6.242  17.734  0.00  0.00    +0.000 A 
ATOM     32 CL   UNL     1       5.217   5.836  16.474  0.00  0.00    +0.000 Cl
ATOM     33  C   UNL     1       3.455   7.470  17.556  0.00  0.00    +0.000 A 
BRANCH  30  34
ATOM     34  O   UNL     1       4.267   4.211  19.213  0.00  0.00    +0.000 OA
ATOM     35  C   UNL     1       3.393   3.254  19.786  0.00  0.00    +0.000 C 
ENDBRANCH  30  34
ENDBRANCH  24  27
ENDBRANCH  23  24
ENDBRANCH   2  23
TORSDOF 9
ENDMDL
MODEL 9
REMARK VINA RESULT:      -7.0      1.275      1.613
REMARK  Name = 
REMARK  12 active torsions:
REMARK  status: ('A' for Active; 'I' for Inactive)
REMARK    1  A    between atoms: C_1  and  C_2
REMARK    2  A    between atoms: C_2  and  O_3
REMARK    3  A    between atoms: O_3  and  C_4
REMARK    4  A    between atoms: C_4  and  C_6
REMARK    5  A    between atoms: C_7  and  C_8
REMARK    6  A    between atoms: C_8  and  S_9
REMARK    7  A    between atoms: S_9  and  C_12
REMARK    8  A    between atoms: C_15  and  O_16
REMARK    9  A    between atoms: O_16  and  C_17
REMARK   10  A    between atoms: C_25  and  C_26
REMARK   11  A    between atoms: C_30  and  O_31
REMARK   12  A    between atoms: O_31  and  C_32
REMARK                            x       y       z     vdW  Elec       q    Type
REMARK                         _______ _______ _______ _____ _____    ______ ____
ROOT
ATOM      1  C   UNL     1       2.041   6.377  19.945  0.00  0.00    +0.000 C 
ATOM      2  C   UNL     1       1.936   7.667  20.346  0.00  0.00    +0.000 C 
ATOM      3  N   UNL     1       2.014   8.644  19.353  0.00  0.00    +0.000 N 
ATOM      4  C   UNL     1       2.018   8.420  18.008  0.00  0.00    +0.000 C 
ATOM      5  O   UNL     1       1.970   9.328  17.192  0.00  0.00    +0.000 OA
ATOM      6  N   UNL     1       2.044   7.118  17.632  0.00  0.00    +0.000 N 
ATOM      7  C   UNL     1       2.481   6.070  18.527  0.00  0.00    +0.000 C 
ATOM      8  H   UNL     1       1.993   9.634  19.597  0.00  0.00    +0.000 HD
ATOM      9  H   UNL     1       2.136   6.972  16.640  0.00  0.00    +0.000 HD
ENDROOT
BRANCH   7  10
ATOM     10  C   UNL     1       3.991   5.858  18.405  0.00  0.00    +0.000 A 
ATOM     11  C   UNL     1       4.654   4.832  19.104  0.00  0.00    +0.000 A 
ATOM     12  C   UNL     1       6.039   4.697  19.036  0.00  0.00    +0.000 A 
ATOM     13  C   UNL     1       6.783   5.585  18.268  0.00  0.00    +0.000 A 
ATOM     14  C   UNL     1       6.151   6.598  17.546  0.00  0.00    +0.000 A 
ATOM     15  C   UNL     1       4.758   6.724  17.605  0.00  0.00    +0.000 A 
BRANCH  14  16
ATOM     16  O   UNL     1       7.003   7.404  16.840  0.00  0.00    +0.000 OA
ATOM     17  C   UNL     1       7.841   8.269  17.594  0.00  0.00    +0.000 C 
ENDBRANCH  14  16
ENDBRANCH   7  10
BRANCH   1  18
ATOM     18  C   UNL     1       1.746   5.122  20.690  0.00  0.00    +0.000 C 
ATOM     19  O   UNL     1       2.417   4.765  21.650  0.00  0.00    +0.000 OA
BRANCH  18  20
ATOM     20  O   UNL     1       0.702   4.422  20.192  0.00  0.00    +0.000 OA
BRANCH  20  22
ATOM     21  C   UNL     1       1.009   2.546  18.667  0.00  0.00    +0.000 C 
ATOM     22  C   UNL     1       0.918   3.001  20.113  0.00  0.00    +0.000 C 
ENDBRANCH  20  22
ENDBRANCH  18  20
ENDBRANCH   1  18
BRANCH   2  23
ATOM     23  C   UNL     1       1.668   8.209  21.729  0.00  0.00    +0.000 C 
BRANCH  23  24
ATOM     24  S   UNL     1      -0.020   8.842  21.821  0.00  0.00    +0.000 S 
ATOM     25  O   UNL     1      -0.931   7.907  21.196  0.00  0.00    +0.000 OA
ATOM     26  O   UNL     1      -0.252   9.329  23.172  0.00  0.00    +0.000 OA
BRANCH  24  27
ATOM     27  C   UNL     1       0.073  10.263  20.758  0.00  0.00    +0.000 A 
ATOM     28  C   UNL     1      -0.841  10.435  19.725  0.00  0.00    +0.000 A 
ATOM     29  C   UNL     1      -0.837  11.640  19.019  0.00  0.00    +0.000 A 
ATOM     30  C   UNL     1       0.069  12.676  19.323  0.00  0.00    +0.000 A 
ATOM     31  C   UNL     1       1.026  12.453  20.326  0.00  0.00    +0.000 A 
ATOM     32 CL   UNL     1       2.230  13.580  20.838  0.00  0.00    +0.000 Cl
ATOM     33  C   UNL     1       1.033  11.240  21.028  0.00  0.00    +0.000 A 
BRANCH  30  34
ATOM     34  O   UNL     1      -0.167  13.775  18.546  0.00  0.00    +0.000 OA
ATOM     35  C   UNL     1      -0.544  15.008  19.134  0.00  0.00    +0.000 C 
ENDBRANCH  30  34
ENDBRANCH  24  27
ENDBRANCH  23  24
ENDBRANCH   2  23
TORSDOF 9
ENDMDL
