MODEL 1
REMARK VINA RESULT:      -7.5      0.000      0.000
REMARK  Name = 
REMARK  5 active torsions:
REMARK  status: ('A' for Active; 'I' for Inactive)
REMARK    1  A    between atoms: C_1  and  C_2
REMARK    2  A    between atoms: C_4  and  C_5
REMARK    3  A    between atoms: C_5  and  C_6
REMARK    4  A    between atoms: C_13  and  C_14
REMARK    5  A    between atoms: C_21  and  O_22
REMARK                            x       y       z     vdW  Elec       q    Type
REMARK                         _______ _______ _______ _____ _____    ______ ____
ROOT
ATOM      1  C   UNL     1       6.516   5.257  17.915  0.00  0.00    +0.000 A 
ATOM      2  N   UNL     1       5.791   6.324  17.397  0.00  0.00    +0.000 NA
ATOM      3  C   UNL     1       4.796   6.467  18.248  0.00  0.00    +0.000 A 
ATOM      4  N   UNL     1       4.998   5.573  19.286  0.00  0.00    +0.000 N 
ATOM      5  N   UNL     1       6.154   4.901  19.152  0.00  0.00    +0.000 NA
ATOM      6  C   UNL     1       3.915   4.945  20.019  0.00  0.00    +0.000 C 
ATOM      7  C   UNL     1       3.049   4.294  19.001  0.00  0.00    +0.000 A 
ATOM      8  C   UNL     1       2.971   3.005  18.513  0.00  0.00    +0.000 A 
ATOM      9  C   UNL     1       3.829   1.838  18.814  0.00  0.00    +0.000 C 
ATOM     10  N   UNL     1       1.979   2.919  17.564  0.00  0.00    +0.000 NA
ATOM     11  C   UNL     1       1.561   4.152  17.377  0.00  0.00    +0.000 A 
ATOM     12  N   UNL     1       2.256   5.042  18.157  0.00  0.00    +0.000 N 
ATOM     13  C   UNL     1       2.266   6.449  18.030  0.00  0.00    +0.000 A 
ATOM     14  C   UNL     1       1.038   7.103  17.880  0.00  0.00    +0.000 A 
ATOM     15  C   UNL     1       1.015   8.487  17.756  0.00  0.00    +0.000 A 
ATOM     16  C   UNL     1       2.220   9.191  17.714  0.00  0.00    +0.000 A 
ATOM     17  C   UNL     1       3.450   8.542  17.841  0.00  0.00    +0.000 A 
ATOM     18  C   UNL     1       3.499   7.159  18.046  0.00  0.00    +0.000 A 
ENDROOT
BRANCH  16  19
ATOM     19  O   UNL     1       2.218  10.546  17.554  0.00  0.00    +0.000 OA
ATOM     20  H   UNL     1       3.015  10.817  17.070  0.00  0.00    +0.000 HD
ENDBRANCH  16  19
BRANCH   1  21
ATOM     21  C   UNL     1       7.451   4.400  17.122  0.00  0.00    +0.000 C 
BRANCH  21  25
ATOM     22  C   UNL     1       5.472   3.693  12.493  0.00  0.00    +0.000 C 
ATOM     23  C   UNL     1       6.280   4.119  13.655  0.00  0.00    +0.000 A 
ATOM     24  C   UNL     1       6.201   3.615  14.963  0.00  0.00    +0.000 A 
ATOM     25  C   UNL     1       7.087   4.372  15.683  0.00  0.00    +0.000 A 
ATOM     26  O   UNL     1       7.703   5.253  14.844  0.00  0.00    +0.000 OA
ATOM     27  N   UNL     1       7.190   5.096  13.560  0.00  0.00    +0.000 NA
ENDBRANCH  21  25
ENDBRANCH   1  21
TORSDOF 3
ENDMDL
MODEL 2
REMARK VINA RESULT:      -7.2      5.100      8.619
REMARK  Name = 
REMARK  5 active torsions:
REMARK  status: ('A' for Active; 'I' for Inactive)
REMARK    1  A    between atoms: C_1  and  C_2
REMARK    2  A    between atoms: C_4  and  C_5
REMARK    3  A    between atoms: C_5  and  C_6
REMARK    4  A    between atoms: C_13  and  C_14
REMARK    5  A    between atoms: C_21  and  O_22
REMARK                            x       y       z     vdW  Elec       q    Type
REMARK                         _______ _______ _______ _____ _____    ______ ____
ROOT
ATOM      1  C   UNL     1       1.013  12.651  18.676  0.00  0.00    +0.000 A 
ATOM      2  N   UNL     1       1.958  11.655  18.459  0.00  0.00    +0.000 NA
ATOM      3  C   UNL     1       1.270  10.538  18.590  0.00  0.00    +0.000 A 
ATOM      4  N   UNL     1      -0.059  10.882  18.776  0.00  0.00    +0.000 N 
ATOM      5  N   UNL     1      -0.249  12.210  18.694  0.00  0.00    +0.000 NA
ATOM      6  C   UNL     1      -0.980  10.100  19.577  0.00  0.00    +0.000 C 
ATOM      7  C   UNL     1      -0.342   9.951  20.912  0.00  0.00    +0.000 A 
ATOM      8  C   UNL     1      -0.473  10.638  22.102  0.00  0.00    +0.000 A 
ATOM      9  C   UNL     1      -1.270  11.849  22.400  0.00  0.00    +0.000 C 
ATOM     10  N   UNL     1       0.353  10.091  23.057  0.00  0.00    +0.000 NA
ATOM     11  C   UNL     1       1.070   9.187  22.426  0.00  0.00    +0.000 A 
ATOM     12  N   UNL     1       0.755   9.136  21.091  0.00  0.00    +0.000 N 
ATOM     13  C   UNL     1       1.490   8.490  20.073  0.00  0.00    +0.000 A 
ATOM     14  C   UNL     1       1.929   7.181  20.310  0.00  0.00    +0.000 A 
ATOM     15  C   UNL     1       2.652   6.517  19.326  0.00  0.00    +0.000 A 
ATOM     16  C   UNL     1       2.985   7.191  18.149  0.00  0.00    +0.000 A 
ATOM     17  C   UNL     1       2.568   8.503  17.916  0.00  0.00    +0.000 A 
ATOM     18  C   UNL     1       1.774   9.168  18.855  0.00  0.00    +0.000 A 
ENDROOT
BRANCH  16  19
ATOM     19  O   UNL     1       3.727   6.568  17.188  0.00  0.00    +0.000 OA
ATOM     20  H   UNL     1       3.827   7.157  16.423  0.00  0.00    +0.000 HD
ENDBRANCH  16  19
BRANCH   1  21
ATOM     21  C   UNL     1       1.334  14.050  19.095  0.00  0.00    +0.000 C 
BRANCH  21  25
ATOM     22  C   UNL     1       5.754  14.825  21.484  0.00  0.00    +0.000 C 
ATOM     23  C   UNL     1       4.396  14.396  21.089  0.00  0.00    +0.000 A 
ATOM     24  C   UNL     1       3.776  14.610  19.848  0.00  0.00    +0.000 A 
ATOM     25  C   UNL     1       2.513  14.100  19.996  0.00  0.00    +0.000 A 
ATOM     26  O   UNL     1       2.393  13.565  21.245  0.00  0.00    +0.000 OA
ATOM     27  N   UNL     1       3.584  13.755  21.939  0.00  0.00    +0.000 NA
ENDBRANCH  21  25
ENDBRANCH   1  21
TORSDOF 3
ENDMDL
MODEL 3
REMARK VINA RESULT:      -7.1      1.260      1.441
REMARK  Name = 
REMARK  5 active torsions:
REMARK  status: ('A' for Active; 'I' for Inactive)
REMARK    1  A    between atoms: C_1  and  C_2
REMARK    2  A    between atoms: C_4  and  C_5
REMARK    3  A    between atoms: C_5  and  C_6
REMARK    4  A    between atoms: C_13  and  C_14
REMARK    5  A    between atoms: C_21  and  O_22
REMARK                            x       y       z     vdW  Elec       q    Type
REMARK                         _______ _______ _______ _____ _____    ______ ____
ROOT
ATOM      1  C   UNL     1       5.778   4.922  16.459  0.00  0.00    +0.000 A 
ATOM      2  N   UNL     1       4.862   5.947  16.261  0.00  0.00    +0.000 NA
ATOM      3  C   UNL     1       4.608   6.379  17.479  0.00  0.00    +0.000 A 
ATOM      4  N   UNL     1       5.434   5.690  18.351  0.00  0.00    +0.000 N 
ATOM      5  N   UNL     1       6.273   4.865  17.700  0.00  0.00    +0.000 NA
ATOM      6  C   UNL     1       5.058   5.360  19.712  0.00  0.00    +0.000 C 
ATOM      7  C   UNL     1       3.764   4.634  19.620  0.00  0.00    +0.000 A 
ATOM      8  C   UNL     1       3.432   3.295  19.597  0.00  0.00    +0.000 A 
ATOM      9  C   UNL     1       4.322   2.112  19.574  0.00  0.00    +0.000 C 
ATOM     10  N   UNL     1       2.068   3.147  19.503  0.00  0.00    +0.000 NA
ATOM     11  C   UNL     1       1.593   4.361  19.329  0.00  0.00    +0.000 A 
ATOM     12  N   UNL     1       2.599   5.294  19.289  0.00  0.00    +0.000 N 
ATOM     13  C   UNL     1       2.492   6.635  18.859  0.00  0.00    +0.000 A 
ATOM     14  C   UNL     1       1.421   7.395  19.343  0.00  0.00    +0.000 A 
ATOM     15  C   UNL     1       1.290   8.719  18.940  0.00  0.00    +0.000 A 
ATOM     16  C   UNL     1       2.189   9.244  18.010  0.00  0.00    +0.000 A 
ATOM     17  C   UNL     1       3.248   8.484  17.508  0.00  0.00    +0.000 A 
ATOM     18  C   UNL     1       3.449   7.175  17.955  0.00  0.00    +0.000 A 
ENDROOT
BRANCH  16  19
ATOM     19  O   UNL     1       2.054  10.530  17.575  0.00  0.00    +0.000 OA
ATOM     20  H   UNL     1       2.109  11.136  18.332  0.00  0.00    +0.000 HD
ENDBRANCH  16  19
BRANCH   1  21
ATOM     21  C   UNL     1       6.039   3.815  15.488  0.00  0.00    +0.000 C 
BRANCH  21  25
ATOM     22  C   UNL     1       7.541   5.026  10.785  0.00  0.00    +0.000 C 
ATOM     23  C   UNL     1       7.397   4.879  12.248  0.00  0.00    +0.000 A 
ATOM     24  C   UNL     1       6.498   4.036  12.923  0.00  0.00    +0.000 A 
ATOM     25  C   UNL     1       6.694   4.309  14.251  0.00  0.00    +0.000 A 
ATOM     26  O   UNL     1       7.690   5.232  14.373  0.00  0.00    +0.000 OA
ATOM     27  N   UNL     1       8.134   5.596  13.105  0.00  0.00    +0.000 NA
ENDBRANCH  21  25
ENDBRANCH   1  21
TORSDOF 3
ENDMDL
MODEL 4
REMARK VINA RESULT:      -7.1      2.885      4.776
REMARK  Name = 
REMARK  5 active torsions:
REMARK  status: ('A' for Active; 'I' for Inactive)
REMARK    1  A    between atoms: C_1  and  C_2
REMARK    2  A    between atoms: C_4  and  C_5
REMARK    3  A    between atoms: C_5  and  C_6
REMARK    4  A    between atoms: C_13  and  C_14
REMARK    5  A    between atoms: C_21  and  O_22
REMARK                            x       y       z     vdW  Elec       q    Type
REMARK                         _______ _______ _______ _____ _____    ______ ____
ROOT
ATOM      1  C   UNL     1       5.501   5.044  14.811  0.00  0.00    +0.000 A 
ATOM      2  N   UNL     1       4.927   3.971  15.482  0.00  0.00    +0.000 NA
ATOM      3  C   UNL     1       4.399   4.522  16.556  0.00  0.00    +0.000 A 
ATOM      4  N   UNL     1       4.575   5.892  16.456  0.00  0.00    +0.000 N 
ATOM      5  N   UNL     1       5.148   6.240  15.291  0.00  0.00    +0.000 NA
ATOM      6  C   UNL     1       4.761   6.758  17.604  0.00  0.00    +0.000 C 
ATOM      7  C   UNL     1       5.906   6.193  18.367  0.00  0.00    +0.000 A 
ATOM      8  C   UNL     1       7.255   6.482  18.395  0.00  0.00    +0.000 A 
ATOM      9  C   UNL     1       8.024   7.440  17.570  0.00  0.00    +0.000 C 
ATOM     10  N   UNL     1       7.896   5.658  19.290  0.00  0.00    +0.000 NA
ATOM     11  C   UNL     1       6.987   4.795  19.689  0.00  0.00    +0.000 A 
ATOM     12  N   UNL     1       5.780   5.016  19.074  0.00  0.00    +0.000 N 
ATOM     13  C   UNL     1       4.669   4.144  19.052  0.00  0.00    +0.000 A 
ATOM     14  C   UNL     1       4.268   3.563  20.261  0.00  0.00    +0.000 A 
ATOM     15  C   UNL     1       3.177   2.702  20.273  0.00  0.00    +0.000 A 
ATOM     16  C   UNL     1       2.545   2.381  19.070  0.00  0.00    +0.000 A 
ATOM     17  C   UNL     1       2.953   2.942  17.858  0.00  0.00    +0.000 A 
ATOM     18  C   UNL     1       3.999   3.870  17.828  0.00  0.00    +0.000 A 
ENDROOT
BRANCH  16  19
ATOM     19  O   UNL     1       1.496   1.509  19.057  0.00  0.00    +0.000 OA
ATOM     20  H   UNL     1       1.233   1.304  19.969  0.00  0.00    +0.000 HD
ENDBRANCH  16  19
BRANCH   1  21
ATOM     21  C   UNL     1       6.600   4.926  13.802  0.00  0.00    +0.000 C 
BRANCH  21  25
ATOM     22  C   UNL     1       6.622   0.932  10.656  0.00  0.00    +0.000 C 
ATOM     23  C   UNL     1       6.269   2.130  11.447  0.00  0.00    +0.000 A 
ATOM     24  C   UNL     1       7.138   2.901  12.236  0.00  0.00    +0.000 A 
ATOM     25  C   UNL     1       6.334   3.843  12.821  0.00  0.00    +0.000 A 
ATOM     26  O   UNL     1       5.057   3.679  12.372  0.00  0.00    +0.000 OA
ATOM     27  N   UNL     1       5.014   2.592  11.505  0.00  0.00    +0.000 NA
ENDBRANCH  21  25
ENDBRANCH   1  21
TORSDOF 3
ENDMDL
MODEL 5
REMARK VINA RESULT:      -6.9      5.082      8.412
REMARK  Name = 
REMARK  5 active torsions:
REMARK  status: ('A' for Active; 'I' for Inactive)
REMARK    1  A    between atoms: C_1  and  C_2
REMARK    2  A    between atoms: C_4  and  C_5
REMARK    3  A    between atoms: C_5  and  C_6
REMARK    4  A    between atoms: C_13  and  C_14
REMARK    5  A    between atoms: C_21  and  O_22
REMARK                            x       y       z     vdW  Elec       q    Type
REMARK                         _______ _______ _______ _____ _____    ______ ____
ROOT
ATOM      1  C   UNL     1       0.986  12.710  18.694  0.00  0.00    +0.000 A 
ATOM      2  N   UNL     1       1.935  11.717  18.478  0.00  0.00    +0.000 NA
ATOM      3  C   UNL     1       1.247  10.599  18.595  0.00  0.00    +0.000 A 
ATOM      4  N   UNL     1      -0.084  10.940  18.771  0.00  0.00    +0.000 N 
ATOM      5  N   UNL     1      -0.275  12.268  18.698  0.00  0.00    +0.000 NA
ATOM      6  C   UNL     1      -1.011  10.151  19.559  0.00  0.00    +0.000 C 
ATOM      7  C   UNL     1      -0.385   9.992  20.898  0.00  0.00    +0.000 A 
ATOM      8  C   UNL     1      -0.527  10.671  22.092  0.00  0.00    +0.000 A 
ATOM      9  C   UNL     1      -1.328  11.879  22.391  0.00  0.00    +0.000 C 
ATOM     10  N   UNL     1       0.290  10.118  23.050  0.00  0.00    +0.000 NA
ATOM     11  C   UNL     1       1.015   9.220  22.419  0.00  0.00    +0.000 A 
ATOM     12  N   UNL     1       0.711   9.178  21.081  0.00  0.00    +0.000 N 
ATOM     13  C   UNL     1       1.457   8.540  20.065  0.00  0.00    +0.000 A 
ATOM     14  C   UNL     1       1.895   7.230  20.296  0.00  0.00    +0.000 A 
ATOM     15  C   UNL     1       2.628   6.575  19.314  0.00  0.00    +0.000 A 
ATOM     16  C   UNL     1       2.970   7.258  18.145  0.00  0.00    +0.000 A 
ATOM     17  C   UNL     1       2.554   8.571  17.918  0.00  0.00    +0.000 A 
ATOM     18  C   UNL     1       1.750   9.227  18.855  0.00  0.00    +0.000 A 
ENDROOT
BRANCH  16  19
ATOM     19  O   UNL     1       3.721   6.642  17.187  0.00  0.00    +0.000 OA
ATOM     20  H   UNL     1       4.412   6.107  17.610  0.00  0.00    +0.000 HD
ENDBRANCH  16  19
BRANCH   1  21
ATOM     21  C   UNL     1       1.302  14.107  19.126  0.00  0.00    +0.000 C 
BRANCH  21  25
ATOM     22  C   UNL     1       6.154  15.212  18.083  0.00  0.00    +0.000 C 
ATOM     23  C   UNL     1       4.875  14.848  18.729  0.00  0.00    +0.000 A 
ATOM     24  C   UNL     1       3.653  14.591  18.087  0.00  0.00    +0.000 A 
ATOM     25  C   UNL     1       2.762  14.375  19.105  0.00  0.00    +0.000 A 
ATOM     26  O   UNL     1       3.421  14.450  20.296  0.00  0.00    +0.000 OA
ATOM     27  N   UNL     1       4.759  14.753  20.059  0.00  0.00    +0.000 NA
ENDBRANCH  21  25
ENDBRANCH   1  21
TORSDOF 3
ENDMDL
MODEL 6
REMARK VINA RESULT:      -6.8      2.796      6.545
REMARK  Name = 
REMARK  5 active torsions:
REMARK  status: ('A' for Active; 'I' for Inactive)
REMARK    1  A    between atoms: C_1  and  C_2
REMARK    2  A    between atoms: C_4  and  C_5
REMARK    3  A    between atoms: C_5  and  C_6
REMARK    4  A    between atoms: C_13  and  C_14
REMARK    5  A    between atoms: C_21  and  O_22
REMARK                            x       y       z     vdW  Elec       q    Type
REMARK                         _______ _______ _______ _____ _____    ______ ____
ROOT
ATOM      1  C   UNL     1       2.083   6.941  19.753  0.00  0.00    +0.000 A 
ATOM      2  N   UNL     1       3.228   6.981  18.965  0.00  0.00    +0.000 NA
ATOM      3  C   UNL     1       3.085   5.951  18.156  0.00  0.00    +0.000 A 
ATOM      4  N   UNL     1       1.842   5.391  18.402  0.00  0.00    +0.000 N 
ATOM      5  N   UNL     1       1.148   6.093  19.314  0.00  0.00    +0.000 NA
ATOM      6  C   UNL     1       1.565   3.975  18.263  0.00  0.00    +0.000 C 
ATOM      7  C   UNL     1       2.571   3.271  19.101  0.00  0.00    +0.000 A 
ATOM      8  C   UNL     1       2.543   2.771  20.388  0.00  0.00    +0.000 A 
ATOM      9  C   UNL     1       1.470   2.864  21.404  0.00  0.00    +0.000 C 
ATOM     10  N   UNL     1       3.754   2.198  20.698  0.00  0.00    +0.000 NA
ATOM     11  C   UNL     1       4.543   2.468  19.681  0.00  0.00    +0.000 A 
ATOM     12  N   UNL     1       3.895   3.210  18.726  0.00  0.00    +0.000 N 
ATOM     13  C   UNL     1       4.489   3.898  17.644  0.00  0.00    +0.000 A 
ATOM     14  C   UNL     1       5.439   3.216  16.875  0.00  0.00    +0.000 A 
ATOM     15  C   UNL     1       6.039   3.864  15.802  0.00  0.00    +0.000 A 
ATOM     16  C   UNL     1       5.732   5.204  15.553  0.00  0.00    +0.000 A 
ATOM     17  C   UNL     1       4.800   5.896  16.329  0.00  0.00    +0.000 A 
ATOM     18  C   UNL     1       4.125   5.245  17.366  0.00  0.00    +0.000 A 
ENDROOT
BRANCH  16  19
ATOM     19  O   UNL     1       6.339   5.868  14.528  0.00  0.00    +0.000 OA
ATOM     20  H   UNL     1       7.302   5.851  14.655  0.00  0.00    +0.000 HD
ENDBRANCH  16  19
BRANCH   1  21
ATOM     21  C   UNL     1       1.956   7.578  21.100  0.00  0.00    +0.000 C 
BRANCH  21  25
ATOM     22  C   UNL     1      -0.723  11.755  19.997  0.00  0.00    +0.000 C 
ATOM     23  C   UNL     1       0.153  10.738  20.615  0.00  0.00    +0.000 A 
ATOM     24  C   UNL     1       0.558   9.520  20.045  0.00  0.00    +0.000 A 
ATOM     25  C   UNL     1       1.290   8.903  21.024  0.00  0.00    +0.000 A 
ATOM     26  O   UNL     1       1.364   9.725  22.110  0.00  0.00    +0.000 OA
ATOM     27  N   UNL     1       0.641  10.886  21.853  0.00  0.00    +0.000 NA
ENDBRANCH  21  25
ENDBRANCH   1  21
TORSDOF 3
ENDMDL
MODEL 7
REMARK VINA RESULT:      -6.8      2.726      6.593
REMARK  Name = 
REMARK  5 active torsions:
REMARK  status: ('A' for Active; 'I' for Inactive)
REMARK    1  A    between atoms: C_1  and  C_2
REMARK    2  A    between atoms: C_4  and  C_5
REMARK    3  A    between atoms: C_5  and  C_6
REMARK    4  A    between atoms: C_13  and  C_14
REMARK    5  A    between atoms: C_21  and  O_22
REMARK                            x       y       z     vdW  Elec       q    Type
REMARK                         _______ _______ _______ _____ _____    ______ ____
ROOT
ATOM      1  C   UNL     1       2.004   7.175  19.664  0.00  0.00    +0.000 A 
ATOM      2  N   UNL     1       3.348   7.326  19.344  0.00  0.00    +0.000 NA
ATOM      3  C   UNL     1       3.551   6.415  18.413  0.00  0.00    +0.000 A 
ATOM      4  N   UNL     1       2.332   5.824  18.130  0.00  0.00    +0.000 N 
ATOM      5  N   UNL     1       1.327   6.393  18.818  0.00  0.00    +0.000 NA
ATOM      6  C   UNL     1       2.193   4.439  17.723  0.00  0.00    +0.000 C 
ATOM      7  C   UNL     1       2.876   3.630  18.768  0.00  0.00    +0.000 A 
ATOM      8  C   UNL     1       2.425   2.960  19.887  0.00  0.00    +0.000 A 
ATOM      9  C   UNL     1       1.061   2.910  20.460  0.00  0.00    +0.000 C 
ATOM     10  N   UNL     1       3.478   2.353  20.530  0.00  0.00    +0.000 NA
ATOM     11  C   UNL     1       4.558   2.761  19.902  0.00  0.00    +0.000 A 
ATOM     12  N   UNL     1       4.250   3.626  18.882  0.00  0.00    +0.000 N 
ATOM     13  C   UNL     1       5.149   4.457  18.176  0.00  0.00    +0.000 A 
ATOM     14  C   UNL     1       6.342   3.888  17.714  0.00  0.00    +0.000 A 
ATOM     15  C   UNL     1       7.246   4.679  17.014  0.00  0.00    +0.000 A 
ATOM     16  C   UNL     1       6.977   6.039  16.845  0.00  0.00    +0.000 A 
ATOM     17  C   UNL     1       5.798   6.616  17.321  0.00  0.00    +0.000 A 
ATOM     18  C   UNL     1       4.836   5.827  17.961  0.00  0.00    +0.000 A 
ENDROOT
BRANCH  16  19
ATOM     19  O   UNL     1       7.870   6.838  16.193  0.00  0.00    +0.000 OA
ATOM     20  H   UNL     1       7.858   7.726  16.586  0.00  0.00    +0.000 HD
ENDBRANCH  16  19
BRANCH   1  21
ATOM     21  C   UNL     1       1.381   7.622  20.948  0.00  0.00    +0.000 C 
BRANCH  21  25
ATOM     22  C   UNL     1      -0.343  12.304  19.970  0.00  0.00    +0.000 C 
ATOM     23  C   UNL     1       0.293  11.106  20.558  0.00  0.00    +0.000 A 
ATOM     24  C   UNL     1       0.433   9.847  19.951  0.00  0.00    +0.000 A 
ATOM     25  C   UNL     1       1.011   9.060  20.911  0.00  0.00    +0.000 A 
ATOM     26  O   UNL     1       1.250   9.815  22.021  0.00  0.00    +0.000 OA
ATOM     27  N   UNL     1       0.792  11.110  21.799  0.00  0.00    +0.000 NA
ENDBRANCH  21  25
ENDBRANCH   1  21
TORSDOF 3
ENDMDL
MODEL 8
REMARK VINA RESULT:      -6.7      6.086      9.601
REMARK  Name = 
REMARK  5 active torsions:
REMARK  status: ('A' for Active; 'I' for Inactive)
REMARK    1  A    between atoms: C_1  and  C_2
REMARK    2  A    between atoms: C_4  and  C_5
REMARK    3  A    between atoms: C_5  and  C_6
REMARK    4  A    between atoms: C_13  and  C_14
REMARK    5  A    between atoms: C_21  and  O_22
REMARK                            x       y       z     vdW  Elec       q    Type
REMARK                         _______ _______ _______ _____ _____    ______ ____
ROOT
ATOM      1  C   UNL     1       0.867  13.512  19.355  0.00  0.00    +0.000 A 
ATOM      2  N   UNL     1       1.786  12.518  19.040  0.00  0.00    +0.000 NA
ATOM      3  C   UNL     1       1.052  11.425  18.974  0.00  0.00    +0.000 A 
ATOM      4  N   UNL     1      -0.271  11.796  19.145  0.00  0.00    +0.000 N 
ATOM      5  N   UNL     1      -0.409  13.129  19.250  0.00  0.00    +0.000 NA
ATOM      6  C   UNL     1      -1.261  10.947  19.779  0.00  0.00    +0.000 C 
ATOM      7  C   UNL     1      -0.701  10.580  21.107  0.00  0.00    +0.000 A 
ATOM      8  C   UNL     1      -0.869  11.093  22.377  0.00  0.00    +0.000 A 
ATOM      9  C   UNL     1      -1.637  12.282  22.810  0.00  0.00    +0.000 C 
ATOM     10  N   UNL     1      -0.116  10.379  23.279  0.00  0.00    +0.000 NA
ATOM     11  C   UNL     1       0.601   9.545  22.557  0.00  0.00    +0.000 A 
ATOM     12  N   UNL     1       0.355   9.701  21.216  0.00  0.00    +0.000 N 
ATOM     13  C   UNL     1       1.119   9.177  20.150  0.00  0.00    +0.000 A 
ATOM     14  C   UNL     1       1.497   7.830  20.214  0.00  0.00    +0.000 A 
ATOM     15  C   UNL     1       2.247   7.284  19.179  0.00  0.00    +0.000 A 
ATOM     16  C   UNL     1       2.666   8.106  18.130  0.00  0.00    +0.000 A 
ATOM     17  C   UNL     1       2.310   9.454  18.071  0.00  0.00    +0.000 A 
ATOM     18  C   UNL     1       1.491  10.010  19.059  0.00  0.00    +0.000 A 
ENDROOT
BRANCH  16  19
ATOM     19  O   UNL     1       3.434   7.596  17.124  0.00  0.00    +0.000 OA
ATOM     20  H   UNL     1       2.906   6.977  16.594  0.00  0.00    +0.000 HD
ENDBRANCH  16  19
BRANCH   1  21
ATOM     21  C   UNL     1       1.216  14.821  19.989  0.00  0.00    +0.000 C 
BRANCH  21  25
ATOM     22  C   UNL     1       0.153  18.630  16.793  0.00  0.00    +0.000 C 
ATOM     23  C   UNL     1       0.809  17.591  17.614  0.00  0.00    +0.000 A 
ATOM     24  C   UNL     1       0.174  16.596  18.375  0.00  0.00    +0.000 A 
ATOM     25  C   UNL     1       1.193  15.934  19.006  0.00  0.00    +0.000 A 
ATOM     26  O   UNL     1       2.383  16.470  18.611  0.00  0.00    +0.000 OA
ATOM     27  N   UNL     1       2.141  17.521  17.732  0.00  0.00    +0.000 NA
ENDBRANCH  21  25
ENDBRANCH   1  21
TORSDOF 3
ENDMDL
MODEL 9
REMARK VINA RESULT:      -6.6      5.624      8.522
REMARK  Name = 
REMARK  5 active torsions:
REMARK  status: ('A' for Active; 'I' for Inactive)
REMARK    1  A    between atoms: C_1  and  C_2
REMARK    2  A    between atoms: C_4  and  C_5
REMARK    3  A    between atoms: C_5  and  C_6
REMARK    4  A    between atoms: C_13  and  C_14
REMARK    5  A    between atoms: C_21  and  O_22
REMARK                            x       y       z     vdW  Elec       q    Type
REMARK                         _______ _______ _______ _____ _____    ______ ____
ROOT
ATOM      1  C   UNL     1       0.576  10.110  19.597  0.00  0.00    +0.000 A 
ATOM      2  N   UNL     1      -0.474   9.707  18.781  0.00  0.00    +0.000 NA
ATOM      3  C   UNL     1      -1.008  10.842  18.376  0.00  0.00    +0.000 A 
ATOM      4  N   UNL     1      -0.223  11.873  18.863  0.00  0.00    +0.000 N 
ATOM      5  N   UNL     1       0.856  11.415  19.521  0.00  0.00    +0.000 NA
ATOM      6  C   UNL     1      -0.752  13.174  19.225  0.00  0.00    +0.000 C 
ATOM      7  C   UNL     1      -1.848  12.920  20.196  0.00  0.00    +0.000 A 
ATOM      8  C   UNL     1      -1.907  12.924  21.575  0.00  0.00    +0.000 A 
ATOM      9  C   UNL     1      -0.816  13.114  22.557  0.00  0.00    +0.000 C 
ATOM     10  N   UNL     1      -3.182  12.622  21.995  0.00  0.00    +0.000 NA
ATOM     11  C   UNL     1      -3.845  12.303  20.905  0.00  0.00    +0.000 A 
ATOM     12  N   UNL     1      -3.045  12.369  19.792  0.00  0.00    +0.000 N 
ATOM     13  C   UNL     1      -3.334  11.848  18.511  0.00  0.00    +0.000 A 
ATOM     14  C   UNL     1      -4.598  12.109  17.967  0.00  0.00    +0.000 A 
ATOM     15  C   UNL     1      -4.911  11.612  16.707  0.00  0.00    +0.000 A 
ATOM     16  C   UNL     1      -3.986  10.808  16.038  0.00  0.00    +0.000 A 
ATOM     17  C   UNL     1      -2.732  10.528  16.584  0.00  0.00    +0.000 A 
ATOM     18  C   UNL     1      -2.361  11.078  17.815  0.00  0.00    +0.000 A 
ENDROOT
BRANCH  16  19
ATOM     19  O   UNL     1      -4.291  10.282  14.817  0.00  0.00    +0.000 OA
ATOM     20  H   UNL     1      -3.472  10.096  14.330  0.00  0.00    +0.000 HD
ENDBRANCH  16  19
BRANCH   1  21
ATOM     21  C   UNL     1       1.204   9.261  20.656  0.00  0.00    +0.000 C 
BRANCH  21  25
ATOM     22  C   UNL     1       3.363   5.452  18.071  0.00  0.00    +0.000 C 
ATOM     23  C   UNL     1       2.623   6.284  19.043  0.00  0.00    +0.000 A 
ATOM     24  C   UNL     1       2.348   7.657  18.935  0.00  0.00    +0.000 A 
ATOM     25  C   UNL     1       1.713   7.979  20.105  0.00  0.00    +0.000 A 
ATOM     26  O   UNL     1       1.571   6.851  20.859  0.00  0.00    +0.000 OA
ATOM     27  N   UNL     1       2.150   5.778  20.188  0.00  0.00    +0.000 NA
ENDBRANCH  21  25
ENDBRANCH   1  21
TORSDOF 3
ENDMDL
