MODEL 1
REMARK VINA RESULT:      -7.0      0.000      0.000
REMARK  Name = 
REMARK  7 active torsions:
REMARK  status: ('A' for Active; 'I' for Inactive)
REMARK    1  A    between atoms: C_1  and  O_2
REMARK    2  A    between atoms: O_2  and  C_3
REMARK    3  A    between atoms: C_6  and  C_7
REMARK    4  A    between atoms: C_7  and  C_8
REMARK    5  A    between atoms: C_8  and  C_9
REMARK    6  A    between atoms: N_11  and  C_12
REMARK    7  A    between atoms: C_15  and  O_16
REMARK                            x       y       z     vdW  Elec       q    Type
REMARK                         _______ _______ _______ _____ _____    ______ ____
ROOT
ATOM      1  C   UNL     1       5.764   5.206  19.451  0.00  0.00    +0.000 C 
ATOM      2  O   UNL     1       4.954   6.082  19.738  0.00  0.00    +0.000 OA
ATOM      3  N   UNL     1       5.445   3.896  19.136  0.00  0.00    +0.000 N 
ATOM      4  H   UNL     1       6.202   3.222  19.113  0.00  0.00    +0.000 HD
ENDROOT
BRANCH   3   5
ATOM      5  C   UNL     1       4.131   3.385  19.001  0.00  0.00    +0.000 A 
ATOM      6  C   UNL     1       3.367   2.957  20.090  0.00  0.00    +0.000 A 
ATOM      7  C   UNL     1       2.080   2.443  19.913  0.00  0.00    +0.000 A 
ATOM      8  C   UNL     1       1.552   2.361  18.633  0.00  0.00    +0.000 A 
ATOM      9  C   UNL     1       2.286   2.794  17.536  0.00  0.00    +0.000 A 
ATOM     10  C   UNL     1       3.572   3.319  17.719  0.00  0.00    +0.000 A 
BRANCH   8  11
ATOM     11  O   UNL     1       0.303   1.860  18.417  0.00  0.00    +0.000 OA
ATOM     12  H   UNL     1       0.285   0.939  18.726  0.00  0.00    +0.000 HD
ENDBRANCH   8  11
ENDBRANCH   3   5
BRANCH   1  13
ATOM     13  C   UNL     1       7.253   5.493  19.431  0.00  0.00    +0.000 C 
BRANCH  13  14
ATOM     14  C   UNL     1       7.590   6.328  18.191  0.00  0.00    +0.000 C 
BRANCH  14  18
ATOM     15  C   UNL     1       5.739   4.789  14.611  0.00  0.00    +0.000 A 
ATOM     16  C   UNL     1       6.887   4.187  15.128  0.00  0.00    +0.000 A 
ATOM     17  C   UNL     1       7.495   4.691  16.278  0.00  0.00    +0.000 A 
ATOM     18  C   UNL     1       6.966   5.815  16.921  0.00  0.00    +0.000 A 
ATOM     19  C   UNL     1       5.831   6.434  16.385  0.00  0.00    +0.000 A 
ATOM     20  C   UNL     1       5.218   5.923  15.236  0.00  0.00    +0.000 A 
BRANCH  15  22
ATOM     21  C   UNL     1       6.148   3.410  12.735  0.00  0.00    +0.000 C 
ATOM     22  O   UNL     1       5.233   4.204  13.482  0.00  0.00    +0.000 OA
ENDBRANCH  15  22
ENDBRANCH  14  18
ENDBRANCH  13  14
ENDBRANCH   1  13
TORSDOF 6
ENDMDL
MODEL 2
REMARK VINA RESULT:      -6.9      0.270      1.104
REMARK  Name = 
REMARK  7 active torsions:
REMARK  status: ('A' for Active; 'I' for Inactive)
REMARK    1  A    between atoms: C_1  and  O_2
REMARK    2  A    between atoms: O_2  and  C_3
REMARK    3  A    between atoms: C_6  and  C_7
REMARK    4  A    between atoms: C_7  and  C_8
REMARK    5  A    between atoms: C_8  and  C_9
REMARK    6  A    between atoms: N_11  and  C_12
REMARK    7  A    between atoms: C_15  and  O_16
REMARK                            x       y       z     vdW  Elec       q    Type
REMARK                         _______ _______ _______ _____ _____    ______ ____
ROOT
ATOM      1  C   UNL     1       5.572   5.185  19.344  0.00  0.00    +0.000 C 
ATOM      2  O   UNL     1       4.714   6.057  19.444  0.00  0.00    +0.000 OA
ATOM      3  N   UNL     1       5.320   3.838  19.147  0.00  0.00    +0.000 N 
ATOM      4  H   UNL     1       6.092   3.194  19.279  0.00  0.00    +0.000 HD
ENDROOT
BRANCH   3   5
ATOM      5  C   UNL     1       4.042   3.267  18.935  0.00  0.00    +0.000 A 
ATOM      6  C   UNL     1       3.547   2.965  17.663  0.00  0.00    +0.000 A 
ATOM      7  C   UNL     1       2.273   2.418  17.493  0.00  0.00    +0.000 A 
ATOM      8  C   UNL     1       1.489   2.166  18.610  0.00  0.00    +0.000 A 
ATOM      9  C   UNL     1       1.964   2.443  19.885  0.00  0.00    +0.000 A 
ATOM     10  C   UNL     1       3.247   2.982  20.051  0.00  0.00    +0.000 A 
BRANCH   8  11
ATOM     11  O   UNL     1       0.238   1.639  18.487  0.00  0.00    +0.000 OA
ATOM     12  H   UNL     1      -0.403   2.290  18.817  0.00  0.00    +0.000 HD
ENDBRANCH   8  11
ENDBRANCH   3   5
BRANCH   1  13
ATOM     13  C   UNL     1       7.047   5.522  19.446  0.00  0.00    +0.000 C 
BRANCH  13  14
ATOM     14  C   UNL     1       7.491   6.238  18.167  0.00  0.00    +0.000 C 
BRANCH  14  18
ATOM     15  C   UNL     1       5.731   4.530  14.618  0.00  0.00    +0.000 A 
ATOM     16  C   UNL     1       6.719   3.839  15.320  0.00  0.00    +0.000 A 
ATOM     17  C   UNL     1       7.299   4.396  16.460  0.00  0.00    +0.000 A 
ATOM     18  C   UNL     1       6.904   5.661  16.907  0.00  0.00    +0.000 A 
ATOM     19  C   UNL     1       5.934   6.364  16.185  0.00  0.00    +0.000 A 
ATOM     20  C   UNL     1       5.348   5.802  15.046  0.00  0.00    +0.000 A 
BRANCH  15  22
ATOM     21  C   UNL     1       6.186   3.575  12.504  0.00  0.00    +0.000 C 
ATOM     22  O   UNL     1       5.237   3.883  13.518  0.00  0.00    +0.000 OA
ENDBRANCH  15  22
ENDBRANCH  14  18
ENDBRANCH  13  14
ENDBRANCH   1  13
TORSDOF 6
ENDMDL
MODEL 3
REMARK VINA RESULT:      -6.8      0.269      1.537
REMARK  Name = 
REMARK  7 active torsions:
REMARK  status: ('A' for Active; 'I' for Inactive)
REMARK    1  A    between atoms: C_1  and  O_2
REMARK    2  A    between atoms: O_2  and  C_3
REMARK    3  A    between atoms: C_6  and  C_7
REMARK    4  A    between atoms: C_7  and  C_8
REMARK    5  A    between atoms: C_8  and  C_9
REMARK    6  A    between atoms: N_11  and  C_12
REMARK    7  A    between atoms: C_15  and  O_16
REMARK                            x       y       z     vdW  Elec       q    Type
REMARK                         _______ _______ _______ _____ _____    ______ ____
ROOT
ATOM      1  C   UNL     1       5.629   5.213  19.392  0.00  0.00    +0.000 C 
ATOM      2  O   UNL     1       4.758   6.066  19.538  0.00  0.00    +0.000 OA
ATOM      3  N   UNL     1       5.398   3.864  19.184  0.00  0.00    +0.000 N 
ATOM      4  H   UNL     1       6.187   3.235  19.277  0.00  0.00    +0.000 HD
ENDROOT
BRANCH   3   5
ATOM      5  C   UNL     1       4.124   3.271  19.010  0.00  0.00    +0.000 A 
ATOM      6  C   UNL     1       3.595   2.963  17.754  0.00  0.00    +0.000 A 
ATOM      7  C   UNL     1       2.326   2.393  17.623  0.00  0.00    +0.000 A 
ATOM      8  C   UNL     1       1.583   2.123  18.762  0.00  0.00    +0.000 A 
ATOM      9  C   UNL     1       2.094   2.404  20.023  0.00  0.00    +0.000 A 
ATOM     10  C   UNL     1       3.370   2.967  20.150  0.00  0.00    +0.000 A 
BRANCH   8  11
ATOM     11  O   UNL     1       0.339   1.572  18.678  0.00  0.00    +0.000 OA
ATOM     12  H   UNL     1      -0.067   1.594  19.560  0.00  0.00    +0.000 HD
ENDBRANCH   8  11
ENDBRANCH   3   5
BRANCH   1  13
ATOM     13  C   UNL     1       7.099   5.580  19.445  0.00  0.00    +0.000 C 
BRANCH  13  14
ATOM     14  C   UNL     1       7.500   6.252  18.128  0.00  0.00    +0.000 C 
BRANCH  14  18
ATOM     15  C   UNL     1       5.805   4.503  14.567  0.00  0.00    +0.000 A 
ATOM     16  C   UNL     1       5.341   5.730  15.042  0.00  0.00    +0.000 A 
ATOM     17  C   UNL     1       5.879   6.291  16.201  0.00  0.00    +0.000 A 
ATOM     18  C   UNL     1       6.883   5.623  16.908  0.00  0.00    +0.000 A 
ATOM     19  C   UNL     1       7.327   4.379  16.446  0.00  0.00    +0.000 A 
ATOM     20  C   UNL     1       6.793   3.821  15.280  0.00  0.00    +0.000 A 
BRANCH  15  22
ATOM     21  C   UNL     1       6.077   3.538  12.426  0.00  0.00    +0.000 C 
ATOM     22  O   UNL     1       5.203   4.056  13.423  0.00  0.00    +0.000 OA
ENDBRANCH  15  22
ENDBRANCH  14  18
ENDBRANCH  13  14
ENDBRANCH   1  13
TORSDOF 6
ENDMDL
MODEL 4
REMARK VINA RESULT:      -6.7      1.461      1.909
REMARK  Name = 
REMARK  7 active torsions:
REMARK  status: ('A' for Active; 'I' for Inactive)
REMARK    1  A    between atoms: C_1  and  O_2
REMARK    2  A    between atoms: O_2  and  C_3
REMARK    3  A    between atoms: C_6  and  C_7
REMARK    4  A    between atoms: C_7  and  C_8
REMARK    5  A    between atoms: C_8  and  C_9
REMARK    6  A    between atoms: N_11  and  C_12
REMARK    7  A    between atoms: C_15  and  O_16
REMARK                            x       y       z     vdW  Elec       q    Type
REMARK                         _______ _______ _______ _____ _____    ______ ____
ROOT
ATOM      1  C   UNL     1       6.490   4.707  18.690  0.00  0.00    +0.000 C 
ATOM      2  O   UNL     1       6.531   5.352  19.733  0.00  0.00    +0.000 OA
ATOM      3  N   UNL     1       5.496   3.805  18.348  0.00  0.00    +0.000 N 
ATOM      4  H   UNL     1       5.672   3.192  17.561  0.00  0.00    +0.000 HD
ENDROOT
BRANCH   3   5
ATOM      5  C   UNL     1       4.323   3.557  19.101  0.00  0.00    +0.000 A 
ATOM      6  C   UNL     1       4.262   2.602  20.120  0.00  0.00    +0.000 A 
ATOM      7  C   UNL     1       3.080   2.374  20.829  0.00  0.00    +0.000 A 
ATOM      8  C   UNL     1       1.950   3.115  20.519  0.00  0.00    +0.000 A 
ATOM      9  C   UNL     1       1.989   4.082  19.522  0.00  0.00    +0.000 A 
ATOM     10  C   UNL     1       3.179   4.314  18.820  0.00  0.00    +0.000 A 
BRANCH   8  11
ATOM     11  O   UNL     1       0.776   2.920  21.183  0.00  0.00    +0.000 OA
ATOM     12  H   UNL     1       0.960   2.409  21.988  0.00  0.00    +0.000 HD
ENDBRANCH   8  11
ENDBRANCH   3   5
BRANCH   1  13
ATOM     13  C   UNL     1       7.581   4.837  17.646  0.00  0.00    +0.000 C 
BRANCH  13  14
ATOM     14  C   UNL     1       7.117   5.797  16.546  0.00  0.00    +0.000 C 
BRANCH  14  18
ATOM     15  C   UNL     1       5.878   3.730  12.967  0.00  0.00    +0.000 A 
ATOM     16  C   UNL     1       7.139   4.322  13.041  0.00  0.00    +0.000 A 
ATOM     17  C   UNL     1       7.537   5.003  14.192  0.00  0.00    +0.000 A 
ATOM     18  C   UNL     1       6.669   5.109  15.284  0.00  0.00    +0.000 A 
ATOM     19  C   UNL     1       5.395   4.538  15.197  0.00  0.00    +0.000 A 
ATOM     20  C   UNL     1       5.000   3.850  14.045  0.00  0.00    +0.000 A 
BRANCH  15  22
ATOM     21  C   UNL     1       4.252   3.160  11.348  0.00  0.00    +0.000 C 
ATOM     22  O   UNL     1       5.603   3.090  11.790  0.00  0.00    +0.000 OA
ENDBRANCH  15  22
ENDBRANCH  14  18
ENDBRANCH  13  14
ENDBRANCH   1  13
TORSDOF 6
ENDMDL
MODEL 5
REMARK VINA RESULT:      -6.7      3.685      5.033
REMARK  Name = 
REMARK  7 active torsions:
REMARK  status: ('A' for Active; 'I' for Inactive)
REMARK    1  A    between atoms: C_1  and  O_2
REMARK    2  A    between atoms: O_2  and  C_3
REMARK    3  A    between atoms: C_6  and  C_7
REMARK    4  A    between atoms: C_7  and  C_8
REMARK    5  A    between atoms: C_8  and  C_9
REMARK    6  A    between atoms: N_11  and  C_12
REMARK    7  A    between atoms: C_15  and  O_16
REMARK                            x       y       z     vdW  Elec       q    Type
REMARK                         _______ _______ _______ _____ _____    ______ ____
ROOT
ATOM      1  C   UNL     1       2.369   4.916  18.824  0.00  0.00    +0.000 C 
ATOM      2  O   UNL     1       1.533   4.868  17.927  0.00  0.00    +0.000 OA
ATOM      3  N   UNL     1       2.782   6.069  19.469  0.00  0.00    +0.000 N 
ATOM      4  H   UNL     1       3.612   6.011  20.047  0.00  0.00    +0.000 HD
ENDROOT
BRANCH   3   5
ATOM      5  C   UNL     1       2.237   7.360  19.264  0.00  0.00    +0.000 A 
ATOM      6  C   UNL     1       1.516   8.045  20.246  0.00  0.00    +0.000 A 
ATOM      7  C   UNL     1       0.980   9.311  19.999  0.00  0.00    +0.000 A 
ATOM      8  C   UNL     1       1.172   9.899  18.758  0.00  0.00    +0.000 A 
ATOM      9  C   UNL     1       1.898   9.245  17.770  0.00  0.00    +0.000 A 
ATOM     10  C   UNL     1       2.443   7.980  18.025  0.00  0.00    +0.000 A 
BRANCH   8  11
ATOM     11  O   UNL     1       0.660  11.130  18.474  0.00  0.00    +0.000 OA
ATOM     12  H   UNL     1       0.532  11.608  19.310  0.00  0.00    +0.000 HD
ENDBRANCH   8  11
ENDBRANCH   3   5
BRANCH   1  13
ATOM     13  C   UNL     1       3.063   3.661  19.315  0.00  0.00    +0.000 C 
BRANCH  13  14
ATOM     14  C   UNL     1       4.099   3.216  18.277  0.00  0.00    +0.000 C 
BRANCH  14  18
ATOM     15  C   UNL     1       6.871   6.270  17.011  0.00  0.00    +0.000 A 
ATOM     16  C   UNL     1       6.943   5.740  18.300  0.00  0.00    +0.000 A 
ATOM     17  C   UNL     1       6.038   4.762  18.716  0.00  0.00    +0.000 A 
ATOM     18  C   UNL     1       5.040   4.309  17.847  0.00  0.00    +0.000 A 
ATOM     19  C   UNL     1       4.953   4.862  16.565  0.00  0.00    +0.000 A 
ATOM     20  C   UNL     1       5.864   5.838  16.147  0.00  0.00    +0.000 A 
BRANCH  15  22
ATOM     21  C   UNL     1       7.862   8.332  17.606  0.00  0.00    +0.000 C 
ATOM     22  O   UNL     1       7.811   7.220  16.719  0.00  0.00    +0.000 OA
ENDBRANCH  15  22
ENDBRANCH  14  18
ENDBRANCH  13  14
ENDBRANCH   1  13
TORSDOF 6
ENDMDL
MODEL 6
REMARK VINA RESULT:      -6.7      3.542      5.060
REMARK  Name = 
REMARK  7 active torsions:
REMARK  status: ('A' for Active; 'I' for Inactive)
REMARK    1  A    between atoms: C_1  and  O_2
REMARK    2  A    between atoms: O_2  and  C_3
REMARK    3  A    between atoms: C_6  and  C_7
REMARK    4  A    between atoms: C_7  and  C_8
REMARK    5  A    between atoms: C_8  and  C_9
REMARK    6  A    between atoms: N_11  and  C_12
REMARK    7  A    between atoms: C_15  and  O_16
REMARK                            x       y       z     vdW  Elec       q    Type
REMARK                         _______ _______ _______ _____ _____    ______ ____
ROOT
ATOM      1  C   UNL     1       1.790   4.819  20.717  0.00  0.00    +0.000 C 
ATOM      2  O   UNL     1       0.652   4.668  20.285  0.00  0.00    +0.000 OA
ATOM      3  N   UNL     1       2.560   5.958  20.555  0.00  0.00    +0.000 N 
ATOM      4  H   UNL     1       3.546   5.892  20.780  0.00  0.00    +0.000 HD
ENDROOT
BRANCH   3   5
ATOM      5  C   UNL     1       2.122   7.162  19.952  0.00  0.00    +0.000 A 
ATOM      6  C   UNL     1       1.417   8.148  20.648  0.00  0.00    +0.000 A 
ATOM      7  C   UNL     1       0.986   9.315  20.012  0.00  0.00    +0.000 A 
ATOM      8  C   UNL     1       1.271   9.499  18.667  0.00  0.00    +0.000 A 
ATOM      9  C   UNL     1       1.985   8.541  17.957  0.00  0.00    +0.000 A 
ATOM     10  C   UNL     1       2.422   7.377  18.601  0.00  0.00    +0.000 A 
BRANCH   8  11
ATOM     11  O   UNL     1       0.865  10.620  18.008  0.00  0.00    +0.000 OA
ATOM     12  H   UNL     1       0.120  11.010  18.496  0.00  0.00    +0.000 HD
ENDBRANCH   8  11
ENDBRANCH   3   5
BRANCH   1  13
ATOM     13  C   UNL     1       2.488   3.715  21.487  0.00  0.00    +0.000 C 
BRANCH  13  14
ATOM     14  C   UNL     1       2.961   2.636  20.507  0.00  0.00    +0.000 C 
BRANCH  14  18
ATOM     15  C   UNL     1       4.836   4.103  16.909  0.00  0.00    +0.000 A 
ATOM     16  C   UNL     1       5.489   4.202  18.138  0.00  0.00    +0.000 A 
ATOM     17  C   UNL     1       4.879   3.741  19.305  0.00  0.00    +0.000 A 
ATOM     18  C   UNL     1       3.598   3.182  19.257  0.00  0.00    +0.000 A 
ATOM     19  C   UNL     1       2.933   3.110  18.028  0.00  0.00    +0.000 A 
ATOM     20  C   UNL     1       3.549   3.566  16.858  0.00  0.00    +0.000 A 
BRANCH  15  22
ATOM     21  C   UNL     1       6.950   4.616  15.984  0.00  0.00    +0.000 C 
ATOM     22  O   UNL     1       5.535   4.587  15.837  0.00  0.00    +0.000 OA
ENDBRANCH  15  22
ENDBRANCH  14  18
ENDBRANCH  13  14
ENDBRANCH   1  13
TORSDOF 6
ENDMDL
MODEL 7
REMARK VINA RESULT:      -6.6      3.768      5.094
REMARK  Name = 
REMARK  7 active torsions:
REMARK  status: ('A' for Active; 'I' for Inactive)
REMARK    1  A    between atoms: C_1  and  O_2
REMARK    2  A    between atoms: O_2  and  C_3
REMARK    3  A    between atoms: C_6  and  C_7
REMARK    4  A    between atoms: C_7  and  C_8
REMARK    5  A    between atoms: C_8  and  C_9
REMARK    6  A    between atoms: N_11  and  C_12
REMARK    7  A    between atoms: C_15  and  O_16
REMARK                            x       y       z     vdW  Elec       q    Type
REMARK                         _______ _______ _______ _____ _____    ______ ____
ROOT
ATOM      1  C   UNL     1       2.505   4.856  19.493  0.00  0.00    +0.000 C 
ATOM      2  O   UNL     1       1.424   4.612  18.965  0.00  0.00    +0.000 OA
ATOM      3  N   UNL     1       2.973   6.121  19.804  0.00  0.00    +0.000 N 
ATOM      4  H   UNL     1       3.952   6.210  20.052  0.00  0.00    +0.000 HD
ENDROOT
BRANCH   3   5
ATOM      5  C   UNL     1       2.242   7.324  19.651  0.00  0.00    +0.000 A 
ATOM      6  C   UNL     1       2.204   8.043  18.453  0.00  0.00    +0.000 A 
ATOM      7  C   UNL     1       1.484   9.236  18.348  0.00  0.00    +0.000 A 
ATOM      8  C   UNL     1       0.791   9.710  19.451  0.00  0.00    +0.000 A 
ATOM      9  C   UNL     1       0.800   9.005  20.648  0.00  0.00    +0.000 A 
ATOM     10  C   UNL     1       1.515   7.805  20.747  0.00  0.00    +0.000 A 
BRANCH   8  11
ATOM     11  O   UNL     1       0.081  10.872  19.391  0.00  0.00    +0.000 OA
ATOM     12  H   UNL     1      -0.858  10.652  19.279  0.00  0.00    +0.000 HD
ENDBRANCH   8  11
ENDBRANCH   3   5
BRANCH   1  13
ATOM     13  C   UNL     1       3.469   3.743  19.853  0.00  0.00    +0.000 C 
BRANCH  13  14
ATOM     14  C   UNL     1       4.287   3.363  18.615  0.00  0.00    +0.000 C 
BRANCH  14  18
ATOM     15  C   UNL     1       6.936   6.433  17.142  0.00  0.00    +0.000 A 
ATOM     16  C   UNL     1       7.161   5.843  18.386  0.00  0.00    +0.000 A 
ATOM     17  C   UNL     1       6.298   4.859  18.870  0.00  0.00    +0.000 A 
ATOM     18  C   UNL     1       5.188   4.461  18.117  0.00  0.00    +0.000 A 
ATOM     19  C   UNL     1       4.949   5.075  16.883  0.00  0.00    +0.000 A 
ATOM     20  C   UNL     1       5.819   6.056  16.395  0.00  0.00    +0.000 A 
BRANCH  15  22
ATOM     21  C   UNL     1       7.967   8.499  17.649  0.00  0.00    +0.000 C 
ATOM     22  O   UNL     1       7.850   7.383  16.775  0.00  0.00    +0.000 OA
ENDBRANCH  15  22
ENDBRANCH  14  18
ENDBRANCH  13  14
ENDBRANCH   1  13
TORSDOF 6
ENDMDL
MODEL 8
REMARK VINA RESULT:      -6.6      3.746      5.054
REMARK  Name = 
REMARK  7 active torsions:
REMARK  status: ('A' for Active; 'I' for Inactive)
REMARK    1  A    between atoms: C_1  and  O_2
REMARK    2  A    between atoms: O_2  and  C_3
REMARK    3  A    between atoms: C_6  and  C_7
REMARK    4  A    between atoms: C_7  and  C_8
REMARK    5  A    between atoms: C_8  and  C_9
REMARK    6  A    between atoms: N_11  and  C_12
REMARK    7  A    between atoms: C_15  and  O_16
REMARK                            x       y       z     vdW  Elec       q    Type
REMARK                         _______ _______ _______ _____ _____    ______ ____
ROOT
ATOM      1  C   UNL     1       2.608   4.899  19.599  0.00  0.00    +0.000 C 
ATOM      2  O   UNL     1       1.488   4.601  19.198  0.00  0.00    +0.000 OA
ATOM      3  N   UNL     1       3.074   6.191  19.776  0.00  0.00    +0.000 N 
ATOM      4  H   UNL     1       4.070   6.313  19.918  0.00  0.00    +0.000 HD
ENDROOT
BRANCH   3   5
ATOM      5  C   UNL     1       2.303   7.367  19.616  0.00  0.00    +0.000 A 
ATOM      6  C   UNL     1       1.569   7.942  20.657  0.00  0.00    +0.000 A 
ATOM      7  C   UNL     1       0.806   9.094  20.455  0.00  0.00    +0.000 A 
ATOM      8  C   UNL     1       0.783   9.680  19.198  0.00  0.00    +0.000 A 
ATOM      9  C   UNL     1       1.516   9.137  18.151  0.00  0.00    +0.000 A 
ATOM     10  C   UNL     1       2.288   7.987  18.360  0.00  0.00    +0.000 A 
BRANCH   8  11
ATOM     11  O   UNL     1       0.046  10.802  18.957  0.00  0.00    +0.000 OA
ATOM     12  H   UNL     1      -0.871  10.535  18.782  0.00  0.00    +0.000 HD
ENDBRANCH   8  11
ENDBRANCH   3   5
BRANCH   1  13
ATOM     13  C   UNL     1       3.630   3.830  19.935  0.00  0.00    +0.000 C 
BRANCH  13  14
ATOM     14  C   UNL     1       4.432   3.483  18.677  0.00  0.00    +0.000 C 
BRANCH  14  18
ATOM     15  C   UNL     1       7.024   6.694  17.419  0.00  0.00    +0.000 A 
ATOM     16  C   UNL     1       5.996   6.248  16.587  0.00  0.00    +0.000 A 
ATOM     17  C   UNL     1       5.165   5.201  16.986  0.00  0.00    +0.000 A 
ATOM     18  C   UNL     1       5.361   4.577  18.223  0.00  0.00    +0.000 A 
ATOM     19  C   UNL     1       6.410   5.006  19.042  0.00  0.00    +0.000 A 
ATOM     20  C   UNL     1       7.238   6.061  18.644  0.00  0.00    +0.000 A 
BRANCH  15  22
ATOM     21  C   UNL     1       8.096   8.757  17.844  0.00  0.00    +0.000 C 
ATOM     22  O   UNL     1       7.770   7.726  16.919  0.00  0.00    +0.000 OA
ENDBRANCH  15  22
ENDBRANCH  14  18
ENDBRANCH  13  14
ENDBRANCH   1  13
TORSDOF 6
ENDMDL
MODEL 9
REMARK VINA RESULT:      -6.6      3.715      4.885
REMARK  Name = 
REMARK  7 active torsions:
REMARK  status: ('A' for Active; 'I' for Inactive)
REMARK    1  A    between atoms: C_1  and  O_2
REMARK    2  A    between atoms: O_2  and  C_3
REMARK    3  A    between atoms: C_6  and  C_7
REMARK    4  A    between atoms: C_7  and  C_8
REMARK    5  A    between atoms: C_8  and  C_9
REMARK    6  A    between atoms: N_11  and  C_12
REMARK    7  A    between atoms: C_15  and  O_16
REMARK                            x       y       z     vdW  Elec       q    Type
REMARK                         _______ _______ _______ _____ _____    ______ ____
ROOT
ATOM      1  C   UNL     1       2.174   5.067  20.146  0.00  0.00    +0.000 C 
ATOM      2  O   UNL     1       0.983   4.862  19.936  0.00  0.00    +0.000 OA
ATOM      3  N   UNL     1       2.821   6.276  19.953  0.00  0.00    +0.000 N 
ATOM      4  H   UNL     1       3.835   6.272  19.969  0.00  0.00    +0.000 HD
ENDROOT
BRANCH   3   5
ATOM      5  C   UNL     1       2.194   7.488  19.577  0.00  0.00    +0.000 A 
ATOM      6  C   UNL     1       1.473   8.280  20.474  0.00  0.00    +0.000 A 
ATOM      7  C   UNL     1       0.853   9.462  20.060  0.00  0.00    +0.000 A 
ATOM      8  C   UNL     1       0.962   9.856  18.735  0.00  0.00    +0.000 A 
ATOM      9  C   UNL     1       1.686   9.095  17.827  0.00  0.00    +0.000 A 
ATOM     10  C   UNL     1       2.314   7.916  18.249  0.00  0.00    +0.000 A 
BRANCH   8  11
ATOM     11  O   UNL     1       0.368  10.999  18.289  0.00  0.00    +0.000 OA
ATOM     12  H   UNL     1       0.417  11.665  18.994  0.00  0.00    +0.000 HD
ENDBRANCH   8  11
ENDBRANCH   3   5
BRANCH   1  13
ATOM     13  C   UNL     1       3.084   3.961  20.643  0.00  0.00    +0.000 C 
BRANCH  13  14
ATOM     14  C   UNL     1       3.437   3.034  19.475  0.00  0.00    +0.000 C 
BRANCH  14  18
ATOM     15  C   UNL     1       6.360   4.737  16.798  0.00  0.00    +0.000 A 
ATOM     16  C   UNL     1       5.246   4.066  16.293  0.00  0.00    +0.000 A 
ATOM     17  C   UNL     1       4.306   3.502  17.157  0.00  0.00    +0.000 A 
ATOM     18  C   UNL     1       4.477   3.595  18.542  0.00  0.00    +0.000 A 
ATOM     19  C   UNL     1       5.610   4.244  19.046  0.00  0.00    +0.000 A 
ATOM     20  C   UNL     1       6.547   4.814  18.178  0.00  0.00    +0.000 A 
BRANCH  15  22
ATOM     21  C   UNL     1       6.979   4.815  14.518  0.00  0.00    +0.000 C 
ATOM     22  O   UNL     1       7.208   5.248  15.853  0.00  0.00    +0.000 OA
ENDBRANCH  15  22
ENDBRANCH  14  18
ENDBRANCH  13  14
ENDBRANCH   1  13
TORSDOF 6
ENDMDL
