MODEL 1
REMARK VINA RESULT:      -8.4      0.000      0.000
REMARK  Name = 
REMARK  4 active torsions:
REMARK  status: ('A' for Active; 'I' for Inactive)
REMARK    1  A    between atoms: N_12  and  C_13
REMARK    2  A    between atoms: C_13  and  C_14
REMARK    3  A    between atoms: N_23  and  C_24
REMARK    4  A    between atoms: C_24  and  C_25
REMARK                            x       y       z     vdW  Elec       q    Type
REMARK                         _______ _______ _______ _____ _____    ______ ____
ROOT
ATOM      1  O   UNL     1       7.145   4.108  18.189  0.00  0.00    +0.000 OA
ATOM      2  C   UNL     1       6.045   4.652  18.110  0.00  0.00    +0.000 A 
ATOM      3  C   UNL     1       4.888   4.221  18.823  0.00  0.00    +0.000 A 
ATOM      4  O   UNL     1       4.905   3.209  19.723  0.00  0.00    +0.000 OA
ATOM      5  C   UNL     1       3.645   3.132  20.234  0.00  0.00    +0.000 A 
ATOM      6  C   UNL     1       3.246   2.256  21.244  0.00  0.00    +0.000 A 
ATOM      7  C   UNL     1       1.915   2.337  21.661  0.00  0.00    +0.000 A 
ATOM      8  C   UNL     1       1.032   3.234  21.065  0.00  0.00    +0.000 A 
ATOM      9  C   UNL     1       1.456   4.099  20.043  0.00  0.00    +0.000 A 
ATOM     10  C   UNL     1       2.804   4.069  19.626  0.00  0.00    +0.000 A 
ATOM     11  C   UNL     1       3.645   4.796  18.737  0.00  0.00    +0.000 A 
ATOM     12  N   UNL     1       3.467   5.916  17.926  0.00  0.00    +0.000 N 
ATOM     13  C   UNL     1       4.587   6.503  17.303  0.00  0.00    +0.000 A 
ATOM     14  O   UNL     1       4.508   7.614  16.772  0.00  0.00    +0.000 OA
ATOM     15  N   UNL     1       5.798   5.790  17.334  0.00  0.00    +0.000 N 
ENDROOT
BRANCH  12  16
ATOM     16  C   UNL     1       2.179   6.590  17.776  0.00  0.00    +0.000 C 
BRANCH  16  17
ATOM     17  C   UNL     1       1.902   7.684  18.792  0.00  0.00    +0.000 A 
ATOM     18  C   UNL     1       1.824   7.433  20.172  0.00  0.00    +0.000 A 
ATOM     19  C   UNL     1       1.416   8.431  21.063  0.00  0.00    +0.000 A 
ATOM     20  C   UNL     1       1.069   9.695  20.590  0.00  0.00    +0.000 A 
ATOM     21  C   UNL     1       1.154   9.961  19.226  0.00  0.00    +0.000 A 
ATOM     22 CL   UNL     1       0.709  11.514  18.632  0.00  0.00    +0.000 Cl
ATOM     23  C   UNL     1       1.568   8.970  18.333  0.00  0.00    +0.000 A 
ENDBRANCH  16  17
ENDBRANCH  12  16
BRANCH  15  24
ATOM     24  C   UNL     1       6.930   6.356  16.616  0.00  0.00    +0.000 C 
BRANCH  24  25
ATOM     25  C   UNL     1       7.629   7.383  17.443  0.00  0.00    +0.000 A 
ATOM     26  C   UNL     1       8.293   7.329  18.653  0.00  0.00    +0.000 A 
ATOM     27  C   UNL     1       8.661   8.658  18.971  0.00  0.00    +0.000 A 
ATOM     28  C   UNL     1       8.208   9.438  17.933  0.00  0.00    +0.000 A 
ATOM     29  O   UNL     1       7.587   8.672  16.997  0.00  0.00    +0.000 OA
ENDBRANCH  24  25
ENDBRANCH  15  24
TORSDOF 4
ENDMDL
MODEL 2
REMARK VINA RESULT:      -8.4      2.891      5.992
REMARK  Name = 
REMARK  4 active torsions:
REMARK  status: ('A' for Active; 'I' for Inactive)
REMARK    1  A    between atoms: N_12  and  C_13
REMARK    2  A    between atoms: C_13  and  C_14
REMARK    3  A    between atoms: N_23  and  C_24
REMARK    4  A    between atoms: C_24  and  C_25
REMARK                            x       y       z     vdW  Elec       q    Type
REMARK                         _______ _______ _______ _____ _____    ______ ____
ROOT
ATOM      1  O   UNL     1       0.684   8.713  21.211  0.00  0.00    +0.000 OA
ATOM      2  C   UNL     1       1.377   8.217  20.324  0.00  0.00    +0.000 A 
ATOM      3  C   UNL     1       1.831   6.865  20.327  0.00  0.00    +0.000 A 
ATOM      4  O   UNL     1       1.477   5.966  21.275  0.00  0.00    +0.000 OA
ATOM      5  C   UNL     1       2.050   4.784  20.912  0.00  0.00    +0.000 A 
ATOM      6  C   UNL     1       1.883   3.576  21.589  0.00  0.00    +0.000 A 
ATOM      7  C   UNL     1       2.528   2.458  21.054  0.00  0.00    +0.000 A 
ATOM      8  C   UNL     1       3.321   2.567  19.914  0.00  0.00    +0.000 A 
ATOM      9  C   UNL     1       3.480   3.797  19.256  0.00  0.00    +0.000 A 
ATOM     10  C   UNL     1       2.811   4.937  19.749  0.00  0.00    +0.000 A 
ATOM     11  C   UNL     1       2.622   6.294  19.362  0.00  0.00    +0.000 A 
ATOM     12  N   UNL     1       3.003   7.052  18.255  0.00  0.00    +0.000 N 
ATOM     13  C   UNL     1       2.476   8.350  18.093  0.00  0.00    +0.000 A 
ATOM     14  O   UNL     1       2.605   8.958  17.027  0.00  0.00    +0.000 OA
ATOM     15  N   UNL     1       1.779   8.911  19.177  0.00  0.00    +0.000 N 
ENDROOT
BRANCH  12  16
ATOM     16  C   UNL     1       3.843   6.525  17.183  0.00  0.00    +0.000 C 
BRANCH  16  17
ATOM     17  C   UNL     1       5.329   6.470  17.497  0.00  0.00    +0.000 A 
ATOM     18  C   UNL     1       5.955   5.314  17.994  0.00  0.00    +0.000 A 
ATOM     19  C   UNL     1       7.289   5.344  18.416  0.00  0.00    +0.000 A 
ATOM     20  C   UNL     1       8.016   6.531  18.358  0.00  0.00    +0.000 A 
ATOM     21  C   UNL     1       7.412   7.680  17.855  0.00  0.00    +0.000 A 
ATOM     22 CL   UNL     1       8.299   9.154  17.798  0.00  0.00    +0.000 Cl
ATOM     23  C   UNL     1       6.083   7.653  17.425  0.00  0.00    +0.000 A 
ENDBRANCH  16  17
ENDBRANCH  12  16
BRANCH  15  24
ATOM     24  C   UNL     1       1.312  10.282  19.039  0.00  0.00    +0.000 C 
BRANCH  24  25
ATOM     25  C   UNL     1      -0.109  10.321  18.584  0.00  0.00    +0.000 A 
ATOM     26  C   UNL     1      -0.804   9.646  17.600  0.00  0.00    +0.000 A 
ATOM     27  C   UNL     1      -2.111  10.188  17.586  0.00  0.00    +0.000 A 
ATOM     28  C   UNL     1      -2.135  11.152  18.567  0.00  0.00    +0.000 A 
ATOM     29  O   UNL     1      -0.927  11.235  19.183  0.00  0.00    +0.000 OA
ENDBRANCH  24  25
ENDBRANCH  15  24
TORSDOF 4
ENDMDL
MODEL 3
REMARK VINA RESULT:      -8.4      1.472      2.362
REMARK  Name = 
REMARK  4 active torsions:
REMARK  status: ('A' for Active; 'I' for Inactive)
REMARK    1  A    between atoms: N_12  and  C_13
REMARK    2  A    between atoms: C_13  and  C_14
REMARK    3  A    between atoms: N_23  and  C_24
REMARK    4  A    between atoms: C_24  and  C_25
REMARK                            x       y       z     vdW  Elec       q    Type
REMARK                         _______ _______ _______ _____ _____    ______ ____
ROOT
ATOM      1  O   UNL     1       7.065   3.838  18.067  0.00  0.00    +0.000 OA
ATOM      2  C   UNL     1       5.977   4.409  17.999  0.00  0.00    +0.000 A 
ATOM      3  C   UNL     1       4.837   4.049  18.777  0.00  0.00    +0.000 A 
ATOM      4  O   UNL     1       4.863   3.086  19.729  0.00  0.00    +0.000 OA
ATOM      5  C   UNL     1       3.621   3.072  20.289  0.00  0.00    +0.000 A 
ATOM      6  C   UNL     1       3.238   2.262  21.359  0.00  0.00    +0.000 A 
ATOM      7  C   UNL     1       1.927   2.403  21.820  0.00  0.00    +0.000 A 
ATOM      8  C   UNL     1       1.045   3.293  21.210  0.00  0.00    +0.000 A 
ATOM      9  C   UNL     1       1.453   4.090  20.127  0.00  0.00    +0.000 A 
ATOM     10  C   UNL     1       2.782   4.000  19.663  0.00  0.00    +0.000 A 
ATOM     11  C   UNL     1       3.607   4.654  18.706  0.00  0.00    +0.000 A 
ATOM     12  N   UNL     1       3.428   5.735  17.843  0.00  0.00    +0.000 N 
ATOM     13  C   UNL     1       4.539   6.256  17.148  0.00  0.00    +0.000 A 
ATOM     14  O   UNL     1       4.469   7.339  16.561  0.00  0.00    +0.000 OA
ATOM     15  N   UNL     1       5.731   5.511  17.173  0.00  0.00    +0.000 N 
ENDROOT
BRANCH  12  16
ATOM     16  C   UNL     1       2.154   6.436  17.704  0.00  0.00    +0.000 C 
BRANCH  16  17
ATOM     17  C   UNL     1       1.921   7.553  18.707  0.00  0.00    +0.000 A 
ATOM     18  C   UNL     1       1.869   7.327  20.093  0.00  0.00    +0.000 A 
ATOM     19  C   UNL     1       1.500   8.349  20.975  0.00  0.00    +0.000 A 
ATOM     20  C   UNL     1       1.168   9.610  20.487  0.00  0.00    +0.000 A 
ATOM     21  C   UNL     1       1.227   9.851  19.117  0.00  0.00    +0.000 A 
ATOM     22 CL   UNL     1       0.800  11.403  18.506  0.00  0.00    +0.000 Cl
ATOM     23  C   UNL     1       1.602   8.837  18.233  0.00  0.00    +0.000 A 
ENDBRANCH  16  17
ENDBRANCH  12  16
BRANCH  15  24
ATOM     24  C   UNL     1       6.849   6.006  16.384  0.00  0.00    +0.000 C 
BRANCH  24  25
ATOM     25  C   UNL     1       6.876   5.369  15.035  0.00  0.00    +0.000 A 
ATOM     26  C   UNL     1       6.040   4.473  14.396  0.00  0.00    +0.000 A 
ATOM     27  C   UNL     1       6.650   4.166  13.157  0.00  0.00    +0.000 A 
ATOM     28  C   UNL     1       7.813   4.897  13.112  0.00  0.00    +0.000 A 
ATOM     29  O   UNL     1       7.955   5.636  14.243  0.00  0.00    +0.000 OA
ENDBRANCH  24  25
ENDBRANCH  15  24
TORSDOF 4
ENDMDL
MODEL 4
REMARK VINA RESULT:      -7.7      0.926      1.290
REMARK  Name = 
REMARK  4 active torsions:
REMARK  status: ('A' for Active; 'I' for Inactive)
REMARK    1  A    between atoms: N_12  and  C_13
REMARK    2  A    between atoms: C_13  and  C_14
REMARK    3  A    between atoms: N_23  and  C_24
REMARK    4  A    between atoms: C_24  and  C_25
REMARK                            x       y       z     vdW  Elec       q    Type
REMARK                         _______ _______ _______ _____ _____    ______ ____
ROOT
ATOM      1  O   UNL     1       7.191   4.162  18.452  0.00  0.00    +0.000 OA
ATOM      2  C   UNL     1       6.077   4.638  18.239  0.00  0.00    +0.000 A 
ATOM      3  C   UNL     1       4.888   4.217  18.906  0.00  0.00    +0.000 A 
ATOM      4  O   UNL     1       4.882   3.300  19.901  0.00  0.00    +0.000 OA
ATOM      5  C   UNL     1       3.590   3.206  20.324  0.00  0.00    +0.000 A 
ATOM      6  C   UNL     1       3.155   2.412  21.385  0.00  0.00    +0.000 A 
ATOM      7  C   UNL     1       1.793   2.462  21.694  0.00  0.00    +0.000 A 
ATOM      8  C   UNL     1       0.919   3.251  20.949  0.00  0.00    +0.000 A 
ATOM      9  C   UNL     1       1.381   4.034  19.880  0.00  0.00    +0.000 A 
ATOM     10  C   UNL     1       2.757   4.035  19.566  0.00  0.00    +0.000 A 
ATOM     11  C   UNL     1       3.631   4.716  18.672  0.00  0.00    +0.000 A 
ATOM     12  N   UNL     1       3.466   5.742  17.743  0.00  0.00    +0.000 N 
ATOM     13  C   UNL     1       4.604   6.324  17.147  0.00  0.00    +0.000 A 
ATOM     14  O   UNL     1       4.516   7.373  16.504  0.00  0.00    +0.000 OA
ATOM     15  N   UNL     1       5.839   5.682  17.337  0.00  0.00    +0.000 N 
ENDROOT
BRANCH  12  16
ATOM     16  C   UNL     1       2.165   6.330  17.433  0.00  0.00    +0.000 C 
BRANCH  16  17
ATOM     17  C   UNL     1       1.838   7.606  18.190  0.00  0.00    +0.000 A 
ATOM     18  C   UNL     1       1.810   8.867  17.570  0.00  0.00    +0.000 A 
ATOM     19  C   UNL     1       1.657  10.036  18.325  0.00  0.00    +0.000 A 
ATOM     20  C   UNL     1       1.540   9.965  19.711  0.00  0.00    +0.000 A 
ATOM     21  C   UNL     1       1.554   8.721  20.336  0.00  0.00    +0.000 A 
ATOM     22 CL   UNL     1       1.428   8.628  22.051  0.00  0.00    +0.000 Cl
ATOM     23  C   UNL     1       1.698   7.551  19.587  0.00  0.00    +0.000 A 
ENDBRANCH  16  17
ENDBRANCH  12  16
BRANCH  15  24
ATOM     24  C   UNL     1       6.997   6.234  16.650  0.00  0.00    +0.000 C 
BRANCH  24  25
ATOM     25  C   UNL     1       7.641   7.307  17.464  0.00  0.00    +0.000 A 
ATOM     26  C   UNL     1       8.314   7.303  18.669  0.00  0.00    +0.000 A 
ATOM     27  C   UNL     1       8.606   8.653  18.974  0.00  0.00    +0.000 A 
ATOM     28  C   UNL     1       8.101   9.396  17.933  0.00  0.00    +0.000 A 
ATOM     29  O   UNL     1       7.520   8.588  17.008  0.00  0.00    +0.000 OA
ENDBRANCH  24  25
ENDBRANCH  15  24
TORSDOF 4
ENDMDL
MODEL 5
REMARK VINA RESULT:      -7.7      3.191      6.182
REMARK  Name = 
REMARK  4 active torsions:
REMARK  status: ('A' for Active; 'I' for Inactive)
REMARK    1  A    between atoms: N_12  and  C_13
REMARK    2  A    between atoms: C_13  and  C_14
REMARK    3  A    between atoms: N_23  and  C_24
REMARK    4  A    between atoms: C_24  and  C_25
REMARK                            x       y       z     vdW  Elec       q    Type
REMARK                         _______ _______ _______ _____ _____    ______ ____
ROOT
ATOM      1  O   UNL     1       0.851   8.359  21.731  0.00  0.00    +0.000 OA
ATOM      2  C   UNL     1       1.371   8.103  20.646  0.00  0.00    +0.000 A 
ATOM      3  C   UNL     1       1.729   6.788  20.223  0.00  0.00    +0.000 A 
ATOM      4  O   UNL     1       1.459   5.677  20.947  0.00  0.00    +0.000 OA
ATOM      5  C   UNL     1       1.891   4.622  20.201  0.00  0.00    +0.000 A 
ATOM      6  C   UNL     1       1.745   3.281  20.557  0.00  0.00    +0.000 A 
ATOM      7  C   UNL     1       2.227   2.332  19.652  0.00  0.00    +0.000 A 
ATOM      8  C   UNL     1       2.850   2.723  18.469  0.00  0.00    +0.000 A 
ATOM      9  C   UNL     1       2.994   4.080  18.139  0.00  0.00    +0.000 A 
ATOM     10  C   UNL     1       2.482   5.063  19.013  0.00  0.00    +0.000 A 
ATOM     11  C   UNL     1       2.331   6.478  19.029  0.00  0.00    +0.000 A 
ATOM     12  N   UNL     1       2.595   7.496  18.114  0.00  0.00    +0.000 N 
ATOM     13  C   UNL     1       2.138   8.803  18.382  0.00  0.00    +0.000 A 
ATOM     14  O   UNL     1       2.150   9.671  17.506  0.00  0.00    +0.000 OA
ATOM     15  N   UNL     1       1.647   9.069  19.672  0.00  0.00    +0.000 N 
ENDROOT
BRANCH  12  16
ATOM     16  C   UNL     1       3.232   7.254  16.821  0.00  0.00    +0.000 C 
BRANCH  16  17
ATOM     17  C   UNL     1       4.645   6.701  16.893  0.00  0.00    +0.000 A 
ATOM     18  C   UNL     1       5.595   7.168  17.816  0.00  0.00    +0.000 A 
ATOM     19  C   UNL     1       6.927   6.746  17.753  0.00  0.00    +0.000 A 
ATOM     20  C   UNL     1       7.335   5.858  16.760  0.00  0.00    +0.000 A 
ATOM     21  C   UNL     1       6.401   5.378  15.846  0.00  0.00    +0.000 A 
ATOM     22 CL   UNL     1       6.903   4.295  14.605  0.00  0.00    +0.000 Cl
ATOM     23  C   UNL     1       5.069   5.789  15.910  0.00  0.00    +0.000 A 
ENDBRANCH  16  17
ENDBRANCH  12  16
BRANCH  15  24
ATOM     24  C   UNL     1       1.258  10.438  19.973  0.00  0.00    +0.000 C 
BRANCH  24  25
ATOM     25  C   UNL     1      -0.025  10.792  19.298  0.00  0.00    +0.000 A 
ATOM     26  C   UNL     1      -1.168  10.074  19.007  0.00  0.00    +0.000 A 
ATOM     27  C   UNL     1      -2.007  10.936  18.261  0.00  0.00    +0.000 A 
ATOM     28  C   UNL     1      -1.328  12.126  18.150  0.00  0.00    +0.000 A 
ATOM     29  O   UNL     1      -0.128  12.052  18.783  0.00  0.00    +0.000 OA
ENDBRANCH  24  25
ENDBRANCH  15  24
TORSDOF 4
ENDMDL
MODEL 6
REMARK VINA RESULT:      -7.7      1.726      2.679
REMARK  Name = 
REMARK  4 active torsions:
REMARK  status: ('A' for Active; 'I' for Inactive)
REMARK    1  A    between atoms: N_12  and  C_13
REMARK    2  A    between atoms: C_13  and  C_14
REMARK    3  A    between atoms: N_23  and  C_24
REMARK    4  A    between atoms: C_24  and  C_25
REMARK                            x       y       z     vdW  Elec       q    Type
REMARK                         _______ _______ _______ _____ _____    ______ ____
ROOT
ATOM      1  O   UNL     1       7.064   3.934  18.281  0.00  0.00    +0.000 OA
ATOM      2  C   UNL     1       5.948   4.427  18.120  0.00  0.00    +0.000 A 
ATOM      3  C   UNL     1       4.792   4.048  18.865  0.00  0.00    +0.000 A 
ATOM      4  O   UNL     1       4.827   3.157  19.884  0.00  0.00    +0.000 OA
ATOM      5  C   UNL     1       3.560   3.101  20.383  0.00  0.00    +0.000 A 
ATOM      6  C   UNL     1       3.172   2.343  21.489  0.00  0.00    +0.000 A 
ATOM      7  C   UNL     1       1.832   2.430  21.874  0.00  0.00    +0.000 A 
ATOM      8  C   UNL     1       0.931   3.216  21.159  0.00  0.00    +0.000 A 
ATOM      9  C   UNL     1       1.345   3.961  20.044  0.00  0.00    +0.000 A 
ATOM     10  C   UNL     1       2.701   3.926  19.652  0.00  0.00    +0.000 A 
ATOM     11  C   UNL     1       3.534   4.565  18.691  0.00  0.00    +0.000 A 
ATOM     12  N   UNL     1       3.334   5.570  17.745  0.00  0.00    +0.000 N 
ATOM     13  C   UNL     1       4.446   6.113  17.069  0.00  0.00    +0.000 A 
ATOM     14  O   UNL     1       4.341   7.145  16.402  0.00  0.00    +0.000 OA
ATOM     15  N   UNL     1       5.678   5.451  17.205  0.00  0.00    +0.000 N 
ENDROOT
BRANCH  12  16
ATOM     16  C   UNL     1       2.029   6.175  17.494  0.00  0.00    +0.000 C 
BRANCH  16  17
ATOM     17  C   UNL     1       1.778   7.489  18.215  0.00  0.00    +0.000 A 
ATOM     18  C   UNL     1       1.804   8.730  17.558  0.00  0.00    +0.000 A 
ATOM     19  C   UNL     1       1.722   9.927  18.278  0.00  0.00    +0.000 A 
ATOM     20  C   UNL     1       1.624   9.904  19.668  0.00  0.00    +0.000 A 
ATOM     21  C   UNL     1       1.585   8.681  20.330  0.00  0.00    +0.000 A 
ATOM     22 CL   UNL     1       1.482   8.646  22.049  0.00  0.00    +0.000 Cl
ATOM     23  C   UNL     1       1.658   7.483  19.616  0.00  0.00    +0.000 A 
ENDBRANCH  16  17
ENDBRANCH  12  16
BRANCH  15  24
ATOM     24  C   UNL     1       6.804   5.961  16.437  0.00  0.00    +0.000 C 
BRANCH  24  25
ATOM     25  C   UNL     1       6.873   5.316  15.093  0.00  0.00    +0.000 A 
ATOM     26  C   UNL     1       6.134   4.321  14.484  0.00  0.00    +0.000 A 
ATOM     27  C   UNL     1       6.744   4.074  13.232  0.00  0.00    +0.000 A 
ATOM     28  C   UNL     1       7.811   4.938  13.150  0.00  0.00    +0.000 A 
ATOM     29  O   UNL     1       7.892   5.702  14.271  0.00  0.00    +0.000 OA
ENDBRANCH  24  25
ENDBRANCH  15  24
TORSDOF 4
ENDMDL
MODEL 7
REMARK VINA RESULT:      -7.6      5.390      8.573
REMARK  Name = 
REMARK  4 active torsions:
REMARK  status: ('A' for Active; 'I' for Inactive)
REMARK    1  A    between atoms: N_12  and  C_13
REMARK    2  A    between atoms: C_13  and  C_14
REMARK    3  A    between atoms: N_23  and  C_24
REMARK    4  A    between atoms: C_24  and  C_25
REMARK                            x       y       z     vdW  Elec       q    Type
REMARK                         _______ _______ _______ _____ _____    ______ ____
ROOT
ATOM      1  O   UNL     1      -0.162   9.961  23.761  0.00  0.00    +0.000 OA
ATOM      2  C   UNL     1      -0.306  10.368  22.609  0.00  0.00    +0.000 A 
ATOM      3  C   UNL     1       0.348   9.801  21.474  0.00  0.00    +0.000 A 
ATOM      4  O   UNL     1       1.136   8.703  21.545  0.00  0.00    +0.000 OA
ATOM      5  C   UNL     1       1.526   8.432  20.268  0.00  0.00    +0.000 A 
ATOM      6  C   UNL     1       2.303   7.337  19.887  0.00  0.00    +0.000 A 
ATOM      7  C   UNL     1       2.583   7.205  18.525  0.00  0.00    +0.000 A 
ATOM      8  C   UNL     1       2.127   8.148  17.606  0.00  0.00    +0.000 A 
ATOM      9  C   UNL     1       1.355   9.247  18.017  0.00  0.00    +0.000 A 
ATOM     10  C   UNL     1       1.021   9.387  19.381  0.00  0.00    +0.000 A 
ATOM     11  C   UNL     1       0.223  10.249  20.184  0.00  0.00    +0.000 A 
ATOM     12  N   UNL     1      -0.631  11.318  19.912  0.00  0.00    +0.000 N 
ATOM     13  C   UNL     1      -1.433  11.842  20.947  0.00  0.00    +0.000 A 
ATOM     14  O   UNL     1      -2.355  12.623  20.701  0.00  0.00    +0.000 OA
ATOM     15  N   UNL     1      -1.160  11.421  22.260  0.00  0.00    +0.000 N 
ENDROOT
BRANCH  12  16
ATOM     16  C   UNL     1      -0.823  11.858  18.569  0.00  0.00    +0.000 C 
BRANCH  16  17
ATOM     17  C   UNL     1      -1.963  11.235  17.781  0.00  0.00    +0.000 A 
ATOM     18  C   UNL     1      -1.772  10.164  16.893  0.00  0.00    +0.000 A 
ATOM     19  C   UNL     1      -2.812   9.717  16.070  0.00  0.00    +0.000 A 
ATOM     20  C   UNL     1      -4.058  10.339  16.115  0.00  0.00    +0.000 A 
ATOM     21  C   UNL     1      -4.264  11.393  17.000  0.00  0.00    +0.000 A 
ATOM     22 CL   UNL     1      -5.796  12.178  17.046  0.00  0.00    +0.000 Cl
ATOM     23  C   UNL     1      -3.232  11.838  17.828  0.00  0.00    +0.000 A 
ENDBRANCH  16  17
ENDBRANCH  12  16
BRANCH  15  24
ATOM     24  C   UNL     1      -1.930  12.028  23.335  0.00  0.00    +0.000 C 
BRANCH  24  25
ATOM     25  C   UNL     1      -1.686  13.498  23.404  0.00  0.00    +0.000 A 
ATOM     26  C   UNL     1      -2.517  14.587  23.580  0.00  0.00    +0.000 A 
ATOM     27  C   UNL     1      -1.705  15.739  23.456  0.00  0.00    +0.000 A 
ATOM     28  C   UNL     1      -0.430  15.284  23.219  0.00  0.00    +0.000 A 
ATOM     29  O   UNL     1      -0.406  13.925  23.194  0.00  0.00    +0.000 OA
ENDBRANCH  24  25
ENDBRANCH  15  24
TORSDOF 4
ENDMDL
MODEL 8
REMARK VINA RESULT:      -7.6      2.975      6.004
REMARK  Name = 
REMARK  4 active torsions:
REMARK  status: ('A' for Active; 'I' for Inactive)
REMARK    1  A    between atoms: N_12  and  C_13
REMARK    2  A    between atoms: C_13  and  C_14
REMARK    3  A    between atoms: N_23  and  C_24
REMARK    4  A    between atoms: C_24  and  C_25
REMARK                            x       y       z     vdW  Elec       q    Type
REMARK                         _______ _______ _______ _____ _____    ______ ____
ROOT
ATOM      1  O   UNL     1       1.200   8.537  21.327  0.00  0.00    +0.000 OA
ATOM      2  C   UNL     1       1.686   7.977  20.345  0.00  0.00    +0.000 A 
ATOM      3  C   UNL     1       1.907   6.570  20.256  0.00  0.00    +0.000 A 
ATOM      4  O   UNL     1       1.528   5.698  21.220  0.00  0.00    +0.000 OA
ATOM      5  C   UNL     1       1.847   4.457  20.757  0.00  0.00    +0.000 A 
ATOM      6  C   UNL     1       1.567   3.262  21.421  0.00  0.00    +0.000 A 
ATOM      7  C   UNL     1       1.946   2.080  20.780  0.00  0.00    +0.000 A 
ATOM      8  C   UNL     1       2.599   2.111  19.549  0.00  0.00    +0.000 A 
ATOM      9  C   UNL     1       2.879   3.328  18.907  0.00  0.00    +0.000 A 
ATOM     10  C   UNL     1       2.474   4.538  19.509  0.00  0.00    +0.000 A 
ATOM     11  C   UNL     1       2.467   5.923  19.184  0.00  0.00    +0.000 A 
ATOM     12  N   UNL     1       2.829   6.659  18.056  0.00  0.00    +0.000 N 
ATOM     13  C   UNL     1       2.509   8.031  17.995  0.00  0.00    +0.000 A 
ATOM     14  O   UNL     1       2.605   8.658  16.937  0.00  0.00    +0.000 OA
ATOM     15  N   UNL     1       2.054   8.647  19.173  0.00  0.00    +0.000 N 
ENDROOT
BRANCH  12  16
ATOM     16  C   UNL     1       3.431   6.052  16.872  0.00  0.00    +0.000 C 
BRANCH  16  17
ATOM     17  C   UNL     1       4.896   5.674  17.016  0.00  0.00    +0.000 A 
ATOM     18  C   UNL     1       5.590   4.948  16.034  0.00  0.00    +0.000 A 
ATOM     19  C   UNL     1       6.890   4.485  16.266  0.00  0.00    +0.000 A 
ATOM     20  C   UNL     1       7.514   4.731  17.487  0.00  0.00    +0.000 A 
ATOM     21  C   UNL     1       6.842   5.461  18.464  0.00  0.00    +0.000 A 
ATOM     22 CL   UNL     1       7.602   5.753  19.981  0.00  0.00    +0.000 Cl
ATOM     23  C   UNL     1       5.548   5.932  18.234  0.00  0.00    +0.000 A 
ENDBRANCH  16  17
ENDBRANCH  12  16
BRANCH  15  24
ATOM     24  C   UNL     1       1.808  10.081  19.130  0.00  0.00    +0.000 C 
BRANCH  24  25
ATOM     25  C   UNL     1       0.355  10.370  18.952  0.00  0.00    +0.000 A 
ATOM     26  C   UNL     1      -0.571  10.000  17.996  0.00  0.00    +0.000 A 
ATOM     27  C   UNL     1      -1.774  10.671  18.319  0.00  0.00    +0.000 A 
ATOM     28  C   UNL     1      -1.511  11.402  19.453  0.00  0.00    +0.000 A 
ATOM     29  O   UNL     1      -0.224  11.219  19.850  0.00  0.00    +0.000 OA
ENDBRANCH  24  25
ENDBRANCH  15  24
TORSDOF 4
ENDMDL
MODEL 9
REMARK VINA RESULT:      -7.3      7.747     11.641
REMARK  Name = 
REMARK  4 active torsions:
REMARK  status: ('A' for Active; 'I' for Inactive)
REMARK    1  A    between atoms: N_12  and  C_13
REMARK    2  A    between atoms: C_13  and  C_14
REMARK    3  A    between atoms: N_23  and  C_24
REMARK    4  A    between atoms: C_24  and  C_25
REMARK                            x       y       z     vdW  Elec       q    Type
REMARK                         _______ _______ _______ _____ _____    ______ ____
ROOT
ATOM      1  O   UNL     1      -6.445  13.750  20.238  0.00  0.00    +0.000 OA
ATOM      2  C   UNL     1      -5.243  13.499  20.310  0.00  0.00    +0.000 A 
ATOM      3  C   UNL     1      -4.550  12.645  19.401  0.00  0.00    +0.000 A 
ATOM      4  O   UNL     1      -5.135  12.087  18.316  0.00  0.00    +0.000 OA
ATOM      5  C   UNL     1      -4.155  11.398  17.667  0.00  0.00    +0.000 A 
ATOM      6  C   UNL     1      -4.323  10.722  16.458  0.00  0.00    +0.000 A 
ATOM      7  C   UNL     1      -3.196  10.092  15.925  0.00  0.00    +0.000 A 
ATOM      8  C   UNL     1      -1.975  10.120  16.597  0.00  0.00    +0.000 A 
ATOM      9  C   UNL     1      -1.836  10.799  17.818  0.00  0.00    +0.000 A 
ATOM     10  C   UNL     1      -2.946  11.479  18.363  0.00  0.00    +0.000 A 
ATOM     11  C   UNL     1      -3.216  12.330  19.471  0.00  0.00    +0.000 A 
ATOM     12  N   UNL     1      -2.433  12.899  20.475  0.00  0.00    +0.000 N 
ATOM     13  C   UNL     1      -2.999  13.871  21.326  0.00  0.00    +0.000 A 
ATOM     14  O   UNL     1      -2.290  14.555  22.067  0.00  0.00    +0.000 OA
ATOM     15  N   UNL     1      -4.393  14.047  21.277  0.00  0.00    +0.000 N 
ENDROOT
BRANCH  12  16
ATOM     16  C   UNL     1      -1.007  12.619  20.624  0.00  0.00    +0.000 C 
BRANCH  16  17
ATOM     17  C   UNL     1      -0.677  11.308  21.316  0.00  0.00    +0.000 A 
ATOM     18  C   UNL     1      -1.025  11.049  22.653  0.00  0.00    +0.000 A 
ATOM     19  C   UNL     1      -0.571   9.897  23.304  0.00  0.00    +0.000 A 
ATOM     20  C   UNL     1       0.244   8.988  22.634  0.00  0.00    +0.000 A 
ATOM     21  C   UNL     1       0.585   9.225  21.305  0.00  0.00    +0.000 A 
ATOM     22 CL   UNL     1       1.607   8.115  20.477  0.00  0.00    +0.000 Cl
ATOM     23  C   UNL     1       0.129  10.370  20.648  0.00  0.00    +0.000 A 
ENDBRANCH  16  17
ENDBRANCH  12  16
BRANCH  15  24
ATOM     24  C   UNL     1      -4.985  14.988  22.217  0.00  0.00    +0.000 C 
BRANCH  24  25
ATOM     25  C   UNL     1      -6.034  14.326  23.046  0.00  0.00    +0.000 A 
ATOM     26  C   UNL     1      -7.251  14.750  23.545  0.00  0.00    +0.000 A 
ATOM     27  C   UNL     1      -7.748  13.695  24.346  0.00  0.00    +0.000 A 
ATOM     28  C   UNL     1      -6.810  12.692  24.281  0.00  0.00    +0.000 A 
ATOM     29  O   UNL     1      -5.771  13.062  23.488  0.00  0.00    +0.000 OA
ENDBRANCH  24  25
ENDBRANCH  15  24
TORSDOF 4
ENDMDL
