MODEL 1
REMARK VINA RESULT:      -7.3      0.000      0.000
REMARK  Name = 
REMARK  8 active torsions:
REMARK  status: ('A' for Active; 'I' for Inactive)
REMARK    1  A    between atoms: C_1  and  O_2
REMARK    2  A    between atoms: O_2  and  C_3
REMARK    3  A    between atoms: C_6  and  C_7
REMARK    4  A    between atoms: C_10  and  O_11
REMARK    5  A    between atoms: O_11  and  C_12
REMARK    6  A    between atoms: C_14  and  O_15
REMARK    7  A    between atoms: O_15  and  C_16
REMARK    8  A    between atoms: N_19  and  C_20
REMARK                            x       y       z     vdW  Elec       q    Type
REMARK                         _______ _______ _______ _____ _____    ______ ____
ROOT
ATOM      1  C   UNL     1       2.638   6.995  19.157  0.00  0.00    +0.000 A 
ATOM      2  C   UNL     1       3.507   7.327  18.187  0.00  0.00    +0.000 A 
ATOM      3  C   UNL     1       4.300   6.303  17.488  0.00  0.00    +0.000 A 
ATOM      4  C   UNL     1       5.526   6.529  16.865  0.00  0.00    +0.000 A 
ATOM      5  C   UNL     1       6.095   5.505  16.100  0.00  0.00    +0.000 A 
ATOM      6  C   UNL     1       5.470   4.258  15.956  0.00  0.00    +0.000 A 
ATOM      7  C   UNL     1       4.252   4.023  16.588  0.00  0.00    +0.000 A 
ATOM      8  C   UNL     1       3.688   5.037  17.370  0.00  0.00    +0.000 A 
ATOM      9  N   UNL     1       2.528   4.770  18.176  0.00  0.00    +0.000 N 
ATOM     10  C   UNL     1       1.276   4.884  17.417  0.00  0.00    +0.000 C 
ATOM     11  C   UNL     1       2.524   5.507  19.382  0.00  0.00    +0.000 A 
ATOM     12  S   UNL     1       2.523   4.713  20.864  0.00  0.00    +0.000 S 
ENDROOT
BRANCH   1  16
ATOM     13  C   UNL     1      -0.000   9.848  21.030  0.00  0.00    +0.000 A 
ATOM     14  C   UNL     1       0.457   8.737  21.737  0.00  0.00    +0.000 A 
ATOM     15  C   UNL     1       1.338   7.825  21.142  0.00  0.00    +0.000 A 
ATOM     16  C   UNL     1       1.778   8.001  19.824  0.00  0.00    +0.000 A 
ATOM     17  C   UNL     1       1.327   9.137  19.134  0.00  0.00    +0.000 A 
ATOM     18  C   UNL     1       0.433  10.042  19.724  0.00  0.00    +0.000 A 
BRANCH  13  20
ATOM     19  C   UNL     1      -0.935  10.462  23.108  0.00  0.00    +0.000 C 
ATOM     20  O   UNL     1      -0.888  10.644  21.698  0.00  0.00    +0.000 OA
ENDBRANCH  13  20
ENDBRANCH   1  16
BRANCH   4  21
ATOM     21  O   UNL     1       6.250   7.692  16.887  0.00  0.00    +0.000 OA
ATOM     22  C   UNL     1       7.529   7.631  17.515  0.00  0.00    +0.000 C 
ENDBRANCH   4  21
BRANCH   6  23
ATOM     23  O   UNL     1       6.185   3.362  15.208  0.00  0.00    +0.000 OA
ATOM     24  C   UNL     1       6.355   3.634  13.824  0.00  0.00    +0.000 C 
ENDBRANCH   6  23
TORSDOF 4
ENDMDL
MODEL 2
REMARK VINA RESULT:      -6.6      2.779      4.598
REMARK  Name = 
REMARK  8 active torsions:
REMARK  status: ('A' for Active; 'I' for Inactive)
REMARK    1  A    between atoms: C_1  and  O_2
REMARK    2  A    between atoms: O_2  and  C_3
REMARK    3  A    between atoms: C_6  and  C_7
REMARK    4  A    between atoms: C_10  and  O_11
REMARK    5  A    between atoms: O_11  and  C_12
REMARK    6  A    between atoms: C_14  and  O_15
REMARK    7  A    between atoms: O_15  and  C_16
REMARK    8  A    between atoms: N_19  and  C_20
REMARK                            x       y       z     vdW  Elec       q    Type
REMARK                         _______ _______ _______ _____ _____    ______ ____
ROOT
ATOM      1  C   UNL     1       0.181   9.839  20.140  0.00  0.00    +0.000 A 
ATOM      2  C   UNL     1       1.026   8.889  20.573  0.00  0.00    +0.000 A 
ATOM      3  C   UNL     1       1.765   8.035  19.629  0.00  0.00    +0.000 A 
ATOM      4  C   UNL     1       2.249   6.760  19.915  0.00  0.00    +0.000 A 
ATOM      5  C   UNL     1       3.073   6.125  18.979  0.00  0.00    +0.000 A 
ATOM      6  C   UNL     1       3.413   6.733  17.762  0.00  0.00    +0.000 A 
ATOM      7  C   UNL     1       2.921   8.001  17.467  0.00  0.00    +0.000 A 
ATOM      8  C   UNL     1       2.081   8.633  18.391  0.00  0.00    +0.000 A 
ATOM      9  N   UNL     1       1.415   9.860  18.043  0.00  0.00    +0.000 N 
ATOM     10  C   UNL     1       2.264  11.039  18.254  0.00  0.00    +0.000 C 
ATOM     11  C   UNL     1       0.138   9.970  18.638  0.00  0.00    +0.000 A 
ATOM     12  S   UNL     1      -1.237  10.101  17.680  0.00  0.00    +0.000 S 
ENDROOT
BRANCH   1  16
ATOM     13  C   UNL     1      -2.004  12.449  22.792  0.00  0.00    +0.000 A 
ATOM     14  C   UNL     1      -1.506  11.230  23.250  0.00  0.00    +0.000 A 
ATOM     15  C   UNL     1      -0.771  10.395  22.401  0.00  0.00    +0.000 A 
ATOM     16  C   UNL     1      -0.519  10.756  21.071  0.00  0.00    +0.000 A 
ATOM     17  C   UNL     1      -1.007  11.998  20.632  0.00  0.00    +0.000 A 
ATOM     18  C   UNL     1      -1.756  12.828  21.477  0.00  0.00    +0.000 A 
BRANCH  13  20
ATOM     19  C   UNL     1      -3.887  12.492  24.213  0.00  0.00    +0.000 C 
ATOM     20  O   UNL     1      -2.742  13.159  23.696  0.00  0.00    +0.000 OA
ENDBRANCH  13  20
ENDBRANCH   1  16
BRANCH   4  21
ATOM     21  O   UNL     1       2.030   6.043  21.061  0.00  0.00    +0.000 OA
ATOM     22  C   UNL     1       2.105   4.623  20.945  0.00  0.00    +0.000 C 
ENDBRANCH   4  21
BRANCH   6  23
ATOM     23  O   UNL     1       4.193   5.952  16.952  0.00  0.00    +0.000 OA
ATOM     24  C   UNL     1       4.267   4.562  17.235  0.00  0.00    +0.000 C 
ENDBRANCH   6  23
TORSDOF 4
ENDMDL
MODEL 3
REMARK VINA RESULT:      -6.5      2.791      4.656
REMARK  Name = 
REMARK  8 active torsions:
REMARK  status: ('A' for Active; 'I' for Inactive)
REMARK    1  A    between atoms: C_1  and  O_2
REMARK    2  A    between atoms: O_2  and  C_3
REMARK    3  A    between atoms: C_6  and  C_7
REMARK    4  A    between atoms: C_10  and  O_11
REMARK    5  A    between atoms: O_11  and  C_12
REMARK    6  A    between atoms: C_14  and  O_15
REMARK    7  A    between atoms: O_15  and  C_16
REMARK    8  A    between atoms: N_19  and  C_20
REMARK                            x       y       z     vdW  Elec       q    Type
REMARK                         _______ _______ _______ _____ _____    ______ ____
ROOT
ATOM      1  C   UNL     1       0.231   9.776  20.128  0.00  0.00    +0.000 A 
ATOM      2  C   UNL     1       1.076   8.824  20.560  0.00  0.00    +0.000 A 
ATOM      3  C   UNL     1       1.804   7.962  19.615  0.00  0.00    +0.000 A 
ATOM      4  C   UNL     1       2.285   6.686  19.905  0.00  0.00    +0.000 A 
ATOM      5  C   UNL     1       3.099   6.041  18.967  0.00  0.00    +0.000 A 
ATOM      6  C   UNL     1       3.432   6.640  17.743  0.00  0.00    +0.000 A 
ATOM      7  C   UNL     1       2.942   7.909  17.444  0.00  0.00    +0.000 A 
ATOM      8  C   UNL     1       2.112   8.551  18.371  0.00  0.00    +0.000 A 
ATOM      9  N   UNL     1       1.449   9.778  18.021  0.00  0.00    +0.000 N 
ATOM     10  C   UNL     1       2.305  10.955  18.217  0.00  0.00    +0.000 C 
ATOM     11  C   UNL     1       0.177   9.898  18.625  0.00  0.00    +0.000 A 
ATOM     12  S   UNL     1      -1.205  10.028  17.677  0.00  0.00    +0.000 S 
ENDROOT
BRANCH   1  16
ATOM     13  C   UNL     1      -1.624  12.504  22.907  0.00  0.00    +0.000 A 
ATOM     14  C   UNL     1      -1.282  12.926  21.624  0.00  0.00    +0.000 A 
ATOM     15  C   UNL     1      -0.708  12.035  20.709  0.00  0.00    +0.000 A 
ATOM     16  C   UNL     1      -0.457  10.701  21.058  0.00  0.00    +0.000 A 
ATOM     17  C   UNL     1      -0.828  10.287  22.347  0.00  0.00    +0.000 A 
ATOM     18  C   UNL     1      -1.390  11.182  23.268  0.00  0.00    +0.000 A 
BRANCH  13  20
ATOM     19  C   UNL     1      -1.313  14.614  23.917  0.00  0.00    +0.000 C 
ATOM     20  O   UNL     1      -2.137  13.470  23.725  0.00  0.00    +0.000 OA
ENDBRANCH  13  20
ENDBRANCH   1  16
BRANCH   4  21
ATOM     21  O   UNL     1       2.072   5.977  21.058  0.00  0.00    +0.000 OA
ATOM     22  C   UNL     1       1.984   4.560  20.923  0.00  0.00    +0.000 C 
ENDBRANCH   4  21
BRANCH   6  23
ATOM     23  O   UNL     1       4.202   5.852  16.931  0.00  0.00    +0.000 OA
ATOM     24  C   UNL     1       5.181   6.486  16.121  0.00  0.00    +0.000 C 
ENDBRANCH   6  23
TORSDOF 4
ENDMDL
MODEL 4
REMARK VINA RESULT:      -6.4      4.486      8.502
REMARK  Name = 
REMARK  8 active torsions:
REMARK  status: ('A' for Active; 'I' for Inactive)
REMARK    1  A    between atoms: C_1  and  O_2
REMARK    2  A    between atoms: O_2  and  C_3
REMARK    3  A    between atoms: C_6  and  C_7
REMARK    4  A    between atoms: C_10  and  O_11
REMARK    5  A    between atoms: O_11  and  C_12
REMARK    6  A    between atoms: C_14  and  O_15
REMARK    7  A    between atoms: O_15  and  C_16
REMARK    8  A    between atoms: N_19  and  C_20
REMARK                            x       y       z     vdW  Elec       q    Type
REMARK                         _______ _______ _______ _____ _____    ______ ____
ROOT
ATOM      1  C   UNL     1       0.867  10.604  18.872  0.00  0.00    +0.000 A 
ATOM      2  C   UNL     1       1.637  11.701  18.975  0.00  0.00    +0.000 A 
ATOM      3  C   UNL     1       1.056  13.052  18.905  0.00  0.00    +0.000 A 
ATOM      4  C   UNL     1       1.744  14.197  18.508  0.00  0.00    +0.000 A 
ATOM      5  C   UNL     1       1.117  15.441  18.641  0.00  0.00    +0.000 A 
ATOM      6  C   UNL     1      -0.184  15.562  19.150  0.00  0.00    +0.000 A 
ATOM      7  C   UNL     1      -0.879  14.418  19.534  0.00  0.00    +0.000 A 
ATOM      8  C   UNL     1      -0.265  13.170  19.386  0.00  0.00    +0.000 A 
ATOM      9  N   UNL     1      -1.015  11.962  19.604  0.00  0.00    +0.000 N 
ATOM     10  C   UNL     1      -1.072  11.584  21.022  0.00  0.00    +0.000 C 
ATOM     11  C   UNL     1      -0.606  10.909  18.755  0.00  0.00    +0.000 A 
ATOM     12  S   UNL     1      -1.691  10.221  17.672  0.00  0.00    +0.000 S 
ENDROOT
BRANCH   1  16
ATOM     13  C   UNL     1       2.626   6.690  19.314  0.00  0.00    +0.000 A 
ATOM     14  C   UNL     1       1.925   7.273  20.368  0.00  0.00    +0.000 A 
ATOM     15  C   UNL     1       1.326   8.530  20.218  0.00  0.00    +0.000 A 
ATOM     16  C   UNL     1       1.420   9.236  19.012  0.00  0.00    +0.000 A 
ATOM     17  C   UNL     1       2.110   8.625  17.953  0.00  0.00    +0.000 A 
ATOM     18  C   UNL     1       2.722   7.372  18.107  0.00  0.00    +0.000 A 
BRANCH  13  20
ATOM     19  C   UNL     1       4.544   5.326  19.143  0.00  0.00    +0.000 C 
ATOM     20  O   UNL     1       3.203   5.482  19.590  0.00  0.00    +0.000 OA
ENDBRANCH  13  20
ENDBRANCH   1  16
BRANCH   4  21
ATOM     21  O   UNL     1       3.021  14.252  18.016  0.00  0.00    +0.000 OA
ATOM     22  C   UNL     1       3.481  15.532  17.586  0.00  0.00    +0.000 C 
ENDBRANCH   4  21
BRANCH   6  23
ATOM     23  O   UNL     1      -0.655  16.847  19.172  0.00  0.00    +0.000 OA
ATOM     24  C   UNL     1      -0.614  17.592  17.962  0.00  0.00    +0.000 C 
ENDBRANCH   6  23
TORSDOF 4
ENDMDL
MODEL 5
REMARK VINA RESULT:      -6.4      1.724      7.549
REMARK  Name = 
REMARK  8 active torsions:
REMARK  status: ('A' for Active; 'I' for Inactive)
REMARK    1  A    between atoms: C_1  and  O_2
REMARK    2  A    between atoms: O_2  and  C_3
REMARK    3  A    between atoms: C_6  and  C_7
REMARK    4  A    between atoms: C_10  and  O_11
REMARK    5  A    between atoms: O_11  and  C_12
REMARK    6  A    between atoms: C_14  and  O_15
REMARK    7  A    between atoms: O_15  and  C_16
REMARK    8  A    between atoms: N_19  and  C_20
REMARK                            x       y       z     vdW  Elec       q    Type
REMARK                         _______ _______ _______ _____ _____    ______ ____
ROOT
ATOM      1  C   UNL     1       3.288   5.957  17.680  0.00  0.00    +0.000 A 
ATOM      2  C   UNL     1       3.208   7.248  18.043  0.00  0.00    +0.000 A 
ATOM      3  C   UNL     1       2.221   7.705  19.035  0.00  0.00    +0.000 A 
ATOM      4  C   UNL     1       1.715   9.000  19.122  0.00  0.00    +0.000 A 
ATOM      5  C   UNL     1       0.905   9.338  20.212  0.00  0.00    +0.000 A 
ATOM      6  C   UNL     1       0.582   8.405  21.208  0.00  0.00    +0.000 A 
ATOM      7  C   UNL     1       1.074   7.106  21.117  0.00  0.00    +0.000 A 
ATOM      8  C   UNL     1       1.869   6.757  20.019  0.00  0.00    +0.000 A 
ATOM      9  N   UNL     1       2.245   5.386  19.804  0.00  0.00    +0.000 N 
ATOM     10  C   UNL     1       3.431   4.999  20.578  0.00  0.00    +0.000 C 
ATOM     11  C   UNL     1       2.336   5.059  18.432  0.00  0.00    +0.000 A 
ATOM     12  S   UNL     1       1.352   3.866  17.775  0.00  0.00    +0.000 S 
ENDROOT
BRANCH   1  16
ATOM     13  C   UNL     1       6.169   4.496  14.822  0.00  0.00    +0.000 A 
ATOM     14  C   UNL     1       5.946   5.864  14.964  0.00  0.00    +0.000 A 
ATOM     15  C   UNL     1       5.034   6.343  15.912  0.00  0.00    +0.000 A 
ATOM     16  C   UNL     1       4.319   5.464  16.737  0.00  0.00    +0.000 A 
ATOM     17  C   UNL     1       4.573   4.091  16.597  0.00  0.00    +0.000 A 
ATOM     18  C   UNL     1       5.476   3.610  15.638  0.00  0.00    +0.000 A 
BRANCH  13  20
ATOM     19  C   UNL     1       6.466   3.603  12.657  0.00  0.00    +0.000 C 
ATOM     20  O   UNL     1       7.049   4.144  13.837  0.00  0.00    +0.000 OA
ENDBRANCH  13  20
ENDBRANCH   1  16
BRANCH   4  21
ATOM     21  O   UNL     1       1.954  10.029  18.249  0.00  0.00    +0.000 OA
ATOM     22  C   UNL     1       1.537  11.327  18.669  0.00  0.00    +0.000 C 
ENDBRANCH   4  21
BRANCH   6  23
ATOM     23  O   UNL     1      -0.253   8.894  22.176  0.00  0.00    +0.000 OA
ATOM     24  C   UNL     1      -0.266  10.298  22.397  0.00  0.00    +0.000 C 
ENDBRANCH   6  23
TORSDOF 4
ENDMDL
MODEL 6
REMARK VINA RESULT:      -6.2      7.726      9.503
REMARK  Name = 
REMARK  8 active torsions:
REMARK  status: ('A' for Active; 'I' for Inactive)
REMARK    1  A    between atoms: C_1  and  O_2
REMARK    2  A    between atoms: O_2  and  C_3
REMARK    3  A    between atoms: C_6  and  C_7
REMARK    4  A    between atoms: C_10  and  O_11
REMARK    5  A    between atoms: O_11  and  C_12
REMARK    6  A    between atoms: C_14  and  O_15
REMARK    7  A    between atoms: O_15  and  C_16
REMARK    8  A    between atoms: N_19  and  C_20
REMARK                            x       y       z     vdW  Elec       q    Type
REMARK                         _______ _______ _______ _____ _____    ______ ____
ROOT
ATOM      1  C   UNL     1       8.020  12.798  22.503  0.00  0.00    +0.000 A 
ATOM      2  C   UNL     1       8.747  11.960  21.745  0.00  0.00    +0.000 A 
ATOM      3  C   UNL     1       9.240  12.361  20.418  0.00  0.00    +0.000 A 
ATOM      4  C   UNL     1       9.544  11.483  19.380  0.00  0.00    +0.000 A 
ATOM      5  C   UNL     1      10.157  11.987  18.226  0.00  0.00    +0.000 A 
ATOM      6  C   UNL     1      10.458  13.350  18.086  0.00  0.00    +0.000 A 
ATOM      7  C   UNL     1      10.143  14.232  19.115  0.00  0.00    +0.000 A 
ATOM      8  C   UNL     1       9.514  13.736  20.264  0.00  0.00    +0.000 A 
ATOM      9  N   UNL     1       9.016  14.641  21.264  0.00  0.00    +0.000 N 
ATOM     10  C   UNL     1      10.056  15.059  22.213  0.00  0.00    +0.000 C 
ATOM     11  C   UNL     1       7.841  14.165  21.889  0.00  0.00    +0.000 A 
ATOM     12  S   UNL     1       6.411  15.042  21.792  0.00  0.00    +0.000 S 
ENDROOT
BRANCH   1  16
ATOM     13  C   UNL     1       6.628  11.898  26.486  0.00  0.00    +0.000 A 
ATOM     14  C   UNL     1       6.017  11.319  25.375  0.00  0.00    +0.000 A 
ATOM     15  C   UNL     1       6.486  11.585  24.083  0.00  0.00    +0.000 A 
ATOM     16  C   UNL     1       7.574  12.441  23.871  0.00  0.00    +0.000 A 
ATOM     17  C   UNL     1       8.194  12.997  25.001  0.00  0.00    +0.000 A 
ATOM     18  C   UNL     1       7.716  12.743  26.294  0.00  0.00    +0.000 A 
BRANCH  13  20
ATOM     19  C   UNL     1       5.583  10.265  27.832  0.00  0.00    +0.000 C 
ATOM     20  O   UNL     1       6.059  11.599  27.692  0.00  0.00    +0.000 OA
ENDBRANCH  13  20
ENDBRANCH   1  16
BRANCH   4  21
ATOM     21  O   UNL     1       9.337  10.129  19.369  0.00  0.00    +0.000 OA
ATOM     22  C   UNL     1       8.544   9.617  18.300  0.00  0.00    +0.000 C 
ENDBRANCH   4  21
BRANCH   6  23
ATOM     23  O   UNL     1      11.017  13.673  16.879  0.00  0.00    +0.000 OA
ATOM     24  C   UNL     1      12.324  13.191  16.599  0.00  0.00    +0.000 C 
ENDBRANCH   6  23
TORSDOF 4
ENDMDL
MODEL 7
REMARK VINA RESULT:      -6.1      7.105      9.128
REMARK  Name = 
REMARK  8 active torsions:
REMARK  status: ('A' for Active; 'I' for Inactive)
REMARK    1  A    between atoms: C_1  and  O_2
REMARK    2  A    between atoms: O_2  and  C_3
REMARK    3  A    between atoms: C_6  and  C_7
REMARK    4  A    between atoms: C_10  and  O_11
REMARK    5  A    between atoms: O_11  and  C_12
REMARK    6  A    between atoms: C_14  and  O_15
REMARK    7  A    between atoms: O_15  and  C_16
REMARK    8  A    between atoms: N_19  and  C_20
REMARK                            x       y       z     vdW  Elec       q    Type
REMARK                         _______ _______ _______ _____ _____    ______ ____
ROOT
ATOM      1  C   UNL     1      -2.354  13.002  20.379  0.00  0.00    +0.000 A 
ATOM      2  C   UNL     1      -3.416  12.409  19.808  0.00  0.00    +0.000 A 
ATOM      3  C   UNL     1      -3.312  11.760  18.491  0.00  0.00    +0.000 A 
ATOM      4  C   UNL     1      -4.373  11.569  17.608  0.00  0.00    +0.000 A 
ATOM      5  C   UNL     1      -4.166  10.794  16.461  0.00  0.00    +0.000 A 
ATOM      6  C   UNL     1      -2.920  10.219  16.173  0.00  0.00    +0.000 A 
ATOM      7  C   UNL     1      -1.854  10.420  17.045  0.00  0.00    +0.000 A 
ATOM      8  C   UNL     1      -2.050  11.209  18.185  0.00  0.00    +0.000 A 
ATOM      9  N   UNL     1      -0.932  11.581  19.009  0.00  0.00    +0.000 N 
ATOM     10  C   UNL     1      -0.584  10.542  19.987  0.00  0.00    +0.000 C 
ATOM     11  C   UNL     1      -1.083  12.865  19.579  0.00  0.00    +0.000 A 
ATOM     12  S   UNL     1       0.024  14.083  19.236  0.00  0.00    +0.000 S 
ENDROOT
BRANCH   1  16
ATOM     13  C   UNL     1      -2.609  14.595  24.380  0.00  0.00    +0.000 A 
ATOM     14  C   UNL     1      -1.418  14.043  23.913  0.00  0.00    +0.000 A 
ATOM     15  C   UNL     1      -1.322  13.553  22.605  0.00  0.00    +0.000 A 
ATOM     16  C   UNL     1      -2.419  13.599  21.734  0.00  0.00    +0.000 A 
ATOM     17  C   UNL     1      -3.605  14.180  22.213  0.00  0.00    +0.000 A 
ATOM     18  C   UNL     1      -3.704  14.657  23.527  0.00  0.00    +0.000 A 
BRANCH  13  20
ATOM     19  C   UNL     1      -1.433  15.710  26.096  0.00  0.00    +0.000 C 
ATOM     20  O   UNL     1      -2.596  15.002  25.685  0.00  0.00    +0.000 OA
ENDBRANCH  13  20
ENDBRANCH   1  16
BRANCH   4  21
ATOM     21  O   UNL     1      -5.651  12.040  17.754  0.00  0.00    +0.000 OA
ATOM     22  C   UNL     1      -6.614  11.116  18.257  0.00  0.00    +0.000 C 
ENDBRANCH   4  21
BRANCH   6  23
ATOM     23  O   UNL     1      -2.887   9.530  14.991  0.00  0.00    +0.000 OA
ATOM     24  C   UNL     1      -3.656  10.030  13.906  0.00  0.00    +0.000 C 
ENDBRANCH   6  23
TORSDOF 4
ENDMDL
MODEL 8
REMARK VINA RESULT:      -6.1      4.504      8.686
REMARK  Name = 
REMARK  8 active torsions:
REMARK  status: ('A' for Active; 'I' for Inactive)
REMARK    1  A    between atoms: C_1  and  O_2
REMARK    2  A    between atoms: O_2  and  C_3
REMARK    3  A    between atoms: C_6  and  C_7
REMARK    4  A    between atoms: C_10  and  O_11
REMARK    5  A    between atoms: O_11  and  C_12
REMARK    6  A    between atoms: C_14  and  O_15
REMARK    7  A    between atoms: O_15  and  C_16
REMARK    8  A    between atoms: N_19  and  C_20
REMARK                            x       y       z     vdW  Elec       q    Type
REMARK                         _______ _______ _______ _____ _____    ______ ____
ROOT
ATOM      1  C   UNL     1       0.892  10.720  18.866  0.00  0.00    +0.000 A 
ATOM      2  C   UNL     1       1.622  11.844  18.978  0.00  0.00    +0.000 A 
ATOM      3  C   UNL     1       0.987  13.171  18.974  0.00  0.00    +0.000 A 
ATOM      4  C   UNL     1       1.613  14.356  18.592  0.00  0.00    +0.000 A 
ATOM      5  C   UNL     1       0.943  15.569  18.790  0.00  0.00    +0.000 A 
ATOM      6  C   UNL     1      -0.342  15.620  19.349  0.00  0.00    +0.000 A 
ATOM      7  C   UNL     1      -0.977  14.438  19.718  0.00  0.00    +0.000 A 
ATOM      8  C   UNL     1      -0.319  13.220  19.506  0.00  0.00    +0.000 A 
ATOM      9  N   UNL     1      -1.013  11.977  19.711  0.00  0.00    +0.000 N 
ATOM     10  C   UNL     1      -1.002  11.551  21.116  0.00  0.00    +0.000 C 
ATOM     11  C   UNL     1      -0.595  10.969  18.812  0.00  0.00    +0.000 A 
ATOM     12  S   UNL     1      -1.691  10.273  17.746  0.00  0.00    +0.000 S 
ENDROOT
BRANCH   1  16
ATOM     13  C   UNL     1       2.520   6.729  19.046  0.00  0.00    +0.000 A 
ATOM     14  C   UNL     1       2.621   7.483  17.878  0.00  0.00    +0.000 A 
ATOM     15  C   UNL     1       2.122   8.789  17.825  0.00  0.00    +0.000 A 
ATOM     16  C   UNL     1       1.503   9.372  18.939  0.00  0.00    +0.000 A 
ATOM     17  C   UNL     1       1.430   8.609  20.115  0.00  0.00    +0.000 A 
ATOM     18  C   UNL     1       1.918   7.295  20.164  0.00  0.00    +0.000 A 
BRANCH  13  20
ATOM     19  C   UNL     1       2.246   4.558  18.161  0.00  0.00    +0.000 C 
ATOM     20  O   UNL     1       3.004   5.454  18.966  0.00  0.00    +0.000 OA
ENDBRANCH  13  20
ENDBRANCH   1  16
BRANCH   4  21
ATOM     21  O   UNL     1       2.868  14.479  18.057  0.00  0.00    +0.000 OA
ATOM     22  C   UNL     1       3.283  15.798  17.708  0.00  0.00    +0.000 C 
ENDBRANCH   4  21
BRANCH   6  23
ATOM     23  O   UNL     1      -0.861  16.884  19.430  0.00  0.00    +0.000 OA
ATOM     24  C   UNL     1       0.047  17.974  19.504  0.00  0.00    +0.000 C 
ENDBRANCH   6  23
TORSDOF 4
ENDMDL
MODEL 9
REMARK VINA RESULT:      -6.1      7.617     10.767
REMARK  Name = 
REMARK  8 active torsions:
REMARK  status: ('A' for Active; 'I' for Inactive)
REMARK    1  A    between atoms: C_1  and  O_2
REMARK    2  A    between atoms: O_2  and  C_3
REMARK    3  A    between atoms: C_6  and  C_7
REMARK    4  A    between atoms: C_10  and  O_11
REMARK    5  A    between atoms: O_11  and  C_12
REMARK    6  A    between atoms: C_14  and  O_15
REMARK    7  A    between atoms: O_15  and  C_16
REMARK    8  A    between atoms: N_19  and  C_20
REMARK                            x       y       z     vdW  Elec       q    Type
REMARK                         _______ _______ _______ _____ _____    ______ ____
ROOT
ATOM      1  C   UNL     1      -2.199  11.959  19.507  0.00  0.00    +0.000 A 
ATOM      2  C   UNL     1      -2.979  12.465  20.477  0.00  0.00    +0.000 A 
ATOM      3  C   UNL     1      -2.400  13.045  21.700  0.00  0.00    +0.000 A 
ATOM      4  C   UNL     1      -3.051  13.133  22.928  0.00  0.00    +0.000 A 
ATOM      5  C   UNL     1      -2.444  13.852  23.964  0.00  0.00    +0.000 A 
ATOM      6  C   UNL     1      -1.198  14.473  23.800  0.00  0.00    +0.000 A 
ATOM      7  C   UNL     1      -0.537  14.375  22.579  0.00  0.00    +0.000 A 
ATOM      8  C   UNL     1      -1.131  13.642  21.545  0.00  0.00    +0.000 A 
ATOM      9  N   UNL     1      -0.400  13.373  20.336  0.00  0.00    +0.000 N 
ATOM     10  C   UNL     1      -0.476  14.480  19.374  0.00  0.00    +0.000 C 
ATOM     11  C   UNL     1      -0.723  12.116  19.776  0.00  0.00    +0.000 A 
ATOM     12  S   UNL     1       0.463  10.939  19.590  0.00  0.00    +0.000 S 
ENDROOT
BRANCH   1  16
ATOM     13  C   UNL     1      -3.787  10.582  15.739  0.00  0.00    +0.000 A 
ATOM     14  C   UNL     1      -2.487  10.255  16.121  0.00  0.00    +0.000 A 
ATOM     15  C   UNL     1      -1.979  10.674  17.357  0.00  0.00    +0.000 A 
ATOM     16  C   UNL     1      -2.758  11.435  18.238  0.00  0.00    +0.000 A 
ATOM     17  C   UNL     1      -4.072  11.737  17.848  0.00  0.00    +0.000 A 
ATOM     18  C   UNL     1      -4.577  11.330  16.605  0.00  0.00    +0.000 A 
BRANCH  13  20
ATOM     19  C   UNL     1      -3.091   9.890  13.593  0.00  0.00    +0.000 C 
ATOM     20  O   UNL     1      -4.159  10.155  14.496  0.00  0.00    +0.000 OA
ENDBRANCH  13  20
ENDBRANCH   1  16
BRANCH   4  21
ATOM     21  O   UNL     1      -4.276  12.607  23.242  0.00  0.00    +0.000 OA
ATOM     22  C   UNL     1      -4.592  12.517  24.630  0.00  0.00    +0.000 C 
ENDBRANCH   4  21
BRANCH   6  23
ATOM     23  O   UNL     1      -0.736  15.097  24.928  0.00  0.00    +0.000 OA
ATOM     24  C   UNL     1      -1.654  15.876  25.682  0.00  0.00    +0.000 C 
ENDBRANCH   6  23
TORSDOF 4
ENDMDL
