MODEL 1
REMARK VINA RESULT:      -7.5      0.000      0.000
REMARK  Name = 
REMARK  3 active torsions:
REMARK  status: ('A' for Active; 'I' for Inactive)
REMARK    1  A    between atoms: C_2  and  C_3
REMARK    2  A    between atoms: C_3  and  O_4
REMARK    3  A    between atoms: C_7  and  C_8
REMARK                            x       y       z     vdW  Elec       q    Type
REMARK                         _______ _______ _______ _____ _____    ______ ____
ROOT
ATOM      1  O   UNL     1      -2.733  12.772  20.107  0.00  0.00    +0.000 OA
ATOM      2  C   UNL     1      -2.106  11.910  19.477  0.00  0.00    +0.000 C 
ATOM      3  N   UNL     1      -1.151  11.078  20.079  0.00  0.00    +0.000 N 
ATOM      4  N   UNL     1      -0.470  10.076  19.335  0.00  0.00    +0.000 NA
ATOM      5  C   UNL     1       0.508   9.594  20.061  0.00  0.00    +0.000 C 
ATOM      6  S   UNL     1       0.757  10.254  21.648  0.00  0.00    +0.000 S 
ATOM      7  C   UNL     1      -0.423  11.582  21.288  0.00  0.00    +0.000 C 
ATOM      8  C   UNL     1      -1.137  11.635  22.651  0.00  0.00    +0.000 C 
ATOM      9  C   UNL     1      -1.504  13.043  23.059  0.00  0.00    +0.000 C 
ATOM     10  O   UNL     1      -0.380  13.928  23.003  0.00  0.00    +0.000 OA
ATOM     11  C   UNL     1       0.253  13.952  21.797  0.00  0.00    +0.000 A 
ATOM     12  C   UNL     1       0.899  15.136  21.462  0.00  0.00    +0.000 A 
ATOM     13  C   UNL     1       1.503  15.297  20.217  0.00  0.00    +0.000 A 
ATOM     14  C   UNL     1       1.550  14.233  19.330  0.00  0.00    +0.000 A 
ATOM     15  C   UNL     1       0.983  13.018  19.694  0.00  0.00    +0.000 A 
ATOM     16  C   UNL     1       0.310  12.869  20.935  0.00  0.00    +0.000 A 
ENDROOT
BRANCH   5  17
ATOM     17  C   UNL     1       1.597   8.670  19.739  0.00  0.00    +0.000 A 
ATOM     18  C   UNL     1       1.692   7.530  20.551  0.00  0.00    +0.000 A 
ATOM     19  C   UNL     1       2.196   6.351  20.007  0.00  0.00    +0.000 A 
ATOM     20  F   UNL     1       2.197   5.238  20.750  0.00  0.00    +0.000 F 
ATOM     21  C   UNL     1       2.603   6.276  18.675  0.00  0.00    +0.000 A 
ATOM     22  C   UNL     1       2.525   7.409  17.868  0.00  0.00    +0.000 A 
ATOM     23  C   UNL     1       2.043   8.601  18.406  0.00  0.00    +0.000 A 
ATOM     24  F   UNL     1       1.844   9.635  17.573  0.00  0.00    +0.000 F 
ENDBRANCH   5  17
BRANCH   2  25
ATOM     25  C   UNL     1      -2.315  11.809  17.951  0.00  0.00    +0.000 C 
BRANCH  25  26
ATOM     26  O   UNL     1      -1.312  12.525  17.218  0.00  0.00    +0.000 OA
ATOM     27  H   UNL     1      -1.741  13.334  16.872  0.00  0.00    +0.000 HD
ENDBRANCH  25  26
ENDBRANCH   2  25
TORSDOF 3
ENDMDL
MODEL 2
REMARK VINA RESULT:      -7.5      2.114      4.258
REMARK  Name = 
REMARK  3 active torsions:
REMARK  status: ('A' for Active; 'I' for Inactive)
REMARK    1  A    between atoms: C_2  and  C_3
REMARK    2  A    between atoms: C_3  and  O_4
REMARK    3  A    between atoms: C_7  and  C_8
REMARK                            x       y       z     vdW  Elec       q    Type
REMARK                         _______ _______ _______ _____ _____    ______ ____
ROOT
ATOM      1  O   UNL     1      -0.410  11.979  21.549  0.00  0.00    +0.000 OA
ATOM      2  C   UNL     1      -0.017  10.806  21.510  0.00  0.00    +0.000 C 
ATOM      3  N   UNL     1       0.814  10.320  20.491  0.00  0.00    +0.000 N 
ATOM      4  N   UNL     1       1.274   8.975  20.491  0.00  0.00    +0.000 NA
ATOM      5  C   UNL     1       1.842   8.716  19.340  0.00  0.00    +0.000 C 
ATOM      6  S   UNL     1       1.884   9.973  18.142  0.00  0.00    +0.000 S 
ATOM      7  C   UNL     1       0.753  10.974  19.144  0.00  0.00    +0.000 C 
ATOM      8  C   UNL     1       1.405  12.352  18.927  0.00  0.00    +0.000 C 
ATOM      9  C   UNL     1       0.388  13.465  18.819  0.00  0.00    +0.000 C 
ATOM     10  O   UNL     1      -0.616  13.181  17.838  0.00  0.00    +0.000 OA
ATOM     11  C   UNL     1      -1.256  11.992  18.021  0.00  0.00    +0.000 A 
ATOM     12  C   UNL     1      -2.562  11.915  17.552  0.00  0.00    +0.000 A 
ATOM     13  C   UNL     1      -3.336  10.777  17.764  0.00  0.00    +0.000 A 
ATOM     14  C   UNL     1      -2.773   9.663  18.366  0.00  0.00    +0.000 A 
ATOM     15  C   UNL     1      -1.441   9.701  18.759  0.00  0.00    +0.000 A 
ATOM     16  C   UNL     1      -0.667  10.882  18.602  0.00  0.00    +0.000 A 
ENDROOT
BRANCH   5  17
ATOM     17  C   UNL     1       2.342   7.469  18.758  0.00  0.00    +0.000 A 
ATOM     18  C   UNL     1       3.175   7.608  17.637  0.00  0.00    +0.000 A 
ATOM     19  C   UNL     1       4.167   6.656  17.410  0.00  0.00    +0.000 A 
ATOM     20  F   UNL     1       5.025   6.838  16.399  0.00  0.00    +0.000 F 
ATOM     21  C   UNL     1       4.353   5.575  18.271  0.00  0.00    +0.000 A 
ATOM     22  C   UNL     1       3.519   5.424  19.376  0.00  0.00    +0.000 A 
ATOM     23  C   UNL     1       2.509   6.357  19.603  0.00  0.00    +0.000 A 
ATOM     24  F   UNL     1       1.813   6.269  20.748  0.00  0.00    +0.000 F 
ENDBRANCH   5  17
BRANCH   2  25
ATOM     25  C   UNL     1      -0.537   9.815  22.573  0.00  0.00    +0.000 C 
BRANCH  25  26
ATOM     26  O   UNL     1       0.388   9.649  23.657  0.00  0.00    +0.000 OA
ATOM     27  H   UNL     1       0.736  10.539  23.868  0.00  0.00    +0.000 HD
ENDBRANCH  25  26
ENDBRANCH   2  25
TORSDOF 3
ENDMDL
MODEL 3
REMARK VINA RESULT:      -7.5      7.082     10.025
REMARK  Name = 
REMARK  3 active torsions:
REMARK  status: ('A' for Active; 'I' for Inactive)
REMARK    1  A    between atoms: C_2  and  C_3
REMARK    2  A    between atoms: C_3  and  O_4
REMARK    3  A    between atoms: C_7  and  C_8
REMARK                            x       y       z     vdW  Elec       q    Type
REMARK                         _______ _______ _______ _____ _____    ______ ____
ROOT
ATOM      1  O   UNL     1       5.694   6.089  19.683  0.00  0.00    +0.000 OA
ATOM      2  C   UNL     1       6.447   5.550  18.862  0.00  0.00    +0.000 C 
ATOM      3  N   UNL     1       6.223   5.607  17.479  0.00  0.00    +0.000 N 
ATOM      4  N   UNL     1       7.124   5.003  16.559  0.00  0.00    +0.000 NA
ATOM      5  C   UNL     1       6.584   5.008  15.366  0.00  0.00    +0.000 C 
ATOM      6  S   UNL     1       4.993   5.679  15.185  0.00  0.00    +0.000 S 
ATOM      7  C   UNL     1       4.816   5.763  16.987  0.00  0.00    +0.000 C 
ATOM      8  C   UNL     1       4.111   7.127  17.090  0.00  0.00    +0.000 C 
ATOM      9  C   UNL     1       3.067   7.160  18.182  0.00  0.00    +0.000 C 
ATOM     10  O   UNL     1       2.137   6.077  18.069  0.00  0.00    +0.000 OA
ATOM     11  C   UNL     1       2.716   4.844  18.026  0.00  0.00    +0.000 A 
ATOM     12  C   UNL     1       1.958   3.789  18.517  0.00  0.00    +0.000 A 
ATOM     13  C   UNL     1       2.486   2.502  18.600  0.00  0.00    +0.000 A 
ATOM     14  C   UNL     1       3.752   2.243  18.099  0.00  0.00    +0.000 A 
ATOM     15  C   UNL     1       4.482   3.277  17.525  0.00  0.00    +0.000 A 
ATOM     16  C   UNL     1       3.973   4.602  17.497  0.00  0.00    +0.000 A 
ENDROOT
BRANCH   5  17
ATOM     17  C   UNL     1       7.001   4.391  14.105  0.00  0.00    +0.000 A 
ATOM     18  C   UNL     1       6.122   3.438  13.570  0.00  0.00    +0.000 A 
ATOM     19  C   UNL     1       6.057   3.278  12.187  0.00  0.00    +0.000 A 
ATOM     20  F   UNL     1       5.150   2.441  11.670  0.00  0.00    +0.000 F 
ATOM     21  C   UNL     1       6.840   4.045  11.326  0.00  0.00    +0.000 A 
ATOM     22  C   UNL     1       7.727   4.982  11.852  0.00  0.00    +0.000 A 
ATOM     23  C   UNL     1       7.818   5.137  13.234  0.00  0.00    +0.000 A 
ATOM     24  F   UNL     1       8.571   6.141  13.709  0.00  0.00    +0.000 F 
ENDBRANCH   5  17
BRANCH   2  25
ATOM     25  C   UNL     1       7.627   4.702  19.383  0.00  0.00    +0.000 C 
BRANCH  25  26
ATOM     26  O   UNL     1       8.189   5.239  20.589  0.00  0.00    +0.000 OA
ATOM     27  H   UNL     1       7.559   5.033  21.309  0.00  0.00    +0.000 HD
ENDBRANCH  25  26
ENDBRANCH   2  25
TORSDOF 3
ENDMDL
MODEL 4
REMARK VINA RESULT:      -7.1      3.387      6.307
REMARK  Name = 
REMARK  3 active torsions:
REMARK  status: ('A' for Active; 'I' for Inactive)
REMARK    1  A    between atoms: C_2  and  C_3
REMARK    2  A    between atoms: C_3  and  O_4
REMARK    3  A    between atoms: C_7  and  C_8
REMARK                            x       y       z     vdW  Elec       q    Type
REMARK                         _______ _______ _______ _____ _____    ______ ____
ROOT
ATOM      1  O   UNL     1      -1.660   9.653  18.310  0.00  0.00    +0.000 OA
ATOM      2  C   UNL     1      -1.714  10.889  18.318  0.00  0.00    +0.000 C 
ATOM      3  N   UNL     1      -0.569  11.696  18.398  0.00  0.00    +0.000 N 
ATOM      4  N   UNL     1      -0.661  13.114  18.374  0.00  0.00    +0.000 NA
ATOM      5  C   UNL     1       0.506  13.624  18.678  0.00  0.00    +0.000 C 
ATOM      6  S   UNL     1       1.810  12.537  19.043  0.00  0.00    +0.000 S 
ATOM      7  C   UNL     1       0.648  11.146  19.078  0.00  0.00    +0.000 C 
ATOM      8  C   UNL     1       1.519  10.096  18.366  0.00  0.00    +0.000 C 
ATOM      9  C   UNL     1       1.342   8.709  18.940  0.00  0.00    +0.000 C 
ATOM     10  O   UNL     1       1.521   8.688  20.360  0.00  0.00    +0.000 OA
ATOM     11  C   UNL     1       0.731   9.568  21.037  0.00  0.00    +0.000 A 
ATOM     12  C   UNL     1       0.390   9.218  22.337  0.00  0.00    +0.000 A 
ATOM     13  C   UNL     1      -0.483  10.003  23.087  0.00  0.00    +0.000 A 
ATOM     14  C   UNL     1      -0.947  11.202  22.572  0.00  0.00    +0.000 A 
ATOM     15  C   UNL     1      -0.539  11.603  21.306  0.00  0.00    +0.000 A 
ATOM     16  C   UNL     1       0.299  10.775  20.513  0.00  0.00    +0.000 A 
ENDROOT
BRANCH   5  17
ATOM     17  C   UNL     1       0.929  15.001  18.942  0.00  0.00    +0.000 A 
ATOM     18  C   UNL     1       2.156  15.383  18.379  0.00  0.00    +0.000 A 
ATOM     19  C   UNL     1       2.347  16.713  18.011  0.00  0.00    +0.000 A 
ATOM     20  F   UNL     1       3.477  17.060  17.385  0.00  0.00    +0.000 F 
ATOM     21  C   UNL     1       1.347  17.670  18.184  0.00  0.00    +0.000 A 
ATOM     22  C   UNL     1       0.132  17.300  18.757  0.00  0.00    +0.000 A 
ATOM     23  C   UNL     1      -0.064  15.977  19.150  0.00  0.00    +0.000 A 
ATOM     24  F   UNL     1      -1.288  15.617  19.565  0.00  0.00    +0.000 F 
ENDBRANCH   5  17
BRANCH   2  25
ATOM     25  C   UNL     1      -3.098  11.571  18.335  0.00  0.00    +0.000 C 
BRANCH  25  26
ATOM     26  O   UNL     1      -3.521  11.971  17.024  0.00  0.00    +0.000 OA
ATOM     27  H   UNL     1      -3.843  11.163  16.574  0.00  0.00    +0.000 HD
ENDBRANCH  25  26
ENDBRANCH   2  25
TORSDOF 3
ENDMDL
MODEL 5
REMARK VINA RESULT:      -7.0      3.077      5.727
REMARK  Name = 
REMARK  3 active torsions:
REMARK  status: ('A' for Active; 'I' for Inactive)
REMARK    1  A    between atoms: C_2  and  C_3
REMARK    2  A    between atoms: C_3  and  O_4
REMARK    3  A    between atoms: C_7  and  C_8
REMARK                            x       y       z     vdW  Elec       q    Type
REMARK                         _______ _______ _______ _____ _____    ______ ____
ROOT
ATOM      1  O   UNL     1       2.283  11.954  20.932  0.00  0.00    +0.000 OA
ATOM      2  C   UNL     1       1.637  12.357  19.956  0.00  0.00    +0.000 C 
ATOM      3  N   UNL     1       0.333  11.923  19.680  0.00  0.00    +0.000 N 
ATOM      4  N   UNL     1      -0.394  12.429  18.568  0.00  0.00    +0.000 NA
ATOM      5  C   UNL     1      -1.480  11.716  18.406  0.00  0.00    +0.000 C 
ATOM      6  S   UNL     1      -1.763  10.389  19.489  0.00  0.00    +0.000 S 
ATOM      7  C   UNL     1      -0.084  10.562  20.149  0.00  0.00    +0.000 C 
ATOM      8  C   UNL     1      -0.391  10.322  21.638  0.00  0.00    +0.000 C 
ATOM      9  C   UNL     1       0.698   9.542  22.338  0.00  0.00    +0.000 C 
ATOM     10  O   UNL     1       1.016   8.328  21.648  0.00  0.00    +0.000 OA
ATOM     11  C   UNL     1       1.346   8.499  20.337  0.00  0.00    +0.000 A 
ATOM     12  C   UNL     1       2.211   7.560  19.791  0.00  0.00    +0.000 A 
ATOM     13  C   UNL     1       2.680   7.689  18.485  0.00  0.00    +0.000 A 
ATOM     14  C   UNL     1       2.207   8.713  17.681  0.00  0.00    +0.000 A 
ATOM     15  C   UNL     1       1.273   9.605  18.193  0.00  0.00    +0.000 A 
ATOM     16  C   UNL     1       0.841   9.515  19.543  0.00  0.00    +0.000 A 
ENDROOT
BRANCH   5  17
ATOM     17  C   UNL     1      -2.490  11.705  17.345  0.00  0.00    +0.000 A 
ATOM     18  C   UNL     1      -2.124  11.052  16.159  0.00  0.00    +0.000 A 
ATOM     19  C   UNL     1      -3.112  10.435  15.394  0.00  0.00    +0.000 A 
ATOM     20  F   UNL     1      -2.754   9.729  14.315  0.00  0.00    +0.000 F 
ATOM     21  C   UNL     1      -4.450  10.447  15.782  0.00  0.00    +0.000 A 
ATOM     22  C   UNL     1      -4.822  11.107  16.952  0.00  0.00    +0.000 A 
ATOM     23  C   UNL     1      -3.848  11.747  17.715  0.00  0.00    +0.000 A 
ATOM     24  F   UNL     1      -4.208  12.251  18.905  0.00  0.00    +0.000 F 
ENDBRANCH   5  17
BRANCH   2  25
ATOM     25  C   UNL     1       2.327  13.305  18.952  0.00  0.00    +0.000 C 
BRANCH  25  26
ATOM     26  O   UNL     1       2.422  12.730  17.641  0.00  0.00    +0.000 OA
ATOM     27  H   UNL     1       1.510  12.506  17.367  0.00  0.00    +0.000 HD
ENDBRANCH  25  26
ENDBRANCH   2  25
TORSDOF 3
ENDMDL
MODEL 6
REMARK VINA RESULT:      -7.0      3.836      6.316
REMARK  Name = 
REMARK  3 active torsions:
REMARK  status: ('A' for Active; 'I' for Inactive)
REMARK    1  A    between atoms: C_2  and  C_3
REMARK    2  A    between atoms: C_3  and  O_4
REMARK    3  A    between atoms: C_7  and  C_8
REMARK                            x       y       z     vdW  Elec       q    Type
REMARK                         _______ _______ _______ _____ _____    ______ ____
ROOT
ATOM      1  O   UNL     1      -1.257  10.138  19.277  0.00  0.00    +0.000 OA
ATOM      2  C   UNL     1      -1.199  11.227  18.693  0.00  0.00    +0.000 C 
ATOM      3  N   UNL     1      -0.333  12.255  19.093  0.00  0.00    +0.000 N 
ATOM      4  N   UNL     1      -0.267  13.484  18.382  0.00  0.00    +0.000 NA
ATOM      5  C   UNL     1       0.442  14.341  19.073  0.00  0.00    +0.000 C 
ATOM      6  S   UNL     1       1.078  13.835  20.608  0.00  0.00    +0.000 S 
ATOM      7  C   UNL     1       0.075  12.328  20.533  0.00  0.00    +0.000 C 
ATOM      8  C   UNL     1       1.107  11.332  21.092  0.00  0.00    +0.000 C 
ATOM      9  C   UNL     1       0.477  10.277  21.974  0.00  0.00    +0.000 C 
ATOM     10  O   UNL     1      -0.333  10.852  23.004  0.00  0.00    +0.000 OA
ATOM     11  C   UNL     1      -1.296  11.703  22.550  0.00  0.00    +0.000 A 
ATOM     12  C   UNL     1      -2.442  11.811  23.328  0.00  0.00    +0.000 A 
ATOM     13  C   UNL     1      -3.522  12.585  22.912  0.00  0.00    +0.000 A 
ATOM     14  C   UNL     1      -3.425  13.339  21.754  0.00  0.00    +0.000 A 
ATOM     15  C   UNL     1      -2.248  13.305  21.016  0.00  0.00    +0.000 A 
ATOM     16  C   UNL     1      -1.168  12.468  21.403  0.00  0.00    +0.000 A 
ENDROOT
BRANCH   5  17
ATOM     17  C   UNL     1       0.697  15.771  18.886  0.00  0.00    +0.000 A 
ATOM     18  C   UNL     1       1.865  16.097  18.181  0.00  0.00    +0.000 A 
ATOM     19  C   UNL     1       1.892  17.262  17.417  0.00  0.00    +0.000 A 
ATOM     20  F   UNL     1       2.968  17.525  16.667  0.00  0.00    +0.000 F 
ATOM     21  C   UNL     1       0.785  18.106  17.333  0.00  0.00    +0.000 A 
ATOM     22  C   UNL     1      -0.373  17.795  18.043  0.00  0.00    +0.000 A 
ATOM     23  C   UNL     1      -0.405  16.644  18.829  0.00  0.00    +0.000 A 
ATOM     24  F   UNL     1      -1.575  16.294  19.387  0.00  0.00    +0.000 F 
ENDBRANCH   5  17
BRANCH   2  25
ATOM     25  C   UNL     1      -2.182  11.501  17.535  0.00  0.00    +0.000 C 
BRANCH  25  26
ATOM     26  O   UNL     1      -3.303  12.295  17.951  0.00  0.00    +0.000 OA
ATOM     27  H   UNL     1      -4.078  11.698  17.968  0.00  0.00    +0.000 HD
ENDBRANCH  25  26
ENDBRANCH   2  25
TORSDOF 3
ENDMDL
MODEL 7
REMARK VINA RESULT:      -6.9      5.191      8.998
REMARK  Name = 
REMARK  3 active torsions:
REMARK  status: ('A' for Active; 'I' for Inactive)
REMARK    1  A    between atoms: C_2  and  C_3
REMARK    2  A    between atoms: C_3  and  O_4
REMARK    3  A    between atoms: C_7  and  C_8
REMARK                            x       y       z     vdW  Elec       q    Type
REMARK                         _______ _______ _______ _____ _____    ______ ____
ROOT
ATOM      1  O   UNL     1       4.095   2.213  18.814  0.00  0.00    +0.000 OA
ATOM      2  C   UNL     1       3.574   3.091  19.515  0.00  0.00    +0.000 C 
ATOM      3  N   UNL     1       3.185   4.336  19.002  0.00  0.00    +0.000 N 
ATOM      4  N   UNL     1       2.560   5.312  19.825  0.00  0.00    +0.000 NA
ATOM      5  C   UNL     1       2.497   6.446  19.173  0.00  0.00    +0.000 C 
ATOM      6  S   UNL     1       3.166   6.513  17.572  0.00  0.00    +0.000 S 
ATOM      7  C   UNL     1       3.912   4.878  17.809  0.00  0.00    +0.000 C 
ATOM      8  C   UNL     1       3.642   4.293  16.411  0.00  0.00    +0.000 C 
ATOM      9  C   UNL     1       4.773   3.420  15.919  0.00  0.00    +0.000 C 
ATOM     10  O   UNL     1       6.038   4.087  15.991  0.00  0.00    +0.000 OA
ATOM     11  C   UNL     1       6.342   4.578  17.226  0.00  0.00    +0.000 A 
ATOM     12  C   UNL     1       7.693   4.671  17.537  0.00  0.00    +0.000 A 
ATOM     13  C   UNL     1       8.112   5.077  18.802  0.00  0.00    +0.000 A 
ATOM     14  C   UNL     1       7.177   5.488  19.739  0.00  0.00    +0.000 A 
ATOM     15  C   UNL     1       5.829   5.482  19.403  0.00  0.00    +0.000 A 
ATOM     16  C   UNL     1       5.394   5.008  18.138  0.00  0.00    +0.000 A 
ENDROOT
BRANCH   5  17
ATOM     17  C   UNL     1       2.098   7.791  19.593  0.00  0.00    +0.000 A 
ATOM     18  C   UNL     1       1.829   8.700  18.559  0.00  0.00    +0.000 A 
ATOM     19  C   UNL     1       0.886   9.705  18.768  0.00  0.00    +0.000 A 
ATOM     20  F   UNL     1       0.558  10.511  17.753  0.00  0.00    +0.000 F 
ATOM     21  C   UNL     1       0.202   9.823  19.977  0.00  0.00    +0.000 A 
ATOM     22  C   UNL     1       0.475   8.932  21.013  0.00  0.00    +0.000 A 
ATOM     23  C   UNL     1       1.432   7.936  20.824  0.00  0.00    +0.000 A 
ATOM     24  F   UNL     1       1.573   7.007  21.782  0.00  0.00    +0.000 F 
ENDBRANCH   5  17
BRANCH   2  25
ATOM     25  C   UNL     1       3.430   2.841  21.031  0.00  0.00    +0.000 C 
BRANCH  25  26
ATOM     26  O   UNL     1       2.061   2.872  21.458  0.00  0.00    +0.000 OA
ATOM     27  H   UNL     1       1.598   3.502  20.870  0.00  0.00    +0.000 HD
ENDBRANCH  25  26
ENDBRANCH   2  25
TORSDOF 3
ENDMDL
MODEL 8
REMARK VINA RESULT:      -6.9      3.017      5.290
REMARK  Name = 
REMARK  3 active torsions:
REMARK  status: ('A' for Active; 'I' for Inactive)
REMARK    1  A    between atoms: C_2  and  C_3
REMARK    2  A    between atoms: C_3  and  O_4
REMARK    3  A    between atoms: C_7  and  C_8
REMARK                            x       y       z     vdW  Elec       q    Type
REMARK                         _______ _______ _______ _____ _____    ______ ____
ROOT
ATOM      1  O   UNL     1       1.546  10.511  21.972  0.00  0.00    +0.000 OA
ATOM      2  C   UNL     1       0.611   9.953  21.384  0.00  0.00    +0.000 C 
ATOM      3  N   UNL     1       0.007  10.493  20.240  0.00  0.00    +0.000 N 
ATOM      4  N   UNL     1      -1.045   9.812  19.569  0.00  0.00    +0.000 NA
ATOM      5  C   UNL     1      -1.574  10.614  18.678  0.00  0.00    +0.000 C 
ATOM      6  S   UNL     1      -0.939  12.224  18.539  0.00  0.00    +0.000 S 
ATOM      7  C   UNL     1       0.027  11.980  20.053  0.00  0.00    +0.000 C 
ATOM      8  C   UNL     1       1.325  12.684  19.619  0.00  0.00    +0.000 C 
ATOM      9  C   UNL     1       1.978  13.446  20.749  0.00  0.00    +0.000 C 
ATOM     10  O   UNL     1       1.064  14.343  21.390  0.00  0.00    +0.000 OA
ATOM     11  C   UNL     1      -0.079  13.752  21.837  0.00  0.00    +0.000 A 
ATOM     12  C   UNL     1      -0.690  14.343  22.936  0.00  0.00    +0.000 A 
ATOM     13  C   UNL     1      -1.814  13.770  23.527  0.00  0.00    +0.000 A 
ATOM     14  C   UNL     1      -2.395  12.648  22.959  0.00  0.00    +0.000 A 
ATOM     15  C   UNL     1      -1.841  12.104  21.807  0.00  0.00    +0.000 A 
ATOM     16  C   UNL     1      -0.659  12.646  21.239  0.00  0.00    +0.000 A 
ENDROOT
BRANCH   5  17
ATOM     17  C   UNL     1      -2.761  10.482  17.831  0.00  0.00    +0.000 A 
ATOM     18  C   UNL     1      -3.799  11.392  18.084  0.00  0.00    +0.000 A 
ATOM     19  C   UNL     1      -4.621  11.791  17.033  0.00  0.00    +0.000 A 
ATOM     20  F   UNL     1      -5.547  12.731  17.251  0.00  0.00    +0.000 F 
ATOM     21  C   UNL     1      -4.435  11.310  15.737  0.00  0.00    +0.000 A 
ATOM     22  C   UNL     1      -3.417  10.394  15.482  0.00  0.00    +0.000 A 
ATOM     23  C   UNL     1      -2.600   9.971  16.529  0.00  0.00    +0.000 A 
ATOM     24  F   UNL     1      -1.541   9.201  16.233  0.00  0.00    +0.000 F 
ENDBRANCH   5  17
BRANCH   2  25
ATOM     25  C   UNL     1       0.024   8.658  21.986  0.00  0.00    +0.000 C 
BRANCH  25  26
ATOM     26  O   UNL     1      -0.826   8.921  23.112  0.00  0.00    +0.000 OA
ATOM     27  H   UNL     1      -0.470   9.718  23.553  0.00  0.00    +0.000 HD
ENDBRANCH  25  26
ENDBRANCH   2  25
TORSDOF 3
ENDMDL
MODEL 9
REMARK VINA RESULT:      -6.8      3.429      6.213
REMARK  Name = 
REMARK  3 active torsions:
REMARK  status: ('A' for Active; 'I' for Inactive)
REMARK    1  A    between atoms: C_2  and  C_3
REMARK    2  A    between atoms: C_3  and  O_4
REMARK    3  A    between atoms: C_7  and  C_8
REMARK                            x       y       z     vdW  Elec       q    Type
REMARK                         _______ _______ _______ _____ _____    ______ ____
ROOT
ATOM      1  O   UNL     1      -1.584   9.886  18.131  0.00  0.00    +0.000 OA
ATOM      2  C   UNL     1      -1.686  11.098  18.361  0.00  0.00    +0.000 C 
ATOM      3  N   UNL     1      -0.571  11.926  18.559  0.00  0.00    +0.000 N 
ATOM      4  N   UNL     1      -0.719  13.320  18.790  0.00  0.00    +0.000 NA
ATOM      5  C   UNL     1       0.435  13.819  19.155  0.00  0.00    +0.000 C 
ATOM      6  S   UNL     1       1.791  12.742  19.292  0.00  0.00    +0.000 S 
ATOM      7  C   UNL     1       0.685  11.318  19.103  0.00  0.00    +0.000 C 
ATOM      8  C   UNL     1       1.576  10.449  18.197  0.00  0.00    +0.000 C 
ATOM      9  C   UNL     1       1.469   8.976  18.518  0.00  0.00    +0.000 C 
ATOM     10  O   UNL     1       1.690   8.712  19.908  0.00  0.00    +0.000 OA
ATOM     11  C   UNL     1       0.886   9.423  20.747  0.00  0.00    +0.000 A 
ATOM     12  C   UNL     1       0.596   8.833  21.971  0.00  0.00    +0.000 A 
ATOM     13  C   UNL     1      -0.285   9.434  22.868  0.00  0.00    +0.000 A 
ATOM     14  C   UNL     1      -0.809  10.685  22.585  0.00  0.00    +0.000 A 
ATOM     15  C   UNL     1      -0.453  11.320  21.402  0.00  0.00    +0.000 A 
ATOM     16  C   UNL     1       0.393  10.683  20.457  0.00  0.00    +0.000 A 
ENDROOT
BRANCH   5  17
ATOM     17  C   UNL     1       0.812  15.144  19.651  0.00  0.00    +0.000 A 
ATOM     18  C   UNL     1       1.939  15.188  20.486  0.00  0.00    +0.000 A 
ATOM     19  C   UNL     1       2.737  16.330  20.488  0.00  0.00    +0.000 A 
ATOM     20  F   UNL     1       3.864  16.336  21.208  0.00  0.00    +0.000 F 
ATOM     21  C   UNL     1       2.444  17.426  19.677  0.00  0.00    +0.000 A 
ATOM     22  C   UNL     1       1.318  17.395  18.857  0.00  0.00    +0.000 A 
ATOM     23  C   UNL     1       0.499  16.267  18.862  0.00  0.00    +0.000 A 
ATOM     24  F   UNL     1      -0.495  16.204  17.963  0.00  0.00    +0.000 F 
ENDBRANCH   5  17
BRANCH   2  25
ATOM     25  C   UNL     1      -3.095  11.705  18.529  0.00  0.00    +0.000 C 
BRANCH  25  26
ATOM     26  O   UNL     1      -3.719  11.983  17.267  0.00  0.00    +0.000 OA
ATOM     27  H   UNL     1      -4.626  11.618  17.317  0.00  0.00    +0.000 HD
ENDBRANCH  25  26
ENDBRANCH   2  25
TORSDOF 3
ENDMDL
