MODEL 1
REMARK VINA RESULT:      -7.2      0.000      0.000
REMARK  Name = 
REMARK  8 active torsions:
REMARK  status: ('A' for Active; 'I' for Inactive)
REMARK    1  A    between atoms: C_1  and  C_2
REMARK    2  A    between atoms: C_2  and  C_3
REMARK    3  A    between atoms: C_3  and  N_4
REMARK    4  A    between atoms: C_8  and  C_10
REMARK    5  A    between atoms: C_12  and  C_13
REMARK    6  A    between atoms: C_13  and  N_14
REMARK    7  A    between atoms: C_31  and  C_32
REMARK    8  A    between atoms: C_32  and  C_33
REMARK                            x       y       z     vdW  Elec       q    Type
REMARK                         _______ _______ _______ _____ _____    ______ ____
ROOT
ATOM      1  C   UNL     1       0.765  10.009  19.139  0.00  0.00    +0.000 A 
ATOM      2  C   UNL     1       1.312   9.188  18.144  0.00  0.00    +0.000 A 
ATOM      3  C   UNL     1       2.053   8.041  18.465  0.00  0.00    +0.000 A 
ATOM      4  C   UNL     1       2.135   7.666  19.813  0.00  0.00    +0.000 A 
ATOM      5  C   UNL     1       1.499   8.418  20.804  0.00  0.00    +0.000 A 
ATOM      6  C   UNL     1       0.824   9.588  20.466  0.00  0.00    +0.000 A 
ATOM      7  F   UNL     1       0.250  10.288  21.455  0.00  0.00    +0.000 F 
ENDROOT
BRANCH   1  12
ATOM      8  N   UNL     1       2.150  15.080  18.983  0.00  0.00    +0.000 NA
ATOM      9  C   UNL     1       0.681  14.900  19.059  0.00  0.00    +0.000 C 
ATOM     10  C   UNL     1       0.144  13.686  18.280  0.00  0.00    +0.000 C 
ATOM     11  N   UNL     1       0.856  12.454  18.628  0.00  0.00    +0.000 N 
ATOM     12  C   UNL     1       0.100  11.293  18.814  0.00  0.00    +0.000 C 
ATOM     13  O   UNL     1      -1.128  11.290  18.735  0.00  0.00    +0.000 OA
ATOM     14  C   UNL     1       2.325  12.579  18.633  0.00  0.00    +0.000 C 
ATOM     15  C   UNL     1       2.831  13.826  19.396  0.00  0.00    +0.000 C 
BRANCH  15  16
ATOM     16  C   UNL     1       2.712  13.541  20.916  0.00  0.00    +0.000 C 
ATOM     17  C   UNL     1       3.078  14.720  21.799  0.00  0.00    +0.000 C 
ENDBRANCH  15  16
BRANCH   8  18
ATOM     18  C   UNL     1       2.595  15.507  17.640  0.00  0.00    +0.000 C 
BRANCH  18  20
ATOM     19  C   UNL     1       1.708  17.787  16.947  0.00  0.00    +0.000 C 
ATOM     20  C   UNL     1       2.881  17.010  17.525  0.00  0.00    +0.000 C 
ENDBRANCH  18  20
ENDBRANCH   8  18
ENDBRANCH   1  12
BRANCH   3  21
ATOM     21  C   UNL     1       2.697   7.234  17.353  0.00  0.00    +0.000 C 
BRANCH  21  22
ATOM     22  N   UNL     1       3.440   6.045  17.787  0.00  0.00    +0.000 N 
ATOM     23  C   UNL     1       2.706   4.918  18.144  0.00  0.00    +0.000 A 
ATOM     24  O   UNL     1       1.490   4.821  18.016  0.00  0.00    +0.000 OA
ATOM     25  N   UNL     1       3.400   3.871  18.691  0.00  0.00    +0.000 N 
ATOM     26  C   UNL     1       4.732   3.840  18.988  0.00  0.00    +0.000 A 
ATOM     27  O   UNL     1       5.233   2.930  19.639  0.00  0.00    +0.000 OA
ATOM     28  C   UNL     1       5.525   4.972  18.493  0.00  0.00    +0.000 A 
ATOM     29  C   UNL     1       6.922   4.937  18.620  0.00  0.00    +0.000 A 
ATOM     30  C   UNL     1       7.684   6.003  18.156  0.00  0.00    +0.000 A 
ATOM     31  C   UNL     1       7.049   7.110  17.606  0.00  0.00    +0.000 A 
ATOM     32  C   UNL     1       5.653   7.150  17.512  0.00  0.00    +0.000 A 
ATOM     33  C   UNL     1       4.864   6.068  17.924  0.00  0.00    +0.000 A 
ATOM     34  H   UNL     1       2.848   3.098  19.025  0.00  0.00    +0.000 HD
ENDBRANCH  21  22
ENDBRANCH   3  21
TORSDOF 6
ENDMDL
MODEL 2
REMARK VINA RESULT:      -6.9      1.779      2.955
REMARK  Name = 
REMARK  8 active torsions:
REMARK  status: ('A' for Active; 'I' for Inactive)
REMARK    1  A    between atoms: C_1  and  C_2
REMARK    2  A    between atoms: C_2  and  C_3
REMARK    3  A    between atoms: C_3  and  N_4
REMARK    4  A    between atoms: C_8  and  C_10
REMARK    5  A    between atoms: C_12  and  C_13
REMARK    6  A    between atoms: C_13  and  N_14
REMARK    7  A    between atoms: C_31  and  C_32
REMARK    8  A    between atoms: C_32  and  C_33
REMARK                            x       y       z     vdW  Elec       q    Type
REMARK                         _______ _______ _______ _____ _____    ______ ____
ROOT
ATOM      1  C   UNL     1       0.743   9.377  19.021  0.00  0.00    +0.000 A 
ATOM      2  C   UNL     1       1.561   8.509  18.288  0.00  0.00    +0.000 A 
ATOM      3  C   UNL     1       2.330   7.518  18.918  0.00  0.00    +0.000 A 
ATOM      4  C   UNL     1       2.169   7.339  20.298  0.00  0.00    +0.000 A 
ATOM      5  C   UNL     1       1.271   8.129  21.022  0.00  0.00    +0.000 A 
ATOM      6  C   UNL     1       0.569   9.147  20.385  0.00  0.00    +0.000 A 
ATOM      7  F   UNL     1      -0.264   9.893  21.126  0.00  0.00    +0.000 F 
ENDROOT
BRANCH   1  12
ATOM      8  N   UNL     1       0.616  14.603  19.607  0.00  0.00    +0.000 NA
ATOM      9  C   UNL     1      -0.567  14.089  18.879  0.00  0.00    +0.000 C 
ATOM     10  C   UNL     1      -0.277  12.904  17.940  0.00  0.00    +0.000 C 
ATOM     11  N   UNL     1       0.442  11.828  18.626  0.00  0.00    +0.000 N 
ATOM     12  C   UNL     1       0.037  10.512  18.381  0.00  0.00    +0.000 C 
ATOM     13  O   UNL     1      -0.917  10.245  17.651  0.00  0.00    +0.000 OA
ATOM     14  C   UNL     1       1.598  12.276  19.423  0.00  0.00    +0.000 C 
ATOM     15  C   UNL     1       1.282  13.489  20.331  0.00  0.00    +0.000 C 
BRANCH  15  16
ATOM     16  C   UNL     1       0.466  12.978  21.547  0.00  0.00    +0.000 C 
ATOM     17  C   UNL     1      -0.137  14.083  22.396  0.00  0.00    +0.000 C 
ENDBRANCH  15  16
BRANCH   8  18
ATOM     18  C   UNL     1       1.568  15.298  18.716  0.00  0.00    +0.000 C 
BRANCH  18  20
ATOM     19  C   UNL     1       4.098  15.195  18.482  0.00  0.00    +0.000 C 
ATOM     20  C   UNL     1       2.926  15.599  19.364  0.00  0.00    +0.000 C 
ENDBRANCH  18  20
ENDBRANCH   8  18
ENDBRANCH   1  12
BRANCH   3  21
ATOM     21  C   UNL     1       3.266   6.659  18.087  0.00  0.00    +0.000 C 
BRANCH  21  22
ATOM     22  N   UNL     1       3.648   5.377  18.692  0.00  0.00    +0.000 N 
ATOM     23  C   UNL     1       4.954   5.244  19.151  0.00  0.00    +0.000 A 
ATOM     24  O   UNL     1       5.770   6.159  19.182  0.00  0.00    +0.000 OA
ATOM     25  N   UNL     1       5.340   3.997  19.572  0.00  0.00    +0.000 N 
ATOM     26  C   UNL     1       4.598   2.852  19.524  0.00  0.00    +0.000 A 
ATOM     27  O   UNL     1       5.084   1.751  19.755  0.00  0.00    +0.000 OA
ATOM     28  C   UNL     1       3.185   3.020  19.164  0.00  0.00    +0.000 A 
ATOM     29  C   UNL     1       2.322   1.916  19.246  0.00  0.00    +0.000 A 
ATOM     30  C   UNL     1       0.982   2.062  18.908  0.00  0.00    +0.000 A 
ATOM     31  C   UNL     1       0.520   3.291  18.453  0.00  0.00    +0.000 A 
ATOM     32  C   UNL     1       1.395   4.378  18.344  0.00  0.00    +0.000 A 
ATOM     33  C   UNL     1       2.738   4.274  18.728  0.00  0.00    +0.000 A 
ATOM     34  H   UNL     1       6.311   3.893  19.820  0.00  0.00    +0.000 HD
ENDBRANCH  21  22
ENDBRANCH   3  21
TORSDOF 6
ENDMDL
MODEL 3
REMARK VINA RESULT:      -6.8      5.492     10.463
REMARK  Name = 
REMARK  8 active torsions:
REMARK  status: ('A' for Active; 'I' for Inactive)
REMARK    1  A    between atoms: C_1  and  C_2
REMARK    2  A    between atoms: C_2  and  C_3
REMARK    3  A    between atoms: C_3  and  N_4
REMARK    4  A    between atoms: C_8  and  C_10
REMARK    5  A    between atoms: C_12  and  C_13
REMARK    6  A    between atoms: C_13  and  N_14
REMARK    7  A    between atoms: C_31  and  C_32
REMARK    8  A    between atoms: C_32  and  C_33
REMARK                            x       y       z     vdW  Elec       q    Type
REMARK                         _______ _______ _______ _____ _____    ______ ____
ROOT
ATOM      1  C   UNL     1      -1.690  13.908  22.149  0.00  0.00    +0.000 A 
ATOM      2  C   UNL     1      -3.014  14.085  21.727  0.00  0.00    +0.000 A 
ATOM      3  C   UNL     1      -3.618  15.351  21.717  0.00  0.00    +0.000 A 
ATOM      4  C   UNL     1      -2.822  16.462  22.029  0.00  0.00    +0.000 A 
ATOM      5  C   UNL     1      -1.470  16.307  22.344  0.00  0.00    +0.000 A 
ATOM      6  C   UNL     1      -0.911  15.034  22.409  0.00  0.00    +0.000 A 
ATOM      7  F   UNL     1       0.385  14.934  22.738  0.00  0.00    +0.000 F 
ENDROOT
BRANCH   1  12
ATOM      8  N   UNL     1      -0.106  10.081  18.908  0.00  0.00    +0.000 NA
ATOM      9  C   UNL     1      -0.335   9.591  20.288  0.00  0.00    +0.000 C 
ATOM     10  C   UNL     1       0.056  10.587  21.394  0.00  0.00    +0.000 C 
ATOM     11  N   UNL     1      -0.550  11.904  21.182  0.00  0.00    +0.000 N 
ATOM     12  C   UNL     1      -1.090  12.561  22.292  0.00  0.00    +0.000 C 
ATOM     13  O   UNL     1      -1.105  12.051  23.412  0.00  0.00    +0.000 OA
ATOM     14  C   UNL     1      -0.413  12.426  19.810  0.00  0.00    +0.000 C 
ATOM     15  C   UNL     1      -0.783  11.390  18.722  0.00  0.00    +0.000 C 
BRANCH  15  16
ATOM     16  C   UNL     1      -2.329  11.275  18.673  0.00  0.00    +0.000 C 
ATOM     17  C   UNL     1      -2.840  10.196  17.735  0.00  0.00    +0.000 C 
ENDBRANCH  15  16
BRANCH   8  18
ATOM     18  C   UNL     1       1.331  10.176  18.576  0.00  0.00    +0.000 C 
BRANCH  18  20
ATOM     19  C   UNL     1       2.438   7.890  18.454  0.00  0.00    +0.000 C 
ATOM     20  C   UNL     1       1.839   9.046  17.669  0.00  0.00    +0.000 C 
ENDBRANCH  18  20
ENDBRANCH   8  18
ENDBRANCH   1  12
BRANCH   3  21
ATOM     21  C   UNL     1      -5.082  15.477  21.335  0.00  0.00    +0.000 C 
BRANCH  21  22
ATOM     22  N   UNL     1      -5.962  14.426  21.859  0.00  0.00    +0.000 N 
ATOM     23  C   UNL     1      -6.365  14.523  23.187  0.00  0.00    +0.000 A 
ATOM     24  O   UNL     1      -6.121  15.482  23.912  0.00  0.00    +0.000 OA
ATOM     25  N   UNL     1      -7.059  13.461  23.706  0.00  0.00    +0.000 N 
ATOM     26  C   UNL     1      -7.339  12.282  23.076  0.00  0.00    +0.000 A 
ATOM     27  O   UNL     1      -7.806  11.320  23.674  0.00  0.00    +0.000 OA
ATOM     28  C   UNL     1      -7.030  12.233  21.642  0.00  0.00    +0.000 A 
ATOM     29  C   UNL     1      -7.432  11.117  20.892  0.00  0.00    +0.000 A 
ATOM     30  C   UNL     1      -7.146  11.059  19.534  0.00  0.00    +0.000 A 
ATOM     31  C   UNL     1      -6.428  12.090  18.940  0.00  0.00    +0.000 A 
ATOM     32  C   UNL     1      -6.003  13.185  19.703  0.00  0.00    +0.000 A 
ATOM     33  C   UNL     1      -6.323  13.294  21.062  0.00  0.00    +0.000 A 
ATOM     34  H   UNL     1      -7.268  13.505  24.690  0.00  0.00    +0.000 HD
ENDBRANCH  21  22
ENDBRANCH   3  21
TORSDOF 6
ENDMDL
MODEL 4
REMARK VINA RESULT:      -6.8      0.954      1.073
REMARK  Name = 
REMARK  8 active torsions:
REMARK  status: ('A' for Active; 'I' for Inactive)
REMARK    1  A    between atoms: C_1  and  C_2
REMARK    2  A    between atoms: C_2  and  C_3
REMARK    3  A    between atoms: C_3  and  N_4
REMARK    4  A    between atoms: C_8  and  C_10
REMARK    5  A    between atoms: C_12  and  C_13
REMARK    6  A    between atoms: C_13  and  N_14
REMARK    7  A    between atoms: C_31  and  C_32
REMARK    8  A    between atoms: C_32  and  C_33
REMARK                            x       y       z     vdW  Elec       q    Type
REMARK                         _______ _______ _______ _____ _____    ______ ____
ROOT
ATOM      1  C   UNL     1       0.578   9.841  18.807  0.00  0.00    +0.000 A 
ATOM      2  C   UNL     1       1.295   9.075  17.879  0.00  0.00    +0.000 A 
ATOM      3  C   UNL     1       2.162   8.051  18.287  0.00  0.00    +0.000 A 
ATOM      4  C   UNL     1       2.205   7.729  19.651  0.00  0.00    +0.000 A 
ATOM      5  C   UNL     1       1.410   8.415  20.572  0.00  0.00    +0.000 A 
ATOM      6  C   UNL     1       0.606   9.470  20.150  0.00  0.00    +0.000 A 
ATOM      7  F   UNL     1      -0.122  10.113  21.075  0.00  0.00    +0.000 F 
ENDROOT
BRANCH   1  12
ATOM      8  N   UNL     1       0.643  15.023  19.704  0.00  0.00    +0.000 NA
ATOM      9  C   UNL     1      -0.674  14.553  19.211  0.00  0.00    +0.000 C 
ATOM     10  C   UNL     1      -0.601  13.426  18.166  0.00  0.00    +0.000 C 
ATOM     11  N   UNL     1       0.232  12.310  18.624  0.00  0.00    +0.000 N 
ATOM     12  C   UNL     1      -0.232  11.011  18.394  0.00  0.00    +0.000 C 
ATOM     13  O   UNL     1      -1.321  10.789  17.865  0.00  0.00    +0.000 OA
ATOM     14  C   UNL     1       1.535  12.710  19.186  0.00  0.00    +0.000 C 
ATOM     15  C   UNL     1       1.430  13.868  20.208  0.00  0.00    +0.000 C 
BRANCH  15  16
ATOM     16  C   UNL     1       0.879  13.288  21.537  0.00  0.00    +0.000 C 
ATOM     17  C   UNL     1       0.099  14.286  22.372  0.00  0.00    +0.000 C 
ENDBRANCH  15  16
BRANCH   8  18
ATOM     18  C   UNL     1       1.396  15.769  18.675  0.00  0.00    +0.000 C 
BRANCH  18  20
ATOM     19  C   UNL     1       3.703  16.441  17.843  0.00  0.00    +0.000 C 
ATOM     20  C   UNL     1       2.862  16.036  19.044  0.00  0.00    +0.000 C 
ENDBRANCH  18  20
ENDBRANCH   8  18
ENDBRANCH   1  12
BRANCH   3  21
ATOM     21  C   UNL     1       2.982   7.308  17.247  0.00  0.00    +0.000 C 
BRANCH  21  22
ATOM     22  N   UNL     1       3.656   6.095  17.725  0.00  0.00    +0.000 N 
ATOM     23  C   UNL     1       2.863   4.992  18.025  0.00  0.00    +0.000 A 
ATOM     24  O   UNL     1       1.657   4.933  17.813  0.00  0.00    +0.000 OA
ATOM     25  N   UNL     1       3.486   3.921  18.613  0.00  0.00    +0.000 N 
ATOM     26  C   UNL     1       4.792   3.847  19.001  0.00  0.00    +0.000 A 
ATOM     27  O   UNL     1       5.219   2.921  19.680  0.00  0.00    +0.000 OA
ATOM     28  C   UNL     1       5.652   4.956  18.569  0.00  0.00    +0.000 A 
ATOM     29  C   UNL     1       7.036   4.877  18.791  0.00  0.00    +0.000 A 
ATOM     30  C   UNL     1       7.860   5.919  18.386  0.00  0.00    +0.000 A 
ATOM     31  C   UNL     1       7.300   7.048  17.800  0.00  0.00    +0.000 A 
ATOM     32  C   UNL     1       5.915   7.132  17.610  0.00  0.00    +0.000 A 
ATOM     33  C   UNL     1       5.067   6.074  17.961  0.00  0.00    +0.000 A 
ATOM     34  H   UNL     1       2.888   3.164  18.904  0.00  0.00    +0.000 HD
ENDBRANCH  21  22
ENDBRANCH   3  21
TORSDOF 6
ENDMDL
MODEL 5
REMARK VINA RESULT:      -6.6      5.587     10.148
REMARK  Name = 
REMARK  8 active torsions:
REMARK  status: ('A' for Active; 'I' for Inactive)
REMARK    1  A    between atoms: C_1  and  C_2
REMARK    2  A    between atoms: C_2  and  C_3
REMARK    3  A    between atoms: C_3  and  N_4
REMARK    4  A    between atoms: C_8  and  C_10
REMARK    5  A    between atoms: C_12  and  C_13
REMARK    6  A    between atoms: C_13  and  N_14
REMARK    7  A    between atoms: C_31  and  C_32
REMARK    8  A    between atoms: C_32  and  C_33
REMARK                            x       y       z     vdW  Elec       q    Type
REMARK                         _______ _______ _______ _____ _____    ______ ____
ROOT
ATOM      1  C   UNL     1      -2.652  14.561  22.035  0.00  0.00    +0.000 A 
ATOM      2  C   UNL     1      -3.989  14.605  21.620  0.00  0.00    +0.000 A 
ATOM      3  C   UNL     1      -5.045  14.458  22.531  0.00  0.00    +0.000 A 
ATOM      4  C   UNL     1      -4.732  14.384  23.896  0.00  0.00    +0.000 A 
ATOM      5  C   UNL     1      -3.405  14.451  24.329  0.00  0.00    +0.000 A 
ATOM      6  C   UNL     1      -2.372  14.532  23.400  0.00  0.00    +0.000 A 
ATOM      7  F   UNL     1      -1.114  14.570  23.864  0.00  0.00    +0.000 F 
ENDROOT
BRANCH   1  12
ATOM      8  N   UNL     1       0.343  10.977  19.618  0.00  0.00    +0.000 NA
ATOM      9  C   UNL     1       0.961  12.323  19.612  0.00  0.00    +0.000 C 
ATOM     10  C   UNL     1      -0.036  13.485  19.457  0.00  0.00    +0.000 C 
ATOM     11  N   UNL     1      -1.130  13.399  20.428  0.00  0.00    +0.000 N 
ATOM     12  C   UNL     1      -1.532  14.577  21.065  0.00  0.00    +0.000 C 
ATOM     13  O   UNL     1      -0.972  15.654  20.864  0.00  0.00    +0.000 OA
ATOM     14  C   UNL     1      -1.752  12.067  20.531  0.00  0.00    +0.000 C 
ATOM     15  C   UNL     1      -0.722  10.918  20.653  0.00  0.00    +0.000 C 
BRANCH  15  16
ATOM     16  C   UNL     1      -0.165  10.924  22.101  0.00  0.00    +0.000 C 
ATOM     17  C   UNL     1      -1.237  10.927  23.176  0.00  0.00    +0.000 C 
ENDBRANCH  15  16
BRANCH   8  18
ATOM     18  C   UNL     1      -0.186  10.594  18.292  0.00  0.00    +0.000 C 
BRANCH  18  20
ATOM     19  C   UNL     1       1.846   9.067  18.231  0.00  0.00    +0.000 C 
ATOM     20  C   UNL     1       0.437   9.316  17.715  0.00  0.00    +0.000 C 
ENDBRANCH  18  20
ENDBRANCH   8  18
ENDBRANCH   1  12
BRANCH   3  21
ATOM     21  C   UNL     1      -6.474  14.426  22.019  0.00  0.00    +0.000 C 
BRANCH  21  22
ATOM     22  N   UNL     1      -6.807  13.287  21.155  0.00  0.00    +0.000 N 
ATOM     23  C   UNL     1      -7.023  12.055  21.764  0.00  0.00    +0.000 A 
ATOM     24  O   UNL     1      -7.058  11.885  22.978  0.00  0.00    +0.000 OA
ATOM     25  N   UNL     1      -7.182  10.972  20.938  0.00  0.00    +0.000 N 
ATOM     26  C   UNL     1      -7.083  10.962  19.576  0.00  0.00    +0.000 A 
ATOM     27  O   UNL     1      -7.062   9.919  18.933  0.00  0.00    +0.000 OA
ATOM     28  C   UNL     1      -6.987  12.277  18.931  0.00  0.00    +0.000 A 
ATOM     29  C   UNL     1      -7.040  12.359  17.532  0.00  0.00    +0.000 A 
ATOM     30  C   UNL     1      -6.950  13.598  16.909  0.00  0.00    +0.000 A 
ATOM     31  C   UNL     1      -6.768  14.740  17.679  0.00  0.00    +0.000 A 
ATOM     32  C   UNL     1      -6.684  14.646  19.074  0.00  0.00    +0.000 A 
ATOM     33  C   UNL     1      -6.824  13.417  19.730  0.00  0.00    +0.000 A 
ATOM     34  H   UNL     1      -7.250  10.075  21.390  0.00  0.00    +0.000 HD
ENDBRANCH  21  22
ENDBRANCH   3  21
TORSDOF 6
ENDMDL
MODEL 6
REMARK VINA RESULT:      -6.5      2.770      4.536
REMARK  Name = 
REMARK  8 active torsions:
REMARK  status: ('A' for Active; 'I' for Inactive)
REMARK    1  A    between atoms: C_1  and  C_2
REMARK    2  A    between atoms: C_2  and  C_3
REMARK    3  A    between atoms: C_3  and  N_4
REMARK    4  A    between atoms: C_8  and  C_10
REMARK    5  A    between atoms: C_12  and  C_13
REMARK    6  A    between atoms: C_13  and  N_14
REMARK    7  A    between atoms: C_31  and  C_32
REMARK    8  A    between atoms: C_32  and  C_33
REMARK                            x       y       z     vdW  Elec       q    Type
REMARK                         _______ _______ _______ _____ _____    ______ ____
ROOT
ATOM      1  C   UNL     1       0.778   9.719  19.525  0.00  0.00    +0.000 A 
ATOM      2  C   UNL     1       1.346   9.022  18.451  0.00  0.00    +0.000 A 
ATOM      3  C   UNL     1       2.121   7.870  18.653  0.00  0.00    +0.000 A 
ATOM      4  C   UNL     1       2.217   7.360  19.955  0.00  0.00    +0.000 A 
ATOM      5  C   UNL     1       1.562   7.988  21.018  0.00  0.00    +0.000 A 
ATOM      6  C   UNL     1       0.852   9.165  20.802  0.00  0.00    +0.000 A 
ATOM      7  F   UNL     1       0.259   9.743  21.857  0.00  0.00    +0.000 F 
ENDROOT
BRANCH   1  12
ATOM      8  N   UNL     1      -3.862  11.278  17.599  0.00  0.00    +0.000 NA
ATOM      9  C   UNL     1      -2.874  12.382  17.652  0.00  0.00    +0.000 C 
ATOM     10  C   UNL     1      -1.932  12.340  18.868  0.00  0.00    +0.000 C 
ATOM     11  N   UNL     1      -1.287  11.033  19.015  0.00  0.00    +0.000 N 
ATOM     12  C   UNL     1       0.075  11.010  19.333  0.00  0.00    +0.000 C 
ATOM     13  O   UNL     1       0.739  12.038  19.449  0.00  0.00    +0.000 OA
ATOM     14  C   UNL     1      -2.204   9.884  18.911  0.00  0.00    +0.000 C 
ATOM     15  C   UNL     1      -3.159   9.972  17.696  0.00  0.00    +0.000 C 
BRANCH  15  16
ATOM     16  C   UNL     1      -2.350   9.619  16.421  0.00  0.00    +0.000 C 
ATOM     17  C   UNL     1      -3.095   9.876  15.124  0.00  0.00    +0.000 C 
ENDBRANCH  15  16
BRANCH   8  18
ATOM     18  C   UNL     1      -4.899  11.400  18.644  0.00  0.00    +0.000 C 
BRANCH  18  20
ATOM     19  C   UNL     1      -7.007  10.240  19.466  0.00  0.00    +0.000 C 
ATOM     20  C   UNL     1      -6.248  10.778  18.262  0.00  0.00    +0.000 C 
ENDBRANCH  18  20
ENDBRANCH   8  18
ENDBRANCH   1  12
BRANCH   3  21
ATOM     21  C   UNL     1       2.786   7.200  17.464  0.00  0.00    +0.000 C 
BRANCH  21  22
ATOM     22  N   UNL     1       3.502   5.954  17.762  0.00  0.00    +0.000 N 
ATOM     23  C   UNL     1       2.741   4.811  17.990  0.00  0.00    +0.000 A 
ATOM     24  O   UNL     1       1.523   4.756  17.852  0.00  0.00    +0.000 OA
ATOM     25  N   UNL     1       3.411   3.693  18.416  0.00  0.00    +0.000 N 
ATOM     26  C   UNL     1       4.741   3.599  18.708  0.00  0.00    +0.000 A 
ATOM     27  O   UNL     1       5.220   2.612  19.252  0.00  0.00    +0.000 OA
ATOM     28  C   UNL     1       5.560   4.762  18.343  0.00  0.00    +0.000 A 
ATOM     29  C   UNL     1       6.956   4.682  18.465  0.00  0.00    +0.000 A 
ATOM     30  C   UNL     1       7.742   5.775  18.124  0.00  0.00    +0.000 A 
ATOM     31  C   UNL     1       7.134   6.952  17.703  0.00  0.00    +0.000 A 
ATOM     32  C   UNL     1       5.739   7.033  17.614  0.00  0.00    +0.000 A 
ATOM     33  C   UNL     1       4.925   5.930  17.901  0.00  0.00    +0.000 A 
ATOM     34  H   UNL     1       2.840   2.900  18.661  0.00  0.00    +0.000 HD
ENDBRANCH  21  22
ENDBRANCH   3  21
TORSDOF 6
ENDMDL
MODEL 7
REMARK VINA RESULT:      -6.5      5.877     10.203
REMARK  Name = 
REMARK  8 active torsions:
REMARK  status: ('A' for Active; 'I' for Inactive)
REMARK    1  A    between atoms: C_1  and  C_2
REMARK    2  A    between atoms: C_2  and  C_3
REMARK    3  A    between atoms: C_3  and  N_4
REMARK    4  A    between atoms: C_8  and  C_10
REMARK    5  A    between atoms: C_12  and  C_13
REMARK    6  A    between atoms: C_13  and  N_14
REMARK    7  A    between atoms: C_31  and  C_32
REMARK    8  A    between atoms: C_32  and  C_33
REMARK                            x       y       z     vdW  Elec       q    Type
REMARK                         _______ _______ _______ _____ _____    ______ ____
ROOT
ATOM      1  C   UNL     1      -0.802  12.135  21.019  0.00  0.00    +0.000 A 
ATOM      2  C   UNL     1      -1.822  12.498  21.907  0.00  0.00    +0.000 A 
ATOM      3  C   UNL     1      -1.657  13.546  22.825  0.00  0.00    +0.000 A 
ATOM      4  C   UNL     1      -0.480  14.305  22.753  0.00  0.00    +0.000 A 
ATOM      5  C   UNL     1       0.497  14.019  21.796  0.00  0.00    +0.000 A 
ATOM      6  C   UNL     1       0.337  12.934  20.939  0.00  0.00    +0.000 A 
ATOM      7  F   UNL     1       1.313  12.686  20.053  0.00  0.00    +0.000 F 
ENDROOT
BRANCH   1  12
ATOM      8  N   UNL     1      -3.739  10.713  16.893  0.00  0.00    +0.000 NA
ATOM      9  C   UNL     1      -3.117   9.550  17.569  0.00  0.00    +0.000 C 
ATOM     10  C   UNL     1      -1.702   9.809  18.116  0.00  0.00    +0.000 C 
ATOM     11  N   UNL     1      -1.650  11.009  18.954  0.00  0.00    +0.000 N 
ATOM     12  C   UNL     1      -0.917  10.945  20.143  0.00  0.00    +0.000 C 
ATOM     13  O   UNL     1      -0.360   9.913  20.514  0.00  0.00    +0.000 OA
ATOM     14  C   UNL     1      -2.307  12.192  18.368  0.00  0.00    +0.000 C 
ATOM     15  C   UNL     1      -3.714  11.891  17.799  0.00  0.00    +0.000 C 
BRANCH  15  16
ATOM     16  C   UNL     1      -4.698  11.764  18.991  0.00  0.00    +0.000 C 
ATOM     17  C   UNL     1      -6.143  11.549  18.581  0.00  0.00    +0.000 C 
ENDBRANCH  15  16
BRANCH   8  18
ATOM     18  C   UNL     1      -3.093  11.025  15.602  0.00  0.00    +0.000 C 
BRANCH  18  20
ATOM     19  C   UNL     1      -3.789   9.942  13.409  0.00  0.00    +0.000 C 
ATOM     20  C   UNL     1      -2.945   9.816  14.668  0.00  0.00    +0.000 C 
ENDBRANCH  18  20
ENDBRANCH   8  18
ENDBRANCH   1  12
BRANCH   3  21
ATOM     21  C   UNL     1      -2.760  13.844  23.824  0.00  0.00    +0.000 C 
BRANCH  21  22
ATOM     22  N   UNL     1      -4.128  13.640  23.333  0.00  0.00    +0.000 N 
ATOM     23  C   UNL     1      -4.876  12.619  23.910  0.00  0.00    +0.000 A 
ATOM     24  O   UNL     1      -4.506  11.954  24.872  0.00  0.00    +0.000 OA
ATOM     25  N   UNL     1      -6.091  12.340  23.339  0.00  0.00    +0.000 N 
ATOM     26  C   UNL     1      -6.618  12.913  22.218  0.00  0.00    +0.000 A 
ATOM     27  O   UNL     1      -7.628  12.477  21.678  0.00  0.00    +0.000 OA
ATOM     28  C   UNL     1      -5.891  14.074  21.690  0.00  0.00    +0.000 A 
ATOM     29  C   UNL     1      -6.452  14.812  20.637  0.00  0.00    +0.000 A 
ATOM     30  C   UNL     1      -5.774  15.913  20.128  0.00  0.00    +0.000 A 
ATOM     31  C   UNL     1      -4.526  16.247  20.642  0.00  0.00    +0.000 A 
ATOM     32  C   UNL     1      -3.960  15.485  21.671  0.00  0.00    +0.000 A 
ATOM     33  C   UNL     1      -4.645  14.403  22.238  0.00  0.00    +0.000 A 
ATOM     34  H   UNL     1      -6.583  11.543  23.710  0.00  0.00    +0.000 HD
ENDBRANCH  21  22
ENDBRANCH   3  21
TORSDOF 6
ENDMDL
MODEL 8
REMARK VINA RESULT:      -6.5      1.472      2.635
REMARK  Name = 
REMARK  8 active torsions:
REMARK  status: ('A' for Active; 'I' for Inactive)
REMARK    1  A    between atoms: C_1  and  C_2
REMARK    2  A    between atoms: C_2  and  C_3
REMARK    3  A    between atoms: C_3  and  N_4
REMARK    4  A    between atoms: C_8  and  C_10
REMARK    5  A    between atoms: C_12  and  C_13
REMARK    6  A    between atoms: C_13  and  N_14
REMARK    7  A    between atoms: C_31  and  C_32
REMARK    8  A    between atoms: C_32  and  C_33
REMARK                            x       y       z     vdW  Elec       q    Type
REMARK                         _______ _______ _______ _____ _____    ______ ____
ROOT
ATOM      1  C   UNL     1       0.579  10.213  19.638  0.00  0.00    +0.000 A 
ATOM      2  C   UNL     1       0.979   9.238  18.716  0.00  0.00    +0.000 A 
ATOM      3  C   UNL     1       1.664   8.083  19.120  0.00  0.00    +0.000 A 
ATOM      4  C   UNL     1       1.837   7.868  20.495  0.00  0.00    +0.000 A 
ATOM      5  C   UNL     1       1.344   8.782  21.429  0.00  0.00    +0.000 A 
ATOM      6  C   UNL     1       0.724   9.952  20.999  0.00  0.00    +0.000 A 
ATOM      7  F   UNL     1       0.287  10.810  21.933  0.00  0.00    +0.000 F 
ENDROOT
BRANCH   1  12
ATOM      8  N   UNL     1       2.192  15.195  19.144  0.00  0.00    +0.000 NA
ATOM      9  C   UNL     1       0.716  15.084  19.200  0.00  0.00    +0.000 C 
ATOM     10  C   UNL     1       0.140  13.841  18.499  0.00  0.00    +0.000 C 
ATOM     11  N   UNL     1       0.790  12.608  18.952  0.00  0.00    +0.000 N 
ATOM     12  C   UNL     1      -0.022  11.498  19.205  0.00  0.00    +0.000 C 
ATOM     13  O   UNL     1      -1.246  11.543  19.099  0.00  0.00    +0.000 OA
ATOM     14  C   UNL     1       2.262  12.669  18.981  0.00  0.00    +0.000 C 
ATOM     15  C   UNL     1       2.808  13.947  19.662  0.00  0.00    +0.000 C 
BRANCH  15  16
ATOM     16  C   UNL     1       2.648  13.779  21.196  0.00  0.00    +0.000 C 
ATOM     17  C   UNL     1       3.225  14.924  22.008  0.00  0.00    +0.000 C 
ENDBRANCH  15  16
BRANCH   8  18
ATOM     18  C   UNL     1       2.682  15.501  17.784  0.00  0.00    +0.000 C 
BRANCH  18  20
ATOM     19  C   UNL     1       4.765  16.734  18.564  0.00  0.00    +0.000 C 
ATOM     20  C   UNL     1       3.518  16.786  17.695  0.00  0.00    +0.000 C 
ENDBRANCH  18  20
ENDBRANCH   8  18
ENDBRANCH   1  12
BRANCH   3  21
ATOM     21  C   UNL     1       2.152   7.099  18.073  0.00  0.00    +0.000 C 
BRANCH  21  22
ATOM     22  N   UNL     1       3.045   6.044  18.567  0.00  0.00    +0.000 N 
ATOM     23  C   UNL     1       4.394   6.134  18.242  0.00  0.00    +0.000 A 
ATOM     24  O   UNL     1       4.900   7.090  17.664  0.00  0.00    +0.000 OA
ATOM     25  N   UNL     1       5.188   5.067  18.578  0.00  0.00    +0.000 N 
ATOM     26  C   UNL     1       4.781   3.891  19.139  0.00  0.00    +0.000 A 
ATOM     27  O   UNL     1       5.528   2.925  19.240  0.00  0.00    +0.000 OA
ATOM     28  C   UNL     1       3.387   3.849  19.599  0.00  0.00    +0.000 A 
ATOM     29  C   UNL     1       2.939   2.736  20.326  0.00  0.00    +0.000 A 
ATOM     30  C   UNL     1       1.622   2.685  20.767  0.00  0.00    +0.000 A 
ATOM     31  C   UNL     1       0.752   3.720  20.448  0.00  0.00    +0.000 A 
ATOM     32  C   UNL     1       1.199   4.812  19.695  0.00  0.00    +0.000 A 
ATOM     33  C   UNL     1       2.534   4.915  19.283  0.00  0.00    +0.000 A 
ATOM     34  H   UNL     1       6.142   5.107  18.261  0.00  0.00    +0.000 HD
ENDBRANCH  21  22
ENDBRANCH   3  21
TORSDOF 6
ENDMDL
MODEL 9
REMARK VINA RESULT:      -6.5      2.905      4.982
REMARK  Name = 
REMARK  8 active torsions:
REMARK  status: ('A' for Active; 'I' for Inactive)
REMARK    1  A    between atoms: C_1  and  C_2
REMARK    2  A    between atoms: C_2  and  C_3
REMARK    3  A    between atoms: C_3  and  N_4
REMARK    4  A    between atoms: C_8  and  C_10
REMARK    5  A    between atoms: C_12  and  C_13
REMARK    6  A    between atoms: C_13  and  N_14
REMARK    7  A    between atoms: C_31  and  C_32
REMARK    8  A    between atoms: C_32  and  C_33
REMARK                            x       y       z     vdW  Elec       q    Type
REMARK                         _______ _______ _______ _____ _____    ______ ____
ROOT
ATOM      1  C   UNL     1       1.237   9.428  19.395  0.00  0.00    +0.000 A 
ATOM      2  C   UNL     1       1.904   8.528  18.555  0.00  0.00    +0.000 A 
ATOM      3  C   UNL     1       2.431   7.322  19.041  0.00  0.00    +0.000 A 
ATOM      4  C   UNL     1       2.171   6.981  20.376  0.00  0.00    +0.000 A 
ATOM      5  C   UNL     1       1.412   7.822  21.193  0.00  0.00    +0.000 A 
ATOM      6  C   UNL     1       0.954   9.042  20.704  0.00  0.00    +0.000 A 
ATOM      7  F   UNL     1       0.249   9.825  21.534  0.00  0.00    +0.000 F 
ENDROOT
BRANCH   1  12
ATOM      8  N   UNL     1      -3.182  11.513  17.450  0.00  0.00    +0.000 NA
ATOM      9  C   UNL     1      -1.989  12.336  17.144  0.00  0.00    +0.000 C 
ATOM     10  C   UNL     1      -0.931  12.371  18.261  0.00  0.00    +0.000 C 
ATOM     11  N   UNL     1      -0.557  11.024  18.701  0.00  0.00    +0.000 N 
ATOM     12  C   UNL     1       0.799  10.762  18.921  0.00  0.00    +0.000 C 
ATOM     13  O   UNL     1       1.671  11.605  18.717  0.00  0.00    +0.000 OA
ATOM     14  C   UNL     1      -1.698  10.129  18.965  0.00  0.00    +0.000 C 
ATOM     15  C   UNL     1      -2.759  10.142  17.838  0.00  0.00    +0.000 C 
BRANCH  15  16
ATOM     16  C   UNL     1      -2.207   9.315  16.648  0.00  0.00    +0.000 C 
ATOM     17  C   UNL     1      -2.825   9.669  15.307  0.00  0.00    +0.000 C 
ENDBRANCH  15  16
BRANCH   8  18
ATOM     18  C   UNL     1      -4.032  12.120  18.495  0.00  0.00    +0.000 C 
BRANCH  18  20
ATOM     19  C   UNL     1      -6.137  11.868  19.898  0.00  0.00    +0.000 C 
ATOM     20  C   UNL     1      -5.430  11.497  18.604  0.00  0.00    +0.000 C 
ENDBRANCH  18  20
ENDBRANCH   8  18
ENDBRANCH   1  12
BRANCH   3  21
ATOM     21  C   UNL     1       3.221   6.422  18.108  0.00  0.00    +0.000 C 
BRANCH  21  22
ATOM     22  N   UNL     1       3.618   5.126  18.670  0.00  0.00    +0.000 N 
ATOM     23  C   UNL     1       4.946   4.967  19.052  0.00  0.00    +0.000 A 
ATOM     24  O   UNL     1       5.776   5.870  19.049  0.00  0.00    +0.000 OA
ATOM     25  N   UNL     1       5.338   3.708  19.430  0.00  0.00    +0.000 N 
ATOM     26  C   UNL     1       4.578   2.575  19.408  0.00  0.00    +0.000 A 
ATOM     27  O   UNL     1       5.060   1.464  19.593  0.00  0.00    +0.000 OA
ATOM     28  C   UNL     1       3.149   2.767  19.132  0.00  0.00    +0.000 A 
ATOM     29  C   UNL     1       2.276   1.675  19.247  0.00  0.00    +0.000 A 
ATOM     30  C   UNL     1       0.921   1.844  18.989  0.00  0.00    +0.000 A 
ATOM     31  C   UNL     1       0.452   3.086  18.580  0.00  0.00    +0.000 A 
ATOM     32  C   UNL     1       1.335   4.163  18.438  0.00  0.00    +0.000 A 
ATOM     33  C   UNL     1       2.696   4.034  18.742  0.00  0.00    +0.000 A 
ATOM     34  H   UNL     1       6.320   3.587  19.620  0.00  0.00    +0.000 HD
ENDBRANCH  21  22
ENDBRANCH   3  21
TORSDOF 6
ENDMDL
