MODEL 1
REMARK VINA RESULT:      -8.4      0.000      0.000
REMARK  Name = 
REMARK  10 active torsions:
REMARK  status: ('A' for Active; 'I' for Inactive)
REMARK    1  A    between atoms: C_1  and  C_2
REMARK    2  A    between atoms: C_2  and  C_3
REMARK    3  A    between atoms: C_2  and  C_4
REMARK    4  A    between atoms: C_4  and  O_5
REMARK    5  A    between atoms: O_5  and  C_6
REMARK    6  A    between atoms: C_9  and  C_10
REMARK    7  A    between atoms: C_10  and  N_11
REMARK    8  A    between atoms: N_14  and  C_15
REMARK    9  A    between atoms: N_14  and  C_23
REMARK   10  A    between atoms: C_15  and  C_16
REMARK                            x       y       z     vdW  Elec       q    Type
REMARK                         _______ _______ _______ _____ _____    ______ ____
ROOT
ATOM      1  N   UNL     1       2.503   6.712  19.005  0.00  0.00    +0.000 N 
ATOM      2  C   UNL     1       3.725   6.176  18.691  0.00  0.00    +0.000 C 
ATOM      3  O   UNL     1       4.502   6.887  18.058  0.00  0.00    +0.000 OA
ATOM      4  N   UNL     1       4.115   4.877  19.024  0.00  0.00    +0.000 N 
ATOM      5  H   UNL     1       1.836   6.204  19.586  0.00  0.00    +0.000 HD
ENDROOT
BRANCH   4   6
ATOM      6  C   UNL     1       3.246   3.937  19.817  0.00  0.00    +0.000 C 
ATOM      7  C   UNL     1       3.752   2.453  19.922  0.00  0.00    +0.000 C 
ATOM      8  C   UNL     1       3.609   1.682  18.577  0.00  0.00    +0.000 C 
ATOM      9  N   UNL     1       2.220   1.683  18.108  0.00  0.00    +0.000 NA
ATOM     10  C   UNL     1       1.705   3.051  17.970  0.00  0.00    +0.000 C 
ATOM     11  C   UNL     1       1.780   3.799  19.300  0.00  0.00    +0.000 C 
ATOM     12  H   UNL     1       1.622   1.152  18.783  0.00  0.00    +0.000 HD
ENDBRANCH   4   6
BRANCH   1  13
ATOM     13  C   UNL     1       2.045   8.004  18.498  0.00  0.00    +0.000 C 
BRANCH  13  17
ATOM     14  C   UNL     1       0.350  10.471  21.638  0.00  0.00    +0.000 A 
ATOM     15  C   UNL     1       0.510  11.011  20.344  0.00  0.00    +0.000 A 
ATOM     16  C   UNL     1       1.081  10.231  19.321  0.00  0.00    +0.000 A 
ATOM     17  C   UNL     1       1.482   8.904  19.580  0.00  0.00    +0.000 A 
ATOM     18  C   UNL     1       1.306   8.379  20.862  0.00  0.00    +0.000 A 
ATOM     19  C   UNL     1       0.759   9.157  21.879  0.00  0.00    +0.000 A 
BRANCH  14  20
ATOM     20  O   UNL     1      -0.183  11.158  22.684  0.00  0.00    +0.000 OA
BRANCH  20  21
ATOM     21  C   UNL     1      -1.469  11.072  23.184  0.00  0.00    +0.000 C 
BRANCH  21  23
ATOM     22  C   UNL     1      -2.627  12.577  21.490  0.00  0.00    +0.000 C 
ATOM     23  C   UNL     1      -2.228  12.398  22.965  0.00  0.00    +0.000 C 
ATOM     24  C   UNL     1      -3.478  12.446  23.848  0.00  0.00    +0.000 C 
ENDBRANCH  21  23
ENDBRANCH  20  21
ENDBRANCH  14  20
ENDBRANCH  13  17
ENDBRANCH   1  13
BRANCH   4  25
ATOM     25  C   UNL     1       5.503   4.502  18.664  0.00  0.00    +0.000 C 
BRANCH  25  26
ATOM     26  C   UNL     1       5.799   4.456  17.173  0.00  0.00    +0.000 A 
ATOM     27  C   UNL     1       4.879   4.016  16.198  0.00  0.00    +0.000 A 
ATOM     28  C   UNL     1       5.222   4.022  14.844  0.00  0.00    +0.000 A 
ATOM     29  C   UNL     1       6.492   4.437  14.443  0.00  0.00    +0.000 A 
ATOM     30  F   UNL     1       6.822   4.434  13.129  0.00  0.00    +0.000 F 
ATOM     31  C   UNL     1       7.422   4.852  15.396  0.00  0.00    +0.000 A 
ATOM     32  C   UNL     1       7.077   4.869  16.751  0.00  0.00    +0.000 A 
ENDBRANCH  25  26
ENDBRANCH   4  25
TORSDOF 8
ENDMDL
MODEL 2
REMARK VINA RESULT:      -8.3      0.857      1.869
REMARK  Name = 
REMARK  10 active torsions:
REMARK  status: ('A' for Active; 'I' for Inactive)
REMARK    1  A    between atoms: C_1  and  C_2
REMARK    2  A    between atoms: C_2  and  C_3
REMARK    3  A    between atoms: C_2  and  C_4
REMARK    4  A    between atoms: C_4  and  O_5
REMARK    5  A    between atoms: O_5  and  C_6
REMARK    6  A    between atoms: C_9  and  C_10
REMARK    7  A    between atoms: C_10  and  N_11
REMARK    8  A    between atoms: N_14  and  C_15
REMARK    9  A    between atoms: N_14  and  C_23
REMARK   10  A    between atoms: C_15  and  C_16
REMARK                            x       y       z     vdW  Elec       q    Type
REMARK                         _______ _______ _______ _____ _____    ______ ____
ROOT
ATOM      1  N   UNL     1       2.183   7.063  17.946  0.00  0.00    +0.000 N 
ATOM      2  C   UNL     1       3.361   6.365  17.879  0.00  0.00    +0.000 C 
ATOM      3  O   UNL     1       4.401   7.020  17.882  0.00  0.00    +0.000 OA
ATOM      4  N   UNL     1       3.438   4.974  17.784  0.00  0.00    +0.000 N 
ATOM      5  H   UNL     1       1.286   6.582  18.016  0.00  0.00    +0.000 HD
ENDROOT
BRANCH   4   6
ATOM      6  C   UNL     1       2.225   4.081  17.796  0.00  0.00    +0.000 C 
ATOM      7  C   UNL     1       1.349   4.127  19.099  0.00  0.00    +0.000 C 
ATOM      8  C   UNL     1       2.047   3.437  20.308  0.00  0.00    +0.000 C 
ATOM      9  N   UNL     1       2.382   2.042  20.003  0.00  0.00    +0.000 NA
ATOM     10  C   UNL     1       3.223   1.946  18.804  0.00  0.00    +0.000 C 
ATOM     11  C   UNL     1       2.521   2.563  17.595  0.00  0.00    +0.000 C 
ATOM     12  H   UNL     1       1.502   1.495  19.857  0.00  0.00    +0.000 HD
ENDBRANCH   4   6
BRANCH   1  13
ATOM     13  C   UNL     1       2.115   8.521  17.868  0.00  0.00    +0.000 C 
BRANCH  13  17
ATOM     14  C   UNL     1       0.502  10.464  21.395  0.00  0.00    +0.000 A 
ATOM     15  C   UNL     1       0.897   9.110  21.470  0.00  0.00    +0.000 A 
ATOM     16  C   UNL     1       1.400   8.459  20.327  0.00  0.00    +0.000 A 
ATOM     17  C   UNL     1       1.524   9.158  19.109  0.00  0.00    +0.000 A 
ATOM     18  C   UNL     1       1.141  10.501  19.054  0.00  0.00    +0.000 A 
ATOM     19  C   UNL     1       0.626  11.139  20.179  0.00  0.00    +0.000 A 
BRANCH  14  20
ATOM     20  O   UNL     1      -0.001  11.164  22.447  0.00  0.00    +0.000 OA
BRANCH  20  21
ATOM     21  C   UNL     1      -1.243  11.027  23.037  0.00  0.00    +0.000 C 
BRANCH  21  23
ATOM     22  C   UNL     1      -3.370  12.261  23.694  0.00  0.00    +0.000 C 
ATOM     23  C   UNL     1      -2.072  12.317  22.869  0.00  0.00    +0.000 C 
ATOM     24  C   UNL     1      -1.246  13.537  23.287  0.00  0.00    +0.000 C 
ENDBRANCH  21  23
ENDBRANCH  20  21
ENDBRANCH  14  20
ENDBRANCH  13  17
ENDBRANCH   1  13
BRANCH   4  25
ATOM     25  C   UNL     1       4.802   4.396  17.797  0.00  0.00    +0.000 C 
BRANCH  25  26
ATOM     26  C   UNL     1       5.583   4.537  16.499  0.00  0.00    +0.000 A 
ATOM     27  C   UNL     1       6.892   5.060  16.418  0.00  0.00    +0.000 A 
ATOM     28  C   UNL     1       7.549   5.140  15.188  0.00  0.00    +0.000 A 
ATOM     29  C   UNL     1       6.907   4.728  14.020  0.00  0.00    +0.000 A 
ATOM     30  F   UNL     1       7.546   4.814  12.829  0.00  0.00    +0.000 F 
ATOM     31  C   UNL     1       5.604   4.231  14.080  0.00  0.00    +0.000 A 
ATOM     32  C   UNL     1       4.949   4.129  15.311  0.00  0.00    +0.000 A 
ENDBRANCH  25  26
ENDBRANCH   4  25
TORSDOF 8
ENDMDL
MODEL 3
REMARK VINA RESULT:      -8.1      0.942      1.711
REMARK  Name = 
REMARK  10 active torsions:
REMARK  status: ('A' for Active; 'I' for Inactive)
REMARK    1  A    between atoms: C_1  and  C_2
REMARK    2  A    between atoms: C_2  and  C_3
REMARK    3  A    between atoms: C_2  and  C_4
REMARK    4  A    between atoms: C_4  and  O_5
REMARK    5  A    between atoms: O_5  and  C_6
REMARK    6  A    between atoms: C_9  and  C_10
REMARK    7  A    between atoms: C_10  and  N_11
REMARK    8  A    between atoms: N_14  and  C_15
REMARK    9  A    between atoms: N_14  and  C_23
REMARK   10  A    between atoms: C_15  and  C_16
REMARK                            x       y       z     vdW  Elec       q    Type
REMARK                         _______ _______ _______ _____ _____    ______ ____
ROOT
ATOM      1  N   UNL     1       2.153   7.165  18.102  0.00  0.00    +0.000 N 
ATOM      2  C   UNL     1       3.395   6.591  18.011  0.00  0.00    +0.000 C 
ATOM      3  O   UNL     1       4.348   7.347  17.841  0.00  0.00    +0.000 OA
ATOM      4  N   UNL     1       3.625   5.216  18.077  0.00  0.00    +0.000 N 
ATOM      5  H   UNL     1       1.326   6.605  18.310  0.00  0.00    +0.000 HD
ENDROOT
BRANCH   4   6
ATOM      6  C   UNL     1       2.528   4.210  18.307  0.00  0.00    +0.000 C 
ATOM      7  C   UNL     1       1.651   4.427  19.592  0.00  0.00    +0.000 C 
ATOM      8  C   UNL     1       2.426   4.096  20.901  0.00  0.00    +0.000 C 
ATOM      9  N   UNL     1       2.927   2.718  20.889  0.00  0.00    +0.000 NA
ATOM     10  C   UNL     1       3.775   2.470  19.717  0.00  0.00    +0.000 C 
ATOM     11  C   UNL     1       3.005   2.729  18.422  0.00  0.00    +0.000 C 
ATOM     12  H   UNL     1       2.119   2.052  20.883  0.00  0.00    +0.000 HD
ENDBRANCH   4   6
BRANCH   1  13
ATOM     13  C   UNL     1       1.910   8.585  17.857  0.00  0.00    +0.000 C 
BRANCH  13  17
ATOM     14  C   UNL     1       0.436  10.603  21.402  0.00  0.00    +0.000 A 
ATOM     15  C   UNL     1       0.581  11.331  20.201  0.00  0.00    +0.000 A 
ATOM     16  C   UNL     1       1.081  10.695  19.049  0.00  0.00    +0.000 A 
ATOM     17  C   UNL     1       1.425   9.329  19.085  0.00  0.00    +0.000 A 
ATOM     18  C   UNL     1       1.264   8.618  20.276  0.00  0.00    +0.000 A 
ATOM     19  C   UNL     1       0.788   9.251  21.421  0.00  0.00    +0.000 A 
BRANCH  14  20
ATOM     20  O   UNL     1      -0.030  11.141  22.561  0.00  0.00    +0.000 OA
BRANCH  20  21
ATOM     21  C   UNL     1      -1.296  11.016  23.102  0.00  0.00    +0.000 C 
BRANCH  21  23
ATOM     22  C   UNL     1      -1.078  13.545  23.283  0.00  0.00    +0.000 C 
ATOM     23  C   UNL     1      -2.042  12.366  23.060  0.00  0.00    +0.000 C 
ATOM     24  C   UNL     1      -2.761  12.534  21.718  0.00  0.00    +0.000 C 
ENDBRANCH  21  23
ENDBRANCH  20  21
ENDBRANCH  14  20
ENDBRANCH  13  17
ENDBRANCH   1  13
BRANCH   4  25
ATOM     25  C   UNL     1       5.044   4.791  18.035  0.00  0.00    +0.000 C 
BRANCH  25  26
ATOM     26  C   UNL     1       5.671   4.748  16.649  0.00  0.00    +0.000 A 
ATOM     27  C   UNL     1       6.960   5.236  16.351  0.00  0.00    +0.000 A 
ATOM     28  C   UNL     1       7.472   5.142  15.054  0.00  0.00    +0.000 A 
ATOM     29  C   UNL     1       6.700   4.588  14.033  0.00  0.00    +0.000 A 
ATOM     30  F   UNL     1       7.199   4.506  12.775  0.00  0.00    +0.000 F 
ATOM     31  C   UNL     1       5.413   4.123  14.306  0.00  0.00    +0.000 A 
ATOM     32  C   UNL     1       4.905   4.194  15.606  0.00  0.00    +0.000 A 
ENDBRANCH  25  26
ENDBRANCH   4  25
TORSDOF 8
ENDMDL
MODEL 4
REMARK VINA RESULT:      -8.1      0.999      1.514
REMARK  Name = 
REMARK  10 active torsions:
REMARK  status: ('A' for Active; 'I' for Inactive)
REMARK    1  A    between atoms: C_1  and  C_2
REMARK    2  A    between atoms: C_2  and  C_3
REMARK    3  A    between atoms: C_2  and  C_4
REMARK    4  A    between atoms: C_4  and  O_5
REMARK    5  A    between atoms: O_5  and  C_6
REMARK    6  A    between atoms: C_9  and  C_10
REMARK    7  A    between atoms: C_10  and  N_11
REMARK    8  A    between atoms: N_14  and  C_15
REMARK    9  A    between atoms: N_14  and  C_23
REMARK   10  A    between atoms: C_15  and  C_16
REMARK                            x       y       z     vdW  Elec       q    Type
REMARK                         _______ _______ _______ _____ _____    ______ ____
ROOT
ATOM      1  N   UNL     1       2.118   7.272  18.093  0.00  0.00    +0.000 N 
ATOM      2  C   UNL     1       3.328   6.634  18.004  0.00  0.00    +0.000 C 
ATOM      3  O   UNL     1       4.314   7.333  17.781  0.00  0.00    +0.000 OA
ATOM      4  N   UNL     1       3.492   5.254  18.129  0.00  0.00    +0.000 N 
ATOM      5  H   UNL     1       1.269   6.765  18.343  0.00  0.00    +0.000 HD
ENDROOT
BRANCH   4   6
ATOM      6  C   UNL     1       2.353   4.315  18.427  0.00  0.00    +0.000 C 
ATOM      7  C   UNL     1       1.578   4.575  19.769  0.00  0.00    +0.000 C 
ATOM      8  C   UNL     1       2.416   4.186  21.022  0.00  0.00    +0.000 C 
ATOM      9  N   UNL     1       2.829   2.779  20.970  0.00  0.00    +0.000 NA
ATOM     10  C   UNL     1       3.580   2.489  19.744  0.00  0.00    +0.000 C 
ATOM     11  C   UNL     1       2.744   2.806  18.504  0.00  0.00    +0.000 C 
ATOM     12  H   UNL     1       1.982   2.164  21.016  0.00  0.00    +0.000 HD
ENDBRANCH   4   6
BRANCH   1  13
ATOM     13  C   UNL     1       1.940   8.690  17.786  0.00  0.00    +0.000 C 
BRANCH  13  17
ATOM     14  C   UNL     1       0.449  10.905  21.204  0.00  0.00    +0.000 A 
ATOM     15  C   UNL     1       0.694  11.586  19.992  0.00  0.00    +0.000 A 
ATOM     16  C   UNL     1       1.201  10.885  18.881  0.00  0.00    +0.000 A 
ATOM     17  C   UNL     1       1.452   9.501  18.970  0.00  0.00    +0.000 A 
ATOM     18  C   UNL     1       1.192   8.838  20.172  0.00  0.00    +0.000 A 
ATOM     19  C   UNL     1       0.709   9.535  21.276  0.00  0.00    +0.000 A 
BRANCH  14  20
ATOM     20  O   UNL     1      -0.031  11.507  22.326  0.00  0.00    +0.000 OA
BRANCH  20  21
ATOM     21  C   UNL     1      -1.244  11.286  22.951  0.00  0.00    +0.000 C 
BRANCH  21  23
ATOM     22  C   UNL     1      -3.417  12.370  23.711  0.00  0.00    +0.000 C 
ATOM     23  C   UNL     1      -2.124  12.553  22.897  0.00  0.00    +0.000 C 
ATOM     24  C   UNL     1      -1.346  13.761  23.427  0.00  0.00    +0.000 C 
ENDBRANCH  21  23
ENDBRANCH  20  21
ENDBRANCH  14  20
ENDBRANCH  13  17
ENDBRANCH   1  13
BRANCH   4  25
ATOM     25  C   UNL     1       4.887   4.757  18.079  0.00  0.00    +0.000 C 
BRANCH  25  26
ATOM     26  C   UNL     1       5.511   4.704  16.693  0.00  0.00    +0.000 A 
ATOM     27  C   UNL     1       4.835   4.250  15.540  0.00  0.00    +0.000 A 
ATOM     28  C   UNL     1       5.473   4.250  14.297  0.00  0.00    +0.000 A 
ATOM     29  C   UNL     1       6.798   4.673  14.188  0.00  0.00    +0.000 A 
ATOM     30  F   UNL     1       7.415   4.664  12.981  0.00  0.00    +0.000 F 
ATOM     31  C   UNL     1       7.489   5.102  15.323  0.00  0.00    +0.000 A 
ATOM     32  C   UNL     1       6.848   5.125  16.565  0.00  0.00    +0.000 A 
ENDBRANCH  25  26
ENDBRANCH   4  25
TORSDOF 8
ENDMDL
MODEL 5
REMARK VINA RESULT:      -8.1      0.500      1.460
REMARK  Name = 
REMARK  10 active torsions:
REMARK  status: ('A' for Active; 'I' for Inactive)
REMARK    1  A    between atoms: C_1  and  C_2
REMARK    2  A    between atoms: C_2  and  C_3
REMARK    3  A    between atoms: C_2  and  C_4
REMARK    4  A    between atoms: C_4  and  O_5
REMARK    5  A    between atoms: O_5  and  C_6
REMARK    6  A    between atoms: C_9  and  C_10
REMARK    7  A    between atoms: C_10  and  N_11
REMARK    8  A    between atoms: N_14  and  C_15
REMARK    9  A    between atoms: N_14  and  C_23
REMARK   10  A    between atoms: C_15  and  C_16
REMARK                            x       y       z     vdW  Elec       q    Type
REMARK                         _______ _______ _______ _____ _____    ______ ____
ROOT
ATOM      1  N   UNL     1       2.444   6.622  19.344  0.00  0.00    +0.000 N 
ATOM      2  C   UNL     1       3.677   6.111  19.027  0.00  0.00    +0.000 C 
ATOM      3  O   UNL     1       4.468   6.867  18.468  0.00  0.00    +0.000 OA
ATOM      4  N   UNL     1       4.064   4.794  19.281  0.00  0.00    +0.000 N 
ATOM      5  H   UNL     1       1.764   6.073  19.868  0.00  0.00    +0.000 HD
ENDROOT
BRANCH   4   6
ATOM      6  C   UNL     1       3.177   3.798  19.981  0.00  0.00    +0.000 C 
ATOM      7  C   UNL     1       3.697   2.316  20.015  0.00  0.00    +0.000 C 
ATOM      8  C   UNL     1       3.614   1.627  18.622  0.00  0.00    +0.000 C 
ATOM      9  N   UNL     1       2.243   1.643  18.101  0.00  0.00    +0.000 NA
ATOM     10  C   UNL     1       1.717   3.012  18.027  0.00  0.00    +0.000 C 
ATOM     11  C   UNL     1       1.734   3.678  19.402  0.00  0.00    +0.000 C 
ATOM     12  H   UNL     1       1.626   1.066  18.720  0.00  0.00    +0.000 HD
ENDBRANCH   4   6
BRANCH   1  13
ATOM     13  C   UNL     1       1.995   7.944  18.915  0.00  0.00    +0.000 C 
BRANCH  13  17
ATOM     14  C   UNL     1       0.176  10.344  22.038  0.00  0.00    +0.000 A 
ATOM     15  C   UNL     1       0.772   9.108  22.373  0.00  0.00    +0.000 A 
ATOM     16  C   UNL     1       1.345   8.307  21.366  0.00  0.00    +0.000 A 
ATOM     17  C   UNL     1       1.339   8.741  20.025  0.00  0.00    +0.000 A 
ATOM     18  C   UNL     1       0.757   9.971  19.711  0.00  0.00    +0.000 A 
ATOM     19  C   UNL     1       0.174  10.755  20.703  0.00  0.00    +0.000 A 
BRANCH  14  20
ATOM     20  O   UNL     1      -0.406  11.173  22.945  0.00  0.00    +0.000 OA
BRANCH  20  21
ATOM     21  C   UNL     1      -1.755  11.322  23.211  0.00  0.00    +0.000 C 
BRANCH  21  23
ATOM     22  C   UNL     1      -3.441  13.149  23.752  0.00  0.00    +0.000 C 
ATOM     23  C   UNL     1      -2.213  12.763  22.907  0.00  0.00    +0.000 C 
ATOM     24  C   UNL     1      -1.073  13.750  23.172  0.00  0.00    +0.000 C 
ENDBRANCH  21  23
ENDBRANCH  20  21
ENDBRANCH  14  20
ENDBRANCH  13  17
ENDBRANCH   1  13
BRANCH   4  25
ATOM     25  C   UNL     1       5.463   4.449  18.935  0.00  0.00    +0.000 C 
BRANCH  25  26
ATOM     26  C   UNL     1       5.784   4.442  17.448  0.00  0.00    +0.000 A 
ATOM     27  C   UNL     1       7.066   4.693  16.916  0.00  0.00    +0.000 A 
ATOM     28  C   UNL     1       7.283   4.649  15.537  0.00  0.00    +0.000 A 
ATOM     29  C   UNL     1       6.225   4.383  14.667  0.00  0.00    +0.000 A 
ATOM     30  F   UNL     1       6.440   4.349  13.330  0.00  0.00    +0.000 F 
ATOM     31  C   UNL     1       4.946   4.156  15.176  0.00  0.00    +0.000 A 
ATOM     32  C   UNL     1       4.727   4.177  16.556  0.00  0.00    +0.000 A 
ENDBRANCH  25  26
ENDBRANCH   4  25
TORSDOF 8
ENDMDL
MODEL 6
REMARK VINA RESULT:      -8.0      0.907      1.377
REMARK  Name = 
REMARK  10 active torsions:
REMARK  status: ('A' for Active; 'I' for Inactive)
REMARK    1  A    between atoms: C_1  and  C_2
REMARK    2  A    between atoms: C_2  and  C_3
REMARK    3  A    between atoms: C_2  and  C_4
REMARK    4  A    between atoms: C_4  and  O_5
REMARK    5  A    between atoms: O_5  and  C_6
REMARK    6  A    between atoms: C_9  and  C_10
REMARK    7  A    between atoms: C_10  and  N_11
REMARK    8  A    between atoms: N_14  and  C_15
REMARK    9  A    between atoms: N_14  and  C_23
REMARK   10  A    between atoms: C_15  and  C_16
REMARK                            x       y       z     vdW  Elec       q    Type
REMARK                         _______ _______ _______ _____ _____    ______ ____
ROOT
ATOM      1  N   UNL     1       2.305   7.105  18.365  0.00  0.00    +0.000 N 
ATOM      2  C   UNL     1       3.527   6.497  18.236  0.00  0.00    +0.000 C 
ATOM      3  O   UNL     1       4.429   7.159  17.728  0.00  0.00    +0.000 OA
ATOM      4  N   UNL     1       3.788   5.181  18.621  0.00  0.00    +0.000 N 
ATOM      5  H   UNL     1       1.530   6.639  18.838  0.00  0.00    +0.000 HD
ENDROOT
BRANCH   4   6
ATOM      6  C   UNL     1       2.757   4.297  19.274  0.00  0.00    +0.000 C 
ATOM      7  C   UNL     1       3.315   3.141  20.181  0.00  0.00    +0.000 C 
ATOM      8  C   UNL     1       3.976   2.002  19.350  0.00  0.00    +0.000 C 
ATOM      9  N   UNL     1       3.035   1.438  18.378  0.00  0.00    +0.000 NA
ATOM     10  C   UNL     1       2.502   2.476  17.488  0.00  0.00    +0.000 C 
ATOM     11  C   UNL     1       1.793   3.569  18.287  0.00  0.00    +0.000 C 
ATOM     12  H   UNL     1       2.245   0.973  18.884  0.00  0.00    +0.000 HD
ENDBRANCH   4   6
BRANCH   1  13
ATOM     13  C   UNL     1       2.003   8.417  17.798  0.00  0.00    +0.000 C 
BRANCH  13  17
ATOM     14  C   UNL     1      -0.571  10.718  20.425  0.00  0.00    +0.000 A 
ATOM     15  C   UNL     1      -0.693  10.873  19.027  0.00  0.00    +0.000 A 
ATOM     16  C   UNL     1       0.152  10.151  18.163  0.00  0.00    +0.000 A 
ATOM     17  C   UNL     1       1.112   9.261  18.687  0.00  0.00    +0.000 A 
ATOM     18  C   UNL     1       1.212   9.109  20.072  0.00  0.00    +0.000 A 
ATOM     19  C   UNL     1       0.390   9.837  20.927  0.00  0.00    +0.000 A 
BRANCH  14  20
ATOM     20  O   UNL     1      -1.339  11.382  21.329  0.00  0.00    +0.000 OA
BRANCH  20  21
ATOM     21  C   UNL     1      -1.022  11.700  22.637  0.00  0.00    +0.000 C 
BRANCH  21  23
ATOM     22  C   UNL     1      -1.605  13.989  23.585  0.00  0.00    +0.000 C 
ATOM     23  C   UNL     1      -2.125  12.575  23.268  0.00  0.00    +0.000 C 
ATOM     24  C   UNL     1      -3.331  12.667  22.329  0.00  0.00    +0.000 C 
ENDBRANCH  21  23
ENDBRANCH  20  21
ENDBRANCH  14  20
ENDBRANCH  13  17
ENDBRANCH   1  13
BRANCH   4  25
ATOM     25  C   UNL     1       5.189   4.725  18.472  0.00  0.00    +0.000 C 
BRANCH  25  26
ATOM     26  C   UNL     1       5.707   4.665  17.043  0.00  0.00    +0.000 A 
ATOM     27  C   UNL     1       6.989   5.101  16.648  0.00  0.00    +0.000 A 
ATOM     28  C   UNL     1       7.396   4.995  15.316  0.00  0.00    +0.000 A 
ATOM     29  C   UNL     1       6.526   4.480  14.354  0.00  0.00    +0.000 A 
ATOM     30  F   UNL     1       6.924   4.386  13.063  0.00  0.00    +0.000 F 
ATOM     31  C   UNL     1       5.246   4.067  14.724  0.00  0.00    +0.000 A 
ATOM     32  C   UNL     1       4.841   4.150  16.059  0.00  0.00    +0.000 A 
ENDBRANCH  25  26
ENDBRANCH   4  25
TORSDOF 8
ENDMDL
MODEL 7
REMARK VINA RESULT:      -8.0      4.525     10.114
REMARK  Name = 
REMARK  10 active torsions:
REMARK  status: ('A' for Active; 'I' for Inactive)
REMARK    1  A    between atoms: C_1  and  C_2
REMARK    2  A    between atoms: C_2  and  C_3
REMARK    3  A    between atoms: C_2  and  C_4
REMARK    4  A    between atoms: C_4  and  O_5
REMARK    5  A    between atoms: O_5  and  C_6
REMARK    6  A    between atoms: C_9  and  C_10
REMARK    7  A    between atoms: C_10  and  N_11
REMARK    8  A    between atoms: N_14  and  C_15
REMARK    9  A    between atoms: N_14  and  C_23
REMARK   10  A    between atoms: C_15  and  C_16
REMARK                            x       y       z     vdW  Elec       q    Type
REMARK                         _______ _______ _______ _____ _____    ______ ____
ROOT
ATOM      1  N   UNL     1       0.340   9.866  17.867  0.00  0.00    +0.000 N 
ATOM      2  C   UNL     1      -0.236  10.983  18.416  0.00  0.00    +0.000 C 
ATOM      3  O   UNL     1       0.522  11.850  18.845  0.00  0.00    +0.000 OA
ATOM      4  N   UNL     1      -1.615  11.172  18.532  0.00  0.00    +0.000 N 
ATOM      5  H   UNL     1      -0.227   9.139  17.431  0.00  0.00    +0.000 HD
ENDROOT
BRANCH   4   6
ATOM      6  C   UNL     1      -2.626  10.182  18.016  0.00  0.00    +0.000 C 
ATOM      7  C   UNL     1      -2.468   9.755  16.512  0.00  0.00    +0.000 C 
ATOM      8  C   UNL     1      -2.866  10.893  15.528  0.00  0.00    +0.000 C 
ATOM      9  N   UNL     1      -4.244  11.338  15.758  0.00  0.00    +0.000 NA
ATOM     10  C   UNL     1      -4.439  11.772  17.147  0.00  0.00    +0.000 C 
ATOM     11  C   UNL     1      -4.113  10.641  18.123  0.00  0.00    +0.000 C 
ATOM     12  H   UNL     1      -4.906  10.555  15.541  0.00  0.00    +0.000 HD
ENDBRANCH   4   6
BRANCH   1  13
ATOM     13  C   UNL     1       1.777   9.606  17.912  0.00  0.00    +0.000 C 
BRANCH  13  17
ATOM     14  C   UNL     1       2.728   5.777  19.716  0.00  0.00    +0.000 A 
ATOM     15  C   UNL     1       2.073   6.762  20.487  0.00  0.00    +0.000 A 
ATOM     16  C   UNL     1       1.780   8.018  19.923  0.00  0.00    +0.000 A 
ATOM     17  C   UNL     1       2.125   8.293  18.584  0.00  0.00    +0.000 A 
ATOM     18  C   UNL     1       2.761   7.304  17.829  0.00  0.00    +0.000 A 
ATOM     19  C   UNL     1       3.069   6.069  18.393  0.00  0.00    +0.000 A 
BRANCH  14  20
ATOM     20  O   UNL     1       3.056   4.544  20.186  0.00  0.00    +0.000 OA
BRANCH  20  21
ATOM     21  C   UNL     1       3.769   3.554  19.535  0.00  0.00    +0.000 C 
BRANCH  21  23
ATOM     22  C   UNL     1       1.584   2.385  20.114  0.00  0.00    +0.000 C 
ATOM     23  C   UNL     1       2.881   2.316  19.289  0.00  0.00    +0.000 C 
ATOM     24  C   UNL     1       2.541   2.195  17.801  0.00  0.00    +0.000 C 
ENDBRANCH  21  23
ENDBRANCH  20  21
ENDBRANCH  14  20
ENDBRANCH  13  17
ENDBRANCH   1  13
BRANCH   4  25
ATOM     25  C   UNL     1      -2.048  12.477  19.084  0.00  0.00    +0.000 C 
BRANCH  25  26
ATOM     26  C   UNL     1      -2.543  12.444  20.522  0.00  0.00    +0.000 A 
ATOM     27  C   UNL     1      -3.834  12.849  20.923  0.00  0.00    +0.000 A 
ATOM     28  C   UNL     1      -4.218  12.771  22.263  0.00  0.00    +0.000 A 
ATOM     29  C   UNL     1      -3.318  12.315  23.227  0.00  0.00    +0.000 A 
ATOM     30  F   UNL     1      -3.694  12.247  24.527  0.00  0.00    +0.000 F 
ATOM     31  C   UNL     1      -2.029  11.933  22.851  0.00  0.00    +0.000 A 
ATOM     32  C   UNL     1      -1.647  11.989  21.508  0.00  0.00    +0.000 A 
ENDBRANCH  25  26
ENDBRANCH   4  25
TORSDOF 8
ENDMDL
MODEL 8
REMARK VINA RESULT:      -8.0      0.800      1.251
REMARK  Name = 
REMARK  10 active torsions:
REMARK  status: ('A' for Active; 'I' for Inactive)
REMARK    1  A    between atoms: C_1  and  C_2
REMARK    2  A    between atoms: C_2  and  C_3
REMARK    3  A    between atoms: C_2  and  C_4
REMARK    4  A    between atoms: C_4  and  O_5
REMARK    5  A    between atoms: O_5  and  C_6
REMARK    6  A    between atoms: C_9  and  C_10
REMARK    7  A    between atoms: C_10  and  N_11
REMARK    8  A    between atoms: N_14  and  C_15
REMARK    9  A    between atoms: N_14  and  C_23
REMARK   10  A    between atoms: C_15  and  C_16
REMARK                            x       y       z     vdW  Elec       q    Type
REMARK                         _______ _______ _______ _____ _____    ______ ____
ROOT
ATOM      1  N   UNL     1       2.430   7.046  18.622  0.00  0.00    +0.000 N 
ATOM      2  C   UNL     1       3.638   6.437  18.398  0.00  0.00    +0.000 C 
ATOM      3  O   UNL     1       4.513   7.112  17.860  0.00  0.00    +0.000 OA
ATOM      4  N   UNL     1       3.913   5.108  18.723  0.00  0.00    +0.000 N 
ATOM      5  H   UNL     1       1.682   6.569  19.125  0.00  0.00    +0.000 HD
ENDROOT
BRANCH   4   6
ATOM      6  C   UNL     1       2.918   4.207  19.406  0.00  0.00    +0.000 C 
ATOM      7  C   UNL     1       3.512   2.945  20.129  0.00  0.00    +0.000 C 
ATOM      8  C   UNL     1       4.015   1.867  19.123  0.00  0.00    +0.000 C 
ATOM      9  N   UNL     1       2.941   1.442  18.219  0.00  0.00    +0.000 NA
ATOM     10  C   UNL     1       2.366   2.584  17.499  0.00  0.00    +0.000 C 
ATOM     11  C   UNL     1       1.811   3.621  18.475  0.00  0.00    +0.000 C 
ATOM     12  H   UNL     1       2.190   0.962  18.769  0.00  0.00    +0.000 HD
ENDBRANCH   4   6
BRANCH   1  13
ATOM     13  C   UNL     1       2.103   8.379  18.119  0.00  0.00    +0.000 C 
BRANCH  13  17
ATOM     14  C   UNL     1      -0.437  10.747  20.718  0.00  0.00    +0.000 A 
ATOM     15  C   UNL     1       0.323   9.691  21.267  0.00  0.00    +0.000 A 
ATOM     16  C   UNL     1       1.133   8.898  20.432  0.00  0.00    +0.000 A 
ATOM     17  C   UNL     1       1.200   9.163  19.049  0.00  0.00    +0.000 A 
ATOM     18  C   UNL     1       0.453  10.219  18.522  0.00  0.00    +0.000 A 
ATOM     19  C   UNL     1      -0.363  10.991  19.345  0.00  0.00    +0.000 A 
BRANCH  14  20
ATOM     20  O   UNL     1      -1.251  11.553  21.450  0.00  0.00    +0.000 OA
BRANCH  20  21
ATOM     21  C   UNL     1      -1.426  11.557  22.822  0.00  0.00    +0.000 C 
BRANCH  21  23
ATOM     22  C   UNL     1      -1.168  14.041  23.313  0.00  0.00    +0.000 C 
ATOM     23  C   UNL     1      -2.140  12.847  23.276  0.00  0.00    +0.000 C 
ATOM     24  C   UNL     1      -3.311  13.163  22.341  0.00  0.00    +0.000 C 
ENDBRANCH  21  23
ENDBRANCH  20  21
ENDBRANCH  14  20
ENDBRANCH  13  17
ENDBRANCH   1  13
BRANCH   4  25
ATOM     25  C   UNL     1       5.300   4.650  18.474  0.00  0.00    +0.000 C 
BRANCH  25  26
ATOM     26  C   UNL     1       5.715   4.596  17.011  0.00  0.00    +0.000 A 
ATOM     27  C   UNL     1       4.867   4.176  15.964  0.00  0.00    +0.000 A 
ATOM     28  C   UNL     1       5.319   4.173  14.643  0.00  0.00    +0.000 A 
ATOM     29  C   UNL     1       6.627   4.559  14.347  0.00  0.00    +0.000 A 
ATOM     30  F   UNL     1       7.063   4.547  13.064  0.00  0.00    +0.000 F 
ATOM     31  C   UNL     1       7.486   4.954  15.373  0.00  0.00    +0.000 A 
ATOM     32  C   UNL     1       7.032   4.980  16.695  0.00  0.00    +0.000 A 
ENDBRANCH  25  26
ENDBRANCH   4  25
TORSDOF 8
ENDMDL
MODEL 9
REMARK VINA RESULT:      -7.9      0.630      1.563
REMARK  Name = 
REMARK  10 active torsions:
REMARK  status: ('A' for Active; 'I' for Inactive)
REMARK    1  A    between atoms: C_1  and  C_2
REMARK    2  A    between atoms: C_2  and  C_3
REMARK    3  A    between atoms: C_2  and  C_4
REMARK    4  A    between atoms: C_4  and  O_5
REMARK    5  A    between atoms: O_5  and  C_6
REMARK    6  A    between atoms: C_9  and  C_10
REMARK    7  A    between atoms: C_10  and  N_11
REMARK    8  A    between atoms: N_14  and  C_15
REMARK    9  A    between atoms: N_14  and  C_23
REMARK   10  A    between atoms: C_15  and  C_16
REMARK                            x       y       z     vdW  Elec       q    Type
REMARK                         _______ _______ _______ _____ _____    ______ ____
ROOT
ATOM      1  N   UNL     1       2.471   6.871  18.650  0.00  0.00    +0.000 N 
ATOM      2  C   UNL     1       3.703   6.317  18.414  0.00  0.00    +0.000 C 
ATOM      3  O   UNL     1       4.504   6.989  17.768  0.00  0.00    +0.000 OA
ATOM      4  N   UNL     1       4.080   5.043  18.842  0.00  0.00    +0.000 N 
ATOM      5  H   UNL     1       1.783   6.399  19.235  0.00  0.00    +0.000 HD
ENDROOT
BRANCH   4   6
ATOM      6  C   UNL     1       3.181   4.153  19.660  0.00  0.00    +0.000 C 
ATOM      7  C   UNL     1       3.733   2.715  19.972  0.00  0.00    +0.000 C 
ATOM      8  C   UNL     1       3.739   1.797  18.714  0.00  0.00    +0.000 C 
ATOM      9  N   UNL     1       2.397   1.681  18.134  0.00  0.00    +0.000 NA
ATOM     10  C   UNL     1       1.845   2.999  17.801  0.00  0.00    +0.000 C 
ATOM     11  C   UNL     1       1.773   3.890  19.042  0.00  0.00    +0.000 C 
ATOM     12  H   UNL     1       1.763   1.198  18.813  0.00  0.00    +0.000 HD
ENDBRANCH   4   6
BRANCH   1  13
ATOM     13  C   UNL     1       2.034   8.128  18.046  0.00  0.00    +0.000 C 
BRANCH  13  17
ATOM     14  C   UNL     1       0.669  11.094  20.902  0.00  0.00    +0.000 A 
ATOM     15  C   UNL     1       0.836   9.756  21.320  0.00  0.00    +0.000 A 
ATOM     16  C   UNL     1       1.255   8.777  20.398  0.00  0.00    +0.000 A 
ATOM     17  C   UNL     1       1.523   9.131  19.060  0.00  0.00    +0.000 A 
ATOM     18  C   UNL     1       1.366  10.461  18.664  0.00  0.00    +0.000 A 
ATOM     19  C   UNL     1       0.933  11.425  19.571  0.00  0.00    +0.000 A 
BRANCH  14  20
ATOM     20  O   UNL     1       0.260  12.098  21.723  0.00  0.00    +0.000 OA
BRANCH  20  21
ATOM     21  C   UNL     1      -0.742  13.022  21.494  0.00  0.00    +0.000 C 
BRANCH  21  23
ATOM     22  C   UNL     1      -2.361  11.971  23.153  0.00  0.00    +0.000 C 
ATOM     23  C   UNL     1      -2.131  12.378  21.687  0.00  0.00    +0.000 C 
ATOM     24  C   UNL     1      -3.231  13.347  21.241  0.00  0.00    +0.000 C 
ENDBRANCH  21  23
ENDBRANCH  20  21
ENDBRANCH  14  20
ENDBRANCH  13  17
ENDBRANCH   1  13
BRANCH   4  25
ATOM     25  C   UNL     1       5.479   4.648  18.558  0.00  0.00    +0.000 C 
BRANCH  25  26
ATOM     26  C   UNL     1       5.844   4.555  17.084  0.00  0.00    +0.000 A 
ATOM     27  C   UNL     1       7.064   5.011  16.542  0.00  0.00    +0.000 A 
ATOM     28  C   UNL     1       7.331   4.872  15.178  0.00  0.00    +0.000 A 
ATOM     29  C   UNL     1       6.379   4.305  14.330  0.00  0.00    +0.000 A 
ATOM     30  F   UNL     1       6.640   4.179  13.006  0.00  0.00    +0.000 F 
ATOM     31  C   UNL     1       5.157   3.871  14.846  0.00  0.00    +0.000 A 
ATOM     32  C   UNL     1       4.894   3.987  16.214  0.00  0.00    +0.000 A 
ENDBRANCH  25  26
ENDBRANCH   4  25
TORSDOF 8
ENDMDL
