MODEL 1
REMARK VINA RESULT:      -7.3      0.000      0.000
REMARK  Name = 
REMARK  5 active torsions:
REMARK  status: ('A' for Active; 'I' for Inactive)
REMARK    1  A    between atoms: C_1  and  C_2
REMARK    2  A    between atoms: C_2  and  O_3
REMARK    3  A    between atoms: C_2  and  C_12
REMARK    4  A    between atoms: O_3  and  C_4
REMARK    5  A    between atoms: C_4  and  C_6
REMARK                            x       y       z     vdW  Elec       q    Type
REMARK                         _______ _______ _______ _____ _____    ______ ____
ROOT
ATOM      1  C   UNL     1       4.540   3.540  18.803  0.00  0.00    +0.000 C 
ATOM      2  C   UNL     1       5.352   4.603  18.058  0.00  0.00    +0.000 C 
ENDROOT
BRANCH   2   3
ATOM      3  C   UNL     1       4.560   5.922  18.055  0.00  0.00    +0.000 C 
ATOM      4  O   UNL     1       4.957   6.893  17.410  0.00  0.00    +0.000 OA
ATOM      5  N   UNL     1       3.389   5.905  18.786  0.00  0.00    +0.000 N 
ATOM      6  C   UNL     1       2.578   7.040  18.891  0.00  0.00    +0.000 A 
ATOM      7  C   UNL     1       2.302   7.839  17.780  0.00  0.00    +0.000 A 
ATOM      8  C   UNL     1       1.590   9.030  17.956  0.00  0.00    +0.000 A 
ATOM      9  C   UNL     1       1.188   9.382  19.233  0.00  0.00    +0.000 A 
ATOM     10 CL   UNL     1       0.397  10.875  19.516  0.00  0.00    +0.000 Cl
ATOM     11  C   UNL     1       1.464   8.503  20.268  0.00  0.00    +0.000 A 
ATOM     12  N   UNL     1       2.113   7.314  20.125  0.00  0.00    +0.000 NA
ATOM     13  H   UNL     1       3.373   5.298  19.596  0.00  0.00    +0.000 HD
ENDBRANCH   2   3
BRANCH   2  14
ATOM     14  O   UNL     1       5.716   4.128  16.755  0.00  0.00    +0.000 OA
BRANCH  14  15
ATOM     15  C   UNL     1       6.923   4.599  16.323  0.00  0.00    +0.000 C 
ATOM     16  O   UNL     1       7.834   4.967  17.054  0.00  0.00    +0.000 OA
BRANCH  15  17
ATOM     17  C   UNL     1       7.005   4.612  14.835  0.00  0.00    +0.000 C 
ATOM     18  C   UNL     1       6.182   3.782  14.183  0.00  0.00    +0.000 C 
ATOM     19  O   UNL     1       6.077   3.651  12.832  0.00  0.00    +0.000 OA
ATOM     20  C   UNL     1       7.131   4.259  12.099  0.00  0.00    +0.000 C 
ATOM     21  C   UNL     1       7.935   5.365  12.791  0.00  0.00    +0.000 C 
ATOM     22  O   UNL     1       7.887   5.459  14.213  0.00  0.00    +0.000 OA
ENDBRANCH  15  17
ENDBRANCH  14  15
ENDBRANCH   2  14
TORSDOF 4
ENDMDL
MODEL 2
REMARK VINA RESULT:      -7.3      1.889      2.888
REMARK  Name = 
REMARK  5 active torsions:
REMARK  status: ('A' for Active; 'I' for Inactive)
REMARK    1  A    between atoms: C_1  and  C_2
REMARK    2  A    between atoms: C_2  and  O_3
REMARK    3  A    between atoms: C_2  and  C_12
REMARK    4  A    between atoms: O_3  and  C_4
REMARK    5  A    between atoms: C_4  and  C_6
REMARK                            x       y       z     vdW  Elec       q    Type
REMARK                         _______ _______ _______ _____ _____    ______ ____
ROOT
ATOM      1  C   UNL     1       2.684   2.957  20.641  0.00  0.00    +0.000 C 
ATOM      2  C   UNL     1       3.436   4.205  20.169  0.00  0.00    +0.000 C 
ENDROOT
BRANCH   2   3
ATOM      3  C   UNL     1       2.470   5.402  20.185  0.00  0.00    +0.000 C 
ATOM      4  O   UNL     1       1.356   5.306  20.702  0.00  0.00    +0.000 OA
ATOM      5  N   UNL     1       2.961   6.561  19.618  0.00  0.00    +0.000 N 
ATOM      6  C   UNL     1       2.185   7.723  19.543  0.00  0.00    +0.000 A 
ATOM      7  C   UNL     1       1.408   8.147  20.622  0.00  0.00    +0.000 A 
ATOM      8  C   UNL     1       0.555   9.243  20.459  0.00  0.00    +0.000 A 
ATOM      9  C   UNL     1       0.502   9.868  19.225  0.00  0.00    +0.000 A 
ATOM     10 CL   UNL     1      -0.595  11.153  18.946  0.00  0.00    +0.000 Cl
ATOM     11  C   UNL     1       1.345   9.409  18.226  0.00  0.00    +0.000 A 
ATOM     12  N   UNL     1       2.223   8.375  18.365  0.00  0.00    +0.000 NA
ATOM     13  H   UNL     1       3.623   6.447  18.861  0.00  0.00    +0.000 HD
ENDBRANCH   2   3
BRANCH   2  14
ATOM     14  O   UNL     1       4.056   3.962  18.900  0.00  0.00    +0.000 OA
BRANCH  14  15
ATOM     15  C   UNL     1       5.307   4.500  18.796  0.00  0.00    +0.000 C 
ATOM     16  O   UNL     1       5.959   4.944  19.732  0.00  0.00    +0.000 OA
BRANCH  15  17
ATOM     17  C   UNL     1       5.795   4.483  17.387  0.00  0.00    +0.000 C 
ATOM     18  C   UNL     1       7.121   4.555  17.214  0.00  0.00    +0.000 C 
ATOM     19  O   UNL     1       7.777   4.532  16.021  0.00  0.00    +0.000 OA
ATOM     20  C   UNL     1       6.943   4.721  14.887  0.00  0.00    +0.000 C 
ATOM     21  C   UNL     1       5.447   4.429  15.046  0.00  0.00    +0.000 C 
ATOM     22  O   UNL     1       4.893   4.384  16.359  0.00  0.00    +0.000 OA
ENDBRANCH  15  17
ENDBRANCH  14  15
ENDBRANCH   2  14
TORSDOF 4
ENDMDL
MODEL 3
REMARK VINA RESULT:      -7.2      2.039      3.138
REMARK  Name = 
REMARK  5 active torsions:
REMARK  status: ('A' for Active; 'I' for Inactive)
REMARK    1  A    between atoms: C_1  and  C_2
REMARK    2  A    between atoms: C_2  and  O_3
REMARK    3  A    between atoms: C_2  and  C_12
REMARK    4  A    between atoms: O_3  and  C_4
REMARK    5  A    between atoms: C_4  and  C_6
REMARK                            x       y       z     vdW  Elec       q    Type
REMARK                         _______ _______ _______ _____ _____    ______ ____
ROOT
ATOM      1  C   UNL     1       2.026   4.262  18.095  0.00  0.00    +0.000 C 
ATOM      2  C   UNL     1       2.930   4.879  19.166  0.00  0.00    +0.000 C 
ENDROOT
BRANCH   2   3
ATOM      3  C   UNL     1       2.114   5.902  19.975  0.00  0.00    +0.000 C 
ATOM      4  O   UNL     1       1.381   5.537  20.895  0.00  0.00    +0.000 OA
ATOM      5  N   UNL     1       2.300   7.221  19.611  0.00  0.00    +0.000 N 
ATOM      6  C   UNL     1       1.606   8.258  20.246  0.00  0.00    +0.000 A 
ATOM      7  C   UNL     1       1.448   8.281  21.632  0.00  0.00    +0.000 A 
ATOM      8  C   UNL     1       0.644   9.269  22.210  0.00  0.00    +0.000 A 
ATOM      9  C   UNL     1       0.022  10.189  21.383  0.00  0.00    +0.000 A 
ATOM     10 CL   UNL     1      -1.049  11.358  22.031  0.00  0.00    +0.000 Cl
ATOM     11  C   UNL     1       0.275  10.118  20.023  0.00  0.00    +0.000 A 
ATOM     12  N   UNL     1       1.091   9.199  19.432  0.00  0.00    +0.000 NA
ATOM     13  H   UNL     1       2.518   7.393  18.638  0.00  0.00    +0.000 HD
ENDBRANCH   2   3
BRANCH   2  14
ATOM     14  O   UNL     1       4.119   5.411  18.568  0.00  0.00    +0.000 OA
BRANCH  14  15
ATOM     15  C   UNL     1       5.135   4.503  18.482  0.00  0.00    +0.000 C 
ATOM     16  O   UNL     1       5.519   3.790  19.401  0.00  0.00    +0.000 OA
BRANCH  15  17
ATOM     17  C   UNL     1       5.734   4.477  17.117  0.00  0.00    +0.000 C 
ATOM     18  C   UNL     1       7.055   4.679  17.039  0.00  0.00    +0.000 C 
ATOM     19  O   UNL     1       7.803   4.674  15.901  0.00  0.00    +0.000 OA
ATOM     20  C   UNL     1       7.047   4.728  14.700  0.00  0.00    +0.000 C 
ATOM     21  C   UNL     1       5.580   4.288  14.761  0.00  0.00    +0.000 C 
ATOM     22  O   UNL     1       4.931   4.241  16.030  0.00  0.00    +0.000 OA
ENDBRANCH  15  17
ENDBRANCH  14  15
ENDBRANCH   2  14
TORSDOF 4
ENDMDL
MODEL 4
REMARK VINA RESULT:      -7.2      2.349      3.690
REMARK  Name = 
REMARK  5 active torsions:
REMARK  status: ('A' for Active; 'I' for Inactive)
REMARK    1  A    between atoms: C_1  and  C_2
REMARK    2  A    between atoms: C_2  and  O_3
REMARK    3  A    between atoms: C_2  and  C_12
REMARK    4  A    between atoms: O_3  and  C_4
REMARK    5  A    between atoms: C_4  and  C_6
REMARK                            x       y       z     vdW  Elec       q    Type
REMARK                         _______ _______ _______ _____ _____    ______ ____
ROOT
ATOM      1  C   UNL     1       1.975   3.070  21.460  0.00  0.00    +0.000 C 
ATOM      2  C   UNL     1       2.831   4.059  20.663  0.00  0.00    +0.000 C 
ENDROOT
BRANCH   2   3
ATOM      3  C   UNL     1       2.044   5.369  20.488  0.00  0.00    +0.000 C 
ATOM      4  O   UNL     1       0.882   5.463  20.884  0.00  0.00    +0.000 OA
ATOM      5  N   UNL     1       2.746   6.402  19.900  0.00  0.00    +0.000 N 
ATOM      6  C   UNL     1       2.151   7.645  19.659  0.00  0.00    +0.000 A 
ATOM      7  C   UNL     1       1.335   8.255  20.614  0.00  0.00    +0.000 A 
ATOM      8  C   UNL     1       0.663   9.436  20.282  0.00  0.00    +0.000 A 
ATOM      9  C   UNL     1       0.822   9.958  19.009  0.00  0.00    +0.000 A 
ATOM     10 CL   UNL     1      -0.053  11.347  18.521  0.00  0.00    +0.000 Cl
ATOM     11  C   UNL     1       1.689   9.310  18.144  0.00  0.00    +0.000 A 
ATOM     12  N   UNL     1       2.396   8.186  18.450  0.00  0.00    +0.000 NA
ATOM     13  H   UNL     1       3.459   6.139  19.231  0.00  0.00    +0.000 HD
ENDBRANCH   2   3
BRANCH   2  14
ATOM     14  O   UNL     1       3.267   3.462  19.435  0.00  0.00    +0.000 OA
BRANCH  14  15
ATOM     15  C   UNL     1       4.598   3.157  19.422  0.00  0.00    +0.000 C 
ATOM     16  O   UNL     1       5.100   2.187  19.975  0.00  0.00    +0.000 OA
BRANCH  15  17
ATOM     17  C   UNL     1       5.382   4.157  18.642  0.00  0.00    +0.000 C 
ATOM     18  C   UNL     1       4.907   4.477  17.432  0.00  0.00    +0.000 C 
ATOM     19  O   UNL     1       5.451   5.378  16.568  0.00  0.00    +0.000 OA
ATOM     20  C   UNL     1       6.771   5.787  16.898  0.00  0.00    +0.000 C 
ATOM     21  C   UNL     1       7.231   5.607  18.349  0.00  0.00    +0.000 C 
ATOM     22  O   UNL     1       6.517   4.702  19.187  0.00  0.00    +0.000 OA
ENDBRANCH  15  17
ENDBRANCH  14  15
ENDBRANCH   2  14
TORSDOF 4
ENDMDL
MODEL 5
REMARK VINA RESULT:      -7.2      4.009      6.338
REMARK  Name = 
REMARK  5 active torsions:
REMARK  status: ('A' for Active; 'I' for Inactive)
REMARK    1  A    between atoms: C_1  and  C_2
REMARK    2  A    between atoms: C_2  and  O_3
REMARK    3  A    between atoms: C_2  and  C_12
REMARK    4  A    between atoms: O_3  and  C_4
REMARK    5  A    between atoms: C_4  and  C_6
REMARK                            x       y       z     vdW  Elec       q    Type
REMARK                         _______ _______ _______ _____ _____    ______ ____
ROOT
ATOM      1  C   UNL     1       1.501   7.030  20.788  0.00  0.00    +0.000 C 
ATOM      2  C   UNL     1       2.079   5.640  20.505  0.00  0.00    +0.000 C 
ENDROOT
BRANCH   2   3
ATOM      3  C   UNL     1       2.766   5.659  19.129  0.00  0.00    +0.000 C 
ATOM      4  O   UNL     1       2.108   5.805  18.098  0.00  0.00    +0.000 OA
ATOM      5  N   UNL     1       4.141   5.538  19.158  0.00  0.00    +0.000 N 
ATOM      6  C   UNL     1       4.897   5.518  17.980  0.00  0.00    +0.000 A 
ATOM      7  C   UNL     1       4.631   6.401  16.933  0.00  0.00    +0.000 A 
ATOM      8  C   UNL     1       5.330   6.263  15.729  0.00  0.00    +0.000 A 
ATOM      9  C   UNL     1       6.260   5.244  15.613  0.00  0.00    +0.000 A 
ATOM     10 CL   UNL     1       7.072   4.971  14.130  0.00  0.00    +0.000 Cl
ATOM     11  C   UNL     1       6.492   4.444  16.721  0.00  0.00    +0.000 A 
ATOM     12  N   UNL     1       5.864   4.582  17.923  0.00  0.00    +0.000 NA
ATOM     13  H   UNL     1       4.530   4.993  19.917  0.00  0.00    +0.000 HD
ENDBRANCH   2   3
BRANCH   2  14
ATOM     14  O   UNL     1       1.061   4.640  20.644  0.00  0.00    +0.000 OA
BRANCH  14  15
ATOM     15  C   UNL     1       1.528   3.456  21.138  0.00  0.00    +0.000 C 
ATOM     16  O   UNL     1       1.262   3.005  22.245  0.00  0.00    +0.000 OA
BRANCH  15  17
ATOM     17  C   UNL     1       2.413   2.764  20.158  0.00  0.00    +0.000 C 
ATOM     18  C   UNL     1       1.844   2.376  19.010  0.00  0.00    +0.000 C 
ATOM     19  O   UNL     1       2.469   1.751  17.974  0.00  0.00    +0.000 OA
ATOM     20  C   UNL     1       3.760   1.245  18.286  0.00  0.00    +0.000 C 
ATOM     21  C   UNL     1       4.493   1.853  19.487  0.00  0.00    +0.000 C 
ATOM     22  O   UNL     1       3.736   2.571  20.459  0.00  0.00    +0.000 OA
ENDBRANCH  15  17
ENDBRANCH  14  15
ENDBRANCH   2  14
TORSDOF 4
ENDMDL
MODEL 6
REMARK VINA RESULT:      -7.2      3.240      3.598
REMARK  Name = 
REMARK  5 active torsions:
REMARK  status: ('A' for Active; 'I' for Inactive)
REMARK    1  A    between atoms: C_1  and  C_2
REMARK    2  A    between atoms: C_2  and  O_3
REMARK    3  A    between atoms: C_2  and  C_12
REMARK    4  A    between atoms: O_3  and  C_4
REMARK    5  A    between atoms: C_4  and  C_6
REMARK                            x       y       z     vdW  Elec       q    Type
REMARK                         _______ _______ _______ _____ _____    ______ ____
ROOT
ATOM      1  C   UNL     1       7.661   6.153  18.851  0.00  0.00    +0.000 C 
ATOM      2  C   UNL     1       6.838   6.652  17.660  0.00  0.00    +0.000 C 
ENDROOT
BRANCH   2   3
ATOM      3  C   UNL     1       5.433   6.029  17.731  0.00  0.00    +0.000 C 
ATOM      4  O   UNL     1       4.443   6.665  17.367  0.00  0.00    +0.000 OA
ATOM      5  N   UNL     1       5.390   4.728  18.191  0.00  0.00    +0.000 N 
ATOM      6  C   UNL     1       4.178   4.042  18.329  0.00  0.00    +0.000 A 
ATOM      7  C   UNL     1       3.189   4.115  17.347  0.00  0.00    +0.000 A 
ATOM      8  C   UNL     1       1.948   3.514  17.584  0.00  0.00    +0.000 A 
ATOM      9  C   UNL     1       1.738   2.874  18.793  0.00  0.00    +0.000 A 
ATOM     10 CL   UNL     1       0.207   2.207  19.172  0.00  0.00    +0.000 Cl
ATOM     11  C   UNL     1       2.794   2.811  19.689  0.00  0.00    +0.000 A 
ATOM     12  N   UNL     1       4.030   3.343  19.470  0.00  0.00    +0.000 NA
ATOM     13  H   UNL     1       6.103   4.463  18.859  0.00  0.00    +0.000 HD
ENDBRANCH   2   3
BRANCH   2  14
ATOM     14  O   UNL     1       7.536   6.400  16.433  0.00  0.00    +0.000 OA
BRANCH  14  15
ATOM     15  C   UNL     1       7.657   5.071  16.142  0.00  0.00    +0.000 C 
ATOM     16  O   UNL     1       8.032   4.212  16.930  0.00  0.00    +0.000 OA
BRANCH  15  17
ATOM     17  C   UNL     1       7.272   4.782  14.731  0.00  0.00    +0.000 C 
ATOM     18  C   UNL     1       6.271   3.912  14.550  0.00  0.00    +0.000 C 
ATOM     19  O   UNL     1       5.748   3.525  13.354  0.00  0.00    +0.000 OA
ATOM     20  C   UNL     1       6.533   3.885  12.226  0.00  0.00    +0.000 C 
ATOM     21  C   UNL     1       7.533   5.034  12.391  0.00  0.00    +0.000 C 
ATOM     22  O   UNL     1       7.932   5.411  13.706  0.00  0.00    +0.000 OA
ENDBRANCH  15  17
ENDBRANCH  14  15
ENDBRANCH   2  14
TORSDOF 4
ENDMDL
MODEL 7
REMARK VINA RESULT:      -7.2      3.994      6.331
REMARK  Name = 
REMARK  5 active torsions:
REMARK  status: ('A' for Active; 'I' for Inactive)
REMARK    1  A    between atoms: C_1  and  C_2
REMARK    2  A    between atoms: C_2  and  O_3
REMARK    3  A    between atoms: C_2  and  C_12
REMARK    4  A    between atoms: O_3  and  C_4
REMARK    5  A    between atoms: C_4  and  C_6
REMARK                            x       y       z     vdW  Elec       q    Type
REMARK                         _______ _______ _______ _____ _____    ______ ____
ROOT
ATOM      1  C   UNL     1       1.559   7.130  20.835  0.00  0.00    +0.000 C 
ATOM      2  C   UNL     1       2.127   5.734  20.564  0.00  0.00    +0.000 C 
ENDROOT
BRANCH   2   3
ATOM      3  C   UNL     1       2.797   5.730  19.179  0.00  0.00    +0.000 C 
ATOM      4  O   UNL     1       2.127   5.865  18.155  0.00  0.00    +0.000 OA
ATOM      5  N   UNL     1       4.172   5.603  19.193  0.00  0.00    +0.000 N 
ATOM      6  C   UNL     1       4.913   5.563  18.006  0.00  0.00    +0.000 A 
ATOM      7  C   UNL     1       4.638   6.433  16.950  0.00  0.00    +0.000 A 
ATOM      8  C   UNL     1       5.322   6.275  15.740  0.00  0.00    +0.000 A 
ATOM      9  C   UNL     1       6.245   5.250  15.626  0.00  0.00    +0.000 A 
ATOM     10 CL   UNL     1       7.037   4.952  14.138  0.00  0.00    +0.000 Cl
ATOM     11  C   UNL     1       6.487   4.465  16.742  0.00  0.00    +0.000 A 
ATOM     12  N   UNL     1       5.875   4.622  17.950  0.00  0.00    +0.000 NA
ATOM     13  H   UNL     1       4.568   5.067  19.955  0.00  0.00    +0.000 HD
ENDBRANCH   2   3
BRANCH   2  14
ATOM     14  O   UNL     1       1.107   4.741  20.730  0.00  0.00    +0.000 OA
BRANCH  14  15
ATOM     15  C   UNL     1       1.592   3.523  21.114  0.00  0.00    +0.000 C 
ATOM     16  O   UNL     1       1.499   3.056  22.242  0.00  0.00    +0.000 OA
BRANCH  15  17
ATOM     17  C   UNL     1       2.258   2.817  19.983  0.00  0.00    +0.000 C 
ATOM     18  C   UNL     1       3.503   2.375  20.203  0.00  0.00    +0.000 C 
ATOM     19  O   UNL     1       4.280   1.689  19.320  0.00  0.00    +0.000 OA
ATOM     20  C   UNL     1       3.802   1.702  17.983  0.00  0.00    +0.000 C 
ATOM     21  C   UNL     1       2.316   2.003  17.760  0.00  0.00    +0.000 C 
ATOM     22  O   UNL     1       1.583   2.641  18.802  0.00  0.00    +0.000 OA
ENDBRANCH  15  17
ENDBRANCH  14  15
ENDBRANCH   2  14
TORSDOF 4
ENDMDL
MODEL 8
REMARK VINA RESULT:      -7.2      1.850      3.079
REMARK  Name = 
REMARK  5 active torsions:
REMARK  status: ('A' for Active; 'I' for Inactive)
REMARK    1  A    between atoms: C_1  and  C_2
REMARK    2  A    between atoms: C_2  and  O_3
REMARK    3  A    between atoms: C_2  and  C_12
REMARK    4  A    between atoms: O_3  and  C_4
REMARK    5  A    between atoms: C_4  and  C_6
REMARK                            x       y       z     vdW  Elec       q    Type
REMARK                         _______ _______ _______ _____ _____    ______ ____
ROOT
ATOM      1  C   UNL     1       3.579   2.698  17.654  0.00  0.00    +0.000 C 
ATOM      2  C   UNL     1       4.159   4.100  17.442  0.00  0.00    +0.000 C 
ENDROOT
BRANCH   2   3
ATOM      3  C   UNL     1       3.206   5.131  18.071  0.00  0.00    +0.000 C 
ATOM      4  O   UNL     1       2.234   4.768  18.734  0.00  0.00    +0.000 OA
ATOM      5  N   UNL     1       3.549   6.452  17.860  0.00  0.00    +0.000 N 
ATOM      6  C   UNL     1       2.763   7.498  18.355  0.00  0.00    +0.000 A 
ATOM      7  C   UNL     1       2.236   7.460  19.647  0.00  0.00    +0.000 A 
ATOM      8  C   UNL     1       1.356   8.468  20.055  0.00  0.00    +0.000 A 
ATOM      9  C   UNL     1       1.027   9.468  19.156  0.00  0.00    +0.000 A 
ATOM     10 CL   UNL     1      -0.119  10.671  19.572  0.00  0.00    +0.000 Cl
ATOM     11  C   UNL     1       1.636   9.451  17.911  0.00  0.00    +0.000 A 
ATOM     12  N   UNL     1       2.534   8.512  17.499  0.00  0.00    +0.000 NA
ATOM     13  H   UNL     1       4.031   6.660  16.995  0.00  0.00    +0.000 HD
ENDBRANCH   2   3
BRANCH   2  14
ATOM     14  O   UNL     1       4.435   4.319  16.053  0.00  0.00    +0.000 OA
BRANCH  14  15
ATOM     15  C   UNL     1       5.767   4.280  15.753  0.00  0.00    +0.000 C 
ATOM     16  O   UNL     1       6.260   3.637  14.834  0.00  0.00    +0.000 OA
BRANCH  15  17
ATOM     17  C   UNL     1       6.564   5.126  16.686  0.00  0.00    +0.000 C 
ATOM     18  C   UNL     1       7.271   4.480  17.622  0.00  0.00    +0.000 C 
ATOM     19  O   UNL     1       8.080   5.054  18.556  0.00  0.00    +0.000 OA
ATOM     20  C   UNL     1       7.922   6.459  18.688  0.00  0.00    +0.000 C 
ATOM     21  C   UNL     1       7.300   7.220  17.511  0.00  0.00    +0.000 C 
ATOM     22  O   UNL     1       6.552   6.490  16.542  0.00  0.00    +0.000 OA
ENDBRANCH  15  17
ENDBRANCH  14  15
ENDBRANCH   2  14
TORSDOF 4
ENDMDL
MODEL 9
REMARK VINA RESULT:      -7.1      2.822      3.801
REMARK  Name = 
REMARK  5 active torsions:
REMARK  status: ('A' for Active; 'I' for Inactive)
REMARK    1  A    between atoms: C_1  and  C_2
REMARK    2  A    between atoms: C_2  and  O_3
REMARK    3  A    between atoms: C_2  and  C_12
REMARK    4  A    between atoms: O_3  and  C_4
REMARK    5  A    between atoms: C_4  and  C_6
REMARK                            x       y       z     vdW  Elec       q    Type
REMARK                         _______ _______ _______ _____ _____    ______ ____
ROOT
ATOM      1  C   UNL     1       1.559   2.679  18.502  0.00  0.00    +0.000 C 
ATOM      2  C   UNL     1       2.581   3.545  19.245  0.00  0.00    +0.000 C 
ENDROOT
BRANCH   2   3
ATOM      3  C   UNL     1       1.883   4.823  19.740  0.00  0.00    +0.000 C 
ATOM      4  O   UNL     1       0.863   4.757  20.427  0.00  0.00    +0.000 OA
ATOM      5  N   UNL     1       2.502   6.005  19.386  0.00  0.00    +0.000 N 
ATOM      6  C   UNL     1       1.967   7.246  19.750  0.00  0.00    +0.000 A 
ATOM      7  C   UNL     1       1.460   7.470  21.031  0.00  0.00    +0.000 A 
ATOM      8  C   UNL     1       0.824   8.684  21.310  0.00  0.00    +0.000 A 
ATOM      9  C   UNL     1       0.710   9.624  20.300  0.00  0.00    +0.000 A 
ATOM     10 CL   UNL     1      -0.142  11.086  20.563  0.00  0.00    +0.000 Cl
ATOM     11  C   UNL     1       1.287   9.335  19.074  0.00  0.00    +0.000 A 
ATOM     12  N   UNL     1       1.954   8.183  18.782  0.00  0.00    +0.000 NA
ATOM     13  H   UNL     1       3.007   6.004  18.509  0.00  0.00    +0.000 HD
ENDBRANCH   2   3
BRANCH   2  14
ATOM     14  O   UNL     1       3.728   3.780  18.417  0.00  0.00    +0.000 OA
BRANCH  14  15
ATOM     15  C   UNL     1       4.913   3.652  19.083  0.00  0.00    +0.000 C 
ATOM     16  O   UNL     1       5.189   2.742  19.855  0.00  0.00    +0.000 OA
BRANCH  15  17
ATOM     17  C   UNL     1       5.849   4.765  18.756  0.00  0.00    +0.000 C 
ATOM     18  C   UNL     1       5.508   5.550  17.726  0.00  0.00    +0.000 C 
ATOM     19  O   UNL     1       6.203   6.630  17.275  0.00  0.00    +0.000 OA
ATOM     20  C   UNL     1       7.523   6.737  17.788  0.00  0.00    +0.000 C 
ATOM     21  C   UNL     1       7.842   5.998  19.093  0.00  0.00    +0.000 C 
ATOM     22  O   UNL     1       6.980   4.943  19.511  0.00  0.00    +0.000 OA
ENDBRANCH  15  17
ENDBRANCH  14  15
ENDBRANCH   2  14
TORSDOF 4
ENDMDL
