MODEL 1
REMARK VINA RESULT:      -8.7      0.000      0.000
REMARK  Name = 
REMARK  6 active torsions:
REMARK  status: ('A' for Active; 'I' for Inactive)
REMARK    1  A    between atoms: C_1  and  C_2
REMARK    2  A    between atoms: C_2  and  C_3
REMARK    3  A    between atoms: C_5  and  C_6
REMARK    4  A    between atoms: C_11  and  S_12
REMARK    5  A    between atoms: S_12  and  C_13
REMARK    6  A    between atoms: C_17  and  C_18
REMARK                            x       y       z     vdW  Elec       q    Type
REMARK                         _______ _______ _______ _____ _____    ______ ____
ROOT
ATOM      1  C   UNL     1       3.290   4.023  19.643  0.00  0.00    +0.000 A 
ATOM      2  S   UNL     1       4.427   3.347  18.554  0.00  0.00    +0.000 S 
ATOM      3  C   UNL     1       4.337   4.674  17.458  0.00  0.00    +0.000 A 
ATOM      4  C   UNL     1       3.370   5.553  17.905  0.00  0.00    +0.000 A 
ATOM      5  C   UNL     1       2.835   5.261  19.209  0.00  0.00    +0.000 A 
ENDROOT
BRANCH   5   6
ATOM      6  C   UNL     1       1.968   6.157  19.995  0.00  0.00    +0.000 C 
ATOM      7  O   UNL     1       1.276   5.715  20.904  0.00  0.00    +0.000 OA
ATOM      8  N   UNL     1       2.003   7.470  19.572  0.00  0.00    +0.000 N 
ATOM      9  C   UNL     1       1.374   8.461  20.275  0.00  0.00    +0.000 A 
ATOM     10  N   UNL     1       0.924   8.431  21.502  0.00  0.00    +0.000 NA
ATOM     11  C   UNL     1       0.322   9.627  21.795  0.00  0.00    +0.000 A 
ATOM     12  C   UNL     1       0.295  10.546  20.764  0.00  0.00    +0.000 A 
ATOM     13  S   UNL     1       1.160   9.936  19.425  0.00  0.00    +0.000 S 
ATOM     14  C   UNL     1      -0.424  11.853  20.806  0.00  0.00    +0.000 C 
ATOM     15  C   UNL     1      -0.778  12.224  22.261  0.00  0.00    +0.000 C 
ATOM     16  C   UNL     1      -1.300  11.021  23.069  0.00  0.00    +0.000 C 
ATOM     17  C   UNL     1      -0.265   9.889  23.137  0.00  0.00    +0.000 C 
ATOM     18  H   UNL     1       2.423   7.724  18.694  0.00  0.00    +0.000 HD
ENDBRANCH   5   6
BRANCH   3  19
ATOM     19  C   UNL     1       5.221   4.718  16.261  0.00  0.00    +0.000 A 
ATOM     20  C   UNL     1       4.936   3.831  15.194  0.00  0.00    +0.000 A 
ATOM     21  C   UNL     1       5.734   3.751  14.050  0.00  0.00    +0.000 A 
ATOM     22  C   UNL     1       6.843   4.570  13.925  0.00  0.00    +0.000 A 
ATOM     23  C   UNL     1       7.147   5.475  14.938  0.00  0.00    +0.000 A 
ATOM     24  C   UNL     1       6.349   5.561  16.097  0.00  0.00    +0.000 A 
BRANCH  24  25
ATOM     25  S   UNL     1       6.837   6.744  17.343  0.00  0.00    +0.000 S 
ATOM     26  C   UNL     1       7.347   5.862  18.789  0.00  0.00    +0.000 C 
ATOM     27  O   UNL     1       8.049   7.387  16.860  0.00  0.00    +0.000 OA
ATOM     28  O   UNL     1       5.658   7.498  17.707  0.00  0.00    +0.000 OA
ENDBRANCH  24  25
ENDBRANCH   3  19
BRANCH   1  30
ATOM     29  C   UNL     1       1.652   2.421  20.688  0.00  0.00    +0.000 C 
ATOM     30  C   UNL     1       2.919   3.241  20.876  0.00  0.00    +0.000 C 
ENDBRANCH   1  30
TORSDOF 4
ENDMDL
MODEL 2
REMARK VINA RESULT:      -8.7      0.972      1.194
REMARK  Name = 
REMARK  6 active torsions:
REMARK  status: ('A' for Active; 'I' for Inactive)
REMARK    1  A    between atoms: C_1  and  C_2
REMARK    2  A    between atoms: C_2  and  C_3
REMARK    3  A    between atoms: C_5  and  C_6
REMARK    4  A    between atoms: C_11  and  S_12
REMARK    5  A    between atoms: S_12  and  C_13
REMARK    6  A    between atoms: C_17  and  C_18
REMARK                            x       y       z     vdW  Elec       q    Type
REMARK                         _______ _______ _______ _____ _____    ______ ____
ROOT
ATOM      1  C   UNL     1       2.643   3.782  19.254  0.00  0.00    +0.000 A 
ATOM      2  S   UNL     1       3.800   3.078  18.205  0.00  0.00    +0.000 S 
ATOM      3  C   UNL     1       4.170   4.570  17.427  0.00  0.00    +0.000 A 
ATOM      4  C   UNL     1       3.331   5.549  17.923  0.00  0.00    +0.000 A 
ATOM      5  C   UNL     1       2.526   5.149  19.047  0.00  0.00    +0.000 A 
ENDROOT
BRANCH   5   6
ATOM      6  C   UNL     1       1.726   6.058  19.889  0.00  0.00    +0.000 C 
ATOM      7  O   UNL     1       1.065   5.622  20.824  0.00  0.00    +0.000 OA
ATOM      8  N   UNL     1       1.783   7.377  19.487  0.00  0.00    +0.000 N 
ATOM      9  C   UNL     1       1.220   8.373  20.235  0.00  0.00    +0.000 A 
ATOM     10  N   UNL     1       0.829   8.336  21.482  0.00  0.00    +0.000 NA
ATOM     11  C   UNL     1       0.280   9.544  21.824  0.00  0.00    +0.000 A 
ATOM     12  C   UNL     1       0.233  10.482  20.810  0.00  0.00    +0.000 A 
ATOM     13  S   UNL     1       1.013   9.869  19.421  0.00  0.00    +0.000 S 
ATOM     14  C   UNL     1      -0.441  11.810  20.908  0.00  0.00    +0.000 C 
ATOM     15  C   UNL     1      -0.713  12.166  22.385  0.00  0.00    +0.000 C 
ATOM     16  C   UNL     1      -1.233  10.965  23.197  0.00  0.00    +0.000 C 
ATOM     17  C   UNL     1      -0.232   9.801  23.197  0.00  0.00    +0.000 C 
ATOM     18  H   UNL     1       2.167   7.633  18.593  0.00  0.00    +0.000 HD
ENDBRANCH   5   6
BRANCH   3  19
ATOM     19  C   UNL     1       5.244   4.633  16.397  0.00  0.00    +0.000 A 
ATOM     20  C   UNL     1       4.901   4.310  15.062  0.00  0.00    +0.000 A 
ATOM     21  C   UNL     1       5.842   4.282  14.029  0.00  0.00    +0.000 A 
ATOM     22  C   UNL     1       7.164   4.592  14.296  0.00  0.00    +0.000 A 
ATOM     23  C   UNL     1       7.542   4.941  15.589  0.00  0.00    +0.000 A 
ATOM     24  C   UNL     1       6.600   4.969  16.637  0.00  0.00    +0.000 A 
BRANCH  24  25
ATOM     25  S   UNL     1       7.192   5.413  18.263  0.00  0.00    +0.000 S 
ATOM     26  C   UNL     1       7.896   7.034  18.183  0.00  0.00    +0.000 C 
ATOM     27  O   UNL     1       6.020   5.564  19.110  0.00  0.00    +0.000 OA
ATOM     28  O   UNL     1       8.269   4.506  18.592  0.00  0.00    +0.000 OA
ENDBRANCH  24  25
ENDBRANCH   3  19
BRANCH   1  30
ATOM     29  C   UNL     1       2.666   2.710  21.533  0.00  0.00    +0.000 C 
ATOM     30  C   UNL     1       1.912   2.889  20.224  0.00  0.00    +0.000 C 
ENDBRANCH   1  30
TORSDOF 4
ENDMDL
MODEL 3
REMARK VINA RESULT:      -8.4      3.355      5.030
REMARK  Name = 
REMARK  6 active torsions:
REMARK  status: ('A' for Active; 'I' for Inactive)
REMARK    1  A    between atoms: C_1  and  C_2
REMARK    2  A    between atoms: C_2  and  C_3
REMARK    3  A    between atoms: C_5  and  C_6
REMARK    4  A    between atoms: C_11  and  S_12
REMARK    5  A    between atoms: S_12  and  C_13
REMARK    6  A    between atoms: C_17  and  C_18
REMARK                            x       y       z     vdW  Elec       q    Type
REMARK                         _______ _______ _______ _____ _____    ______ ____
ROOT
ATOM      1  C   UNL     1       1.456   8.215  19.963  0.00  0.00    +0.000 A 
ATOM      2  S   UNL     1       2.359   6.763  19.866  0.00  0.00    +0.000 S 
ATOM      3  C   UNL     1       2.927   7.090  18.272  0.00  0.00    +0.000 A 
ATOM      4  C   UNL     1       2.335   8.253  17.820  0.00  0.00    +0.000 A 
ATOM      5  C   UNL     1       1.577   8.975  18.808  0.00  0.00    +0.000 A 
ENDROOT
BRANCH   5   6
ATOM      6  C   UNL     1       1.042  10.339  18.642  0.00  0.00    +0.000 C 
ATOM      7  O   UNL     1      -0.144  10.517  18.394  0.00  0.00    +0.000 OA
ATOM      8  N   UNL     1       2.000  11.325  18.754  0.00  0.00    +0.000 N 
ATOM      9  C   UNL     1       1.660  12.649  18.771  0.00  0.00    +0.000 A 
ATOM     10  N   UNL     1       0.484  13.187  18.971  0.00  0.00    +0.000 NA
ATOM     11  C   UNL     1       0.582  14.549  18.859  0.00  0.00    +0.000 A 
ATOM     12  C   UNL     1       1.838  15.030  18.542  0.00  0.00    +0.000 A 
ATOM     13  S   UNL     1       2.955  13.741  18.502  0.00  0.00    +0.000 S 
ATOM     14  C   UNL     1       2.152  16.456  18.234  0.00  0.00    +0.000 C 
ATOM     15  C   UNL     1       1.006  17.373  18.712  0.00  0.00    +0.000 C 
ATOM     16  C   UNL     1      -0.386  16.795  18.395  0.00  0.00    +0.000 C 
ATOM     17  C   UNL     1      -0.601  15.429  19.062  0.00  0.00    +0.000 C 
ATOM     18  H   UNL     1       2.981  11.103  18.744  0.00  0.00    +0.000 HD
ENDBRANCH   5   6
BRANCH   3  19
ATOM     19  C   UNL     1       3.894   6.165  17.617  0.00  0.00    +0.000 A 
ATOM     20  C   UNL     1       5.088   6.718  17.094  0.00  0.00    +0.000 A 
ATOM     21  C   UNL     1       6.035   5.950  16.411  0.00  0.00    +0.000 A 
ATOM     22  C   UNL     1       5.826   4.592  16.240  0.00  0.00    +0.000 A 
ATOM     23  C   UNL     1       4.678   4.002  16.760  0.00  0.00    +0.000 A 
ATOM     24  C   UNL     1       3.716   4.769  17.448  0.00  0.00    +0.000 A 
BRANCH  24  25
ATOM     25  S   UNL     1       2.271   3.916  18.061  0.00  0.00    +0.000 S 
ATOM     26  C   UNL     1       2.409   2.203  17.644  0.00  0.00    +0.000 C 
ATOM     27  O   UNL     1       2.350   3.947  19.513  0.00  0.00    +0.000 OA
ATOM     28  O   UNL     1       1.128   4.431  17.340  0.00  0.00    +0.000 OA
ENDBRANCH  24  25
ENDBRANCH   3  19
BRANCH   1  30
ATOM     29  C   UNL     1       1.470   9.247  22.260  0.00  0.00    +0.000 C 
ATOM     30  C   UNL     1       0.664   8.490  21.216  0.00  0.00    +0.000 C 
ENDBRANCH   1  30
TORSDOF 4
ENDMDL
MODEL 4
REMARK VINA RESULT:      -8.0      3.293      9.661
REMARK  Name = 
REMARK  6 active torsions:
REMARK  status: ('A' for Active; 'I' for Inactive)
REMARK    1  A    between atoms: C_1  and  C_2
REMARK    2  A    between atoms: C_2  and  C_3
REMARK    3  A    between atoms: C_5  and  C_6
REMARK    4  A    between atoms: C_11  and  S_12
REMARK    5  A    between atoms: S_12  and  C_13
REMARK    6  A    between atoms: C_17  and  C_18
REMARK                            x       y       z     vdW  Elec       q    Type
REMARK                         _______ _______ _______ _____ _____    ______ ____
ROOT
ATOM      1  C   UNL     1      -0.972  10.387  18.276  0.00  0.00    +0.000 A 
ATOM      2  S   UNL     1      -1.933  11.420  19.248  0.00  0.00    +0.000 S 
ATOM      3  C   UNL     1      -0.719  11.595  20.459  0.00  0.00    +0.000 A 
ATOM      4  C   UNL     1       0.350  10.783  20.137  0.00  0.00    +0.000 A 
ATOM      5  C   UNL     1       0.279  10.168  18.837  0.00  0.00    +0.000 A 
ENDROOT
BRANCH   5   6
ATOM      6  C   UNL     1       1.381   9.448  18.174  0.00  0.00    +0.000 C 
ATOM      7  O   UNL     1       2.088  10.015  17.350  0.00  0.00    +0.000 OA
ATOM      8  N   UNL     1       1.479   8.123  18.548  0.00  0.00    +0.000 N 
ATOM      9  C   UNL     1       2.528   7.346  18.142  0.00  0.00    +0.000 A 
ATOM     10  N   UNL     1       3.674   7.721  17.636  0.00  0.00    +0.000 NA
ATOM     11  C   UNL     1       4.420   6.614  17.327  0.00  0.00    +0.000 A 
ATOM     12  C   UNL     1       3.810   5.399  17.577  0.00  0.00    +0.000 A 
ATOM     13  S   UNL     1       2.303   5.656  18.336  0.00  0.00    +0.000 S 
ATOM     14  C   UNL     1       4.370   4.069  17.195  0.00  0.00    +0.000 C 
ATOM     15  C   UNL     1       5.873   4.195  16.866  0.00  0.00    +0.000 C 
ATOM     16  C   UNL     1       6.194   5.446  16.028  0.00  0.00    +0.000 C 
ATOM     17  C   UNL     1       5.787   6.737  16.753  0.00  0.00    +0.000 C 
ATOM     18  H   UNL     1       0.742   7.671  19.061  0.00  0.00    +0.000 HD
ENDBRANCH   5   6
BRANCH   3  19
ATOM     19  C   UNL     1      -0.941  12.508  21.615  0.00  0.00    +0.000 A 
ATOM     20  C   UNL     1      -2.009  12.213  22.497  0.00  0.00    +0.000 A 
ATOM     21  C   UNL     1      -2.339  13.034  23.579  0.00  0.00    +0.000 A 
ATOM     22  C   UNL     1      -1.599  14.176  23.826  0.00  0.00    +0.000 A 
ATOM     23  C   UNL     1      -0.524  14.492  23.000  0.00  0.00    +0.000 A 
ATOM     24  C   UNL     1      -0.185  13.671  21.905  0.00  0.00    +0.000 A 
BRANCH  24  25
ATOM     25  S   UNL     1       1.202  14.176  20.900  0.00  0.00    +0.000 S 
ATOM     26  C   UNL     1       1.724  15.782  21.424  0.00  0.00    +0.000 C 
ATOM     27  O   UNL     1       2.311  13.300  21.245  0.00  0.00    +0.000 OA
ATOM     28  O   UNL     1       0.723  14.314  19.542  0.00  0.00    +0.000 OA
ENDBRANCH  24  25
ENDBRANCH   3  19
BRANCH   1  30
ATOM     29  C   UNL     1      -2.606  10.778  16.400  0.00  0.00    +0.000 C 
ATOM     30  C   UNL     1      -1.559   9.849  16.996  0.00  0.00    +0.000 C 
ENDBRANCH   1  30
TORSDOF 4
ENDMDL
MODEL 5
REMARK VINA RESULT:      -7.9      1.698      1.970
REMARK  Name = 
REMARK  6 active torsions:
REMARK  status: ('A' for Active; 'I' for Inactive)
REMARK    1  A    between atoms: C_1  and  C_2
REMARK    2  A    between atoms: C_2  and  C_3
REMARK    3  A    between atoms: C_5  and  C_6
REMARK    4  A    between atoms: C_11  and  S_12
REMARK    5  A    between atoms: S_12  and  C_13
REMARK    6  A    between atoms: C_17  and  C_18
REMARK                            x       y       z     vdW  Elec       q    Type
REMARK                         _______ _______ _______ _____ _____    ______ ____
ROOT
ATOM      1  C   UNL     1       2.382   5.203  19.494  0.00  0.00    +0.000 A 
ATOM      2  S   UNL     1       3.373   4.127  18.603  0.00  0.00    +0.000 S 
ATOM      3  C   UNL     1       4.025   5.373  17.606  0.00  0.00    +0.000 A 
ATOM      4  C   UNL     1       3.396   6.563  17.917  0.00  0.00    +0.000 A 
ATOM      5  C   UNL     1       2.535   6.515  19.069  0.00  0.00    +0.000 A 
ENDROOT
BRANCH   5   6
ATOM      6  C   UNL     1       1.933   7.686  19.732  0.00  0.00    +0.000 C 
ATOM      7  O   UNL     1       2.068   7.857  20.938  0.00  0.00    +0.000 OA
ATOM      8  N   UNL     1       1.209   8.493  18.879  0.00  0.00    +0.000 N 
ATOM      9  C   UNL     1       0.705   9.695  19.293  0.00  0.00    +0.000 A 
ATOM     10  N   UNL     1       1.022  10.390  20.354  0.00  0.00    +0.000 NA
ATOM     11  C   UNL     1       0.241  11.515  20.411  0.00  0.00    +0.000 A 
ATOM     12  C   UNL     1      -0.690  11.643  19.397  0.00  0.00    +0.000 A 
ATOM     13  S   UNL     1      -0.495  10.374  18.272  0.00  0.00    +0.000 S 
ATOM     14  C   UNL     1      -1.735  12.706  19.328  0.00  0.00    +0.000 C 
ATOM     15  C   UNL     1      -1.389  13.861  20.292  0.00  0.00    +0.000 C 
ATOM     16  C   UNL     1      -0.872  13.362  21.654  0.00  0.00    +0.000 C 
ATOM     17  C   UNL     1       0.397  12.511  21.505  0.00  0.00    +0.000 C 
ATOM     18  H   UNL     1       0.962   8.184  17.954  0.00  0.00    +0.000 HD
ENDBRANCH   5   6
BRANCH   3  19
ATOM     19  C   UNL     1       5.085   5.057  16.609  0.00  0.00    +0.000 A 
ATOM     20  C   UNL     1       4.678   4.698  15.301  0.00  0.00    +0.000 A 
ATOM     21  C   UNL     1       5.588   4.329  14.306  0.00  0.00    +0.000 A 
ATOM     22  C   UNL     1       6.944   4.320  14.582  0.00  0.00    +0.000 A 
ATOM     23  C   UNL     1       7.390   4.691  15.848  0.00  0.00    +0.000 A 
ATOM     24  C   UNL     1       6.480   5.063  16.858  0.00  0.00    +0.000 A 
BRANCH  24  25
ATOM     25  S   UNL     1       7.158   5.504  18.451  0.00  0.00    +0.000 S 
ATOM     26  C   UNL     1       7.850   7.128  18.338  0.00  0.00    +0.000 C 
ATOM     27  O   UNL     1       6.031   5.648  19.360  0.00  0.00    +0.000 OA
ATOM     28  O   UNL     1       8.254   4.600  18.719  0.00  0.00    +0.000 OA
ENDBRANCH  24  25
ENDBRANCH   3  19
BRANCH   1  30
ATOM     29  C   UNL     1       0.916   3.282  20.205  0.00  0.00    +0.000 C 
ATOM     30  C   UNL     1       1.495   4.639  20.575  0.00  0.00    +0.000 C 
ENDBRANCH   1  30
TORSDOF 4
ENDMDL
MODEL 6
REMARK VINA RESULT:      -7.8      4.064      8.953
REMARK  Name = 
REMARK  6 active torsions:
REMARK  status: ('A' for Active; 'I' for Inactive)
REMARK    1  A    between atoms: C_1  and  C_2
REMARK    2  A    between atoms: C_2  and  C_3
REMARK    3  A    between atoms: C_5  and  C_6
REMARK    4  A    between atoms: C_11  and  S_12
REMARK    5  A    between atoms: S_12  and  C_13
REMARK    6  A    between atoms: C_17  and  C_18
REMARK                            x       y       z     vdW  Elec       q    Type
REMARK                         _______ _______ _______ _____ _____    ______ ____
ROOT
ATOM      1  C   UNL     1      -0.364  10.951  19.057  0.00  0.00    +0.000 A 
ATOM      2  S   UNL     1      -0.302  12.574  18.516  0.00  0.00    +0.000 S 
ATOM      3  C   UNL     1       1.232  12.876  19.240  0.00  0.00    +0.000 A 
ATOM      4  C   UNL     1       1.611  11.758  19.958  0.00  0.00    +0.000 A 
ATOM      5  C   UNL     1       0.770  10.605  19.778  0.00  0.00    +0.000 A 
ENDROOT
BRANCH   5   6
ATOM      6  C   UNL     1       1.081   9.242  20.248  0.00  0.00    +0.000 C 
ATOM      7  O   UNL     1       0.710   8.865  21.353  0.00  0.00    +0.000 OA
ATOM      8  N   UNL     1       1.831   8.506  19.354  0.00  0.00    +0.000 N 
ATOM      9  C   UNL     1       2.087   7.180  19.562  0.00  0.00    +0.000 A 
ATOM     10  N   UNL     1       1.495   6.354  20.386  0.00  0.00    +0.000 NA
ATOM     11  C   UNL     1       2.096   5.124  20.308  0.00  0.00    +0.000 A 
ATOM     12  C   UNL     1       3.167   5.042  19.439  0.00  0.00    +0.000 A 
ATOM     13  S   UNL     1       3.349   6.520  18.605  0.00  0.00    +0.000 S 
ATOM     14  C   UNL     1       4.056   3.852  19.292  0.00  0.00    +0.000 C 
ATOM     15  C   UNL     1       3.391   2.606  19.916  0.00  0.00    +0.000 C 
ATOM     16  C   UNL     1       2.710   2.910  21.264  0.00  0.00    +0.000 C 
ATOM     17  C   UNL     1       1.614   3.975  21.120  0.00  0.00    +0.000 C 
ATOM     18  H   UNL     1       2.279   8.944  18.567  0.00  0.00    +0.000 HD
ENDBRANCH   5   6
BRANCH   3  19
ATOM     19  C   UNL     1       1.910  14.187  19.041  0.00  0.00    +0.000 A 
ATOM     20  C   UNL     1       2.770  14.324  17.924  0.00  0.00    +0.000 A 
ATOM     21  C   UNL     1       3.499  15.491  17.676  0.00  0.00    +0.000 A 
ATOM     22  C   UNL     1       3.380  16.572  18.532  0.00  0.00    +0.000 A 
ATOM     23  C   UNL     1       2.525  16.490  19.628  0.00  0.00    +0.000 A 
ATOM     24  C   UNL     1       1.789  15.317  19.888  0.00  0.00    +0.000 A 
BRANCH  24  25
ATOM     25  S   UNL     1       0.735  15.312  21.330  0.00  0.00    +0.000 S 
ATOM     26  C   UNL     1       0.828  16.901  22.102  0.00  0.00    +0.000 C 
ATOM     27  O   UNL     1      -0.634  15.218  20.848  0.00  0.00    +0.000 OA
ATOM     28  O   UNL     1       1.290  14.359  22.266  0.00  0.00    +0.000 OA
ENDBRANCH  24  25
ENDBRANCH   3  19
BRANCH   1  30
ATOM     29  C   UNL     1      -1.778   9.963  17.221  0.00  0.00    +0.000 C 
ATOM     30  C   UNL     1      -1.580  10.124  18.721  0.00  0.00    +0.000 C 
ENDBRANCH   1  30
TORSDOF 4
ENDMDL
MODEL 7
REMARK VINA RESULT:      -7.7      1.743      2.282
REMARK  Name = 
REMARK  6 active torsions:
REMARK  status: ('A' for Active; 'I' for Inactive)
REMARK    1  A    between atoms: C_1  and  C_2
REMARK    2  A    between atoms: C_2  and  C_3
REMARK    3  A    between atoms: C_5  and  C_6
REMARK    4  A    between atoms: C_11  and  S_12
REMARK    5  A    between atoms: S_12  and  C_13
REMARK    6  A    between atoms: C_17  and  C_18
REMARK                            x       y       z     vdW  Elec       q    Type
REMARK                         _______ _______ _______ _____ _____    ______ ____
ROOT
ATOM      1  C   UNL     1       2.509   5.930  19.367  0.00  0.00    +0.000 A 
ATOM      2  S   UNL     1       3.538   4.718  18.730  0.00  0.00    +0.000 S 
ATOM      3  C   UNL     1       4.102   5.714  17.442  0.00  0.00    +0.000 A 
ATOM      4  C   UNL     1       3.417   6.913  17.476  0.00  0.00    +0.000 A 
ATOM      5  C   UNL     1       2.582   7.105  18.632  0.00  0.00    +0.000 A 
ENDROOT
BRANCH   5   6
ATOM      6  C   UNL     1       1.932   8.373  19.012  0.00  0.00    +0.000 C 
ATOM      7  O   UNL     1       2.052   9.370  18.311  0.00  0.00    +0.000 OA
ATOM      8  N   UNL     1       1.246   8.305  20.208  0.00  0.00    +0.000 N 
ATOM      9  C   UNL     1       0.466   9.341  20.640  0.00  0.00    +0.000 A 
ATOM     10  N   UNL     1       0.014  10.362  19.959  0.00  0.00    +0.000 NA
ATOM     11  C   UNL     1      -0.693  11.189  20.793  0.00  0.00    +0.000 A 
ATOM     12  C   UNL     1      -0.740  10.797  22.117  0.00  0.00    +0.000 A 
ATOM     13  S   UNL     1       0.022   9.280  22.296  0.00  0.00    +0.000 S 
ATOM     14  C   UNL     1      -1.329  11.604  23.225  0.00  0.00    +0.000 C 
ATOM     15  C   UNL     1      -2.228  12.721  22.654  0.00  0.00    +0.000 C 
ATOM     16  C   UNL     1      -1.606  13.416  21.429  0.00  0.00    +0.000 C 
ATOM     17  C   UNL     1      -1.346  12.425  20.285  0.00  0.00    +0.000 C 
ATOM     18  H   UNL     1       1.364   7.526  20.833  0.00  0.00    +0.000 HD
ENDBRANCH   5   6
BRANCH   3  19
ATOM     19  C   UNL     1       5.158   5.216  16.516  0.00  0.00    +0.000 A 
ATOM     20  C   UNL     1       4.762   4.802  15.221  0.00  0.00    +0.000 A 
ATOM     21  C   UNL     1       5.662   4.267  14.296  0.00  0.00    +0.000 A 
ATOM     22  C   UNL     1       6.999   4.140  14.630  0.00  0.00    +0.000 A 
ATOM     23  C   UNL     1       7.437   4.558  15.883  0.00  0.00    +0.000 A 
ATOM     24  C   UNL     1       6.536   5.097  16.824  0.00  0.00    +0.000 A 
BRANCH  24  25
ATOM     25  S   UNL     1       7.200   5.587  18.409  0.00  0.00    +0.000 S 
ATOM     26  C   UNL     1       7.872   7.216  18.259  0.00  0.00    +0.000 C 
ATOM     27  O   UNL     1       6.067   5.739  19.308  0.00  0.00    +0.000 OA
ATOM     28  O   UNL     1       8.305   4.704  18.705  0.00  0.00    +0.000 OA
ENDBRANCH  24  25
ENDBRANCH   3  19
BRANCH   1  30
ATOM     29  C   UNL     1       1.050   4.219  20.502  0.00  0.00    +0.000 C 
ATOM     30  C   UNL     1       1.675   5.604  20.580  0.00  0.00    +0.000 C 
ENDBRANCH   1  30
TORSDOF 4
ENDMDL
MODEL 8
REMARK VINA RESULT:      -7.6      3.520      9.630
REMARK  Name = 
REMARK  6 active torsions:
REMARK  status: ('A' for Active; 'I' for Inactive)
REMARK    1  A    between atoms: C_1  and  C_2
REMARK    2  A    between atoms: C_2  and  C_3
REMARK    3  A    between atoms: C_5  and  C_6
REMARK    4  A    between atoms: C_11  and  S_12
REMARK    5  A    between atoms: S_12  and  C_13
REMARK    6  A    between atoms: C_17  and  C_18
REMARK                            x       y       z     vdW  Elec       q    Type
REMARK                         _______ _______ _______ _____ _____    ______ ____
ROOT
ATOM      1  C   UNL     1      -0.604  10.869  18.250  0.00  0.00    +0.000 A 
ATOM      2  S   UNL     1      -1.106  12.442  18.707  0.00  0.00    +0.000 S 
ATOM      3  C   UNL     1       0.325  12.758  19.613  0.00  0.00    +0.000 A 
ATOM      4  C   UNL     1       1.106  11.619  19.621  0.00  0.00    +0.000 A 
ATOM      5  C   UNL     1       0.651  10.562  18.757  0.00  0.00    +0.000 A 
ENDROOT
BRANCH   5   6
ATOM      6  C   UNL     1       1.418   9.349  18.419  0.00  0.00    +0.000 C 
ATOM      7  O   UNL     1       1.937   9.227  17.316  0.00  0.00    +0.000 OA
ATOM      8  N   UNL     1       1.438   8.409  19.429  0.00  0.00    +0.000 N 
ATOM      9  C   UNL     1       2.218   7.289  19.343  0.00  0.00    +0.000 A 
ATOM     10  N   UNL     1       3.217   7.051  18.533  0.00  0.00    +0.000 NA
ATOM     11  C   UNL     1       3.692   5.785  18.757  0.00  0.00    +0.000 A 
ATOM     12  C   UNL     1       3.019   5.060  19.722  0.00  0.00    +0.000 A 
ATOM     13  S   UNL     1       1.831   6.042  20.456  0.00  0.00    +0.000 S 
ATOM     14  C   UNL     1       3.266   3.622  20.036  0.00  0.00    +0.000 C 
ATOM     15  C   UNL     1       4.620   3.171  19.449  0.00  0.00    +0.000 C 
ATOM     16  C   UNL     1       4.860   3.711  18.027  0.00  0.00    +0.000 C 
ATOM     17  C   UNL     1       4.848   5.246  17.992  0.00  0.00    +0.000 C 
ATOM     18  H   UNL     1       0.819   8.479  20.219  0.00  0.00    +0.000 HD
ENDBRANCH   5   6
BRANCH   3  19
ATOM     19  C   UNL     1       0.538  14.095  20.236  0.00  0.00    +0.000 A 
ATOM     20  C   UNL     1       1.352  15.025  19.546  0.00  0.00    +0.000 A 
ATOM     21  C   UNL     1       1.662  16.284  20.067  0.00  0.00    +0.000 A 
ATOM     22  C   UNL     1       1.152  16.664  21.296  0.00  0.00    +0.000 A 
ATOM     23  C   UNL     1       0.325  15.791  21.997  0.00  0.00    +0.000 A 
ATOM     24  C   UNL     1       0.010  14.518  21.481  0.00  0.00    +0.000 A 
BRANCH  24  25
ATOM     25  S   UNL     1      -1.046  13.470  22.469  0.00  0.00    +0.000 S 
ATOM     26  C   UNL     1      -1.402  14.301  23.989  0.00  0.00    +0.000 C 
ATOM     27  O   UNL     1      -2.326  13.398  21.782  0.00  0.00    +0.000 OA
ATOM     28  O   UNL     1      -0.285  12.288  22.807  0.00  0.00    +0.000 OA
ENDBRANCH  24  25
ENDBRANCH   3  19
BRANCH   1  30
ATOM     29  C   UNL     1      -2.987  10.178  17.818  0.00  0.00    +0.000 C 
ATOM     30  C   UNL     1      -1.530  10.034  17.404  0.00  0.00    +0.000 C 
ENDBRANCH   1  30
TORSDOF 4
ENDMDL
MODEL 9
REMARK VINA RESULT:      -7.6      3.464     10.093
REMARK  Name = 
REMARK  6 active torsions:
REMARK  status: ('A' for Active; 'I' for Inactive)
REMARK    1  A    between atoms: C_1  and  C_2
REMARK    2  A    between atoms: C_2  and  C_3
REMARK    3  A    between atoms: C_5  and  C_6
REMARK    4  A    between atoms: C_11  and  S_12
REMARK    5  A    between atoms: S_12  and  C_13
REMARK    6  A    between atoms: C_17  and  C_18
REMARK                            x       y       z     vdW  Elec       q    Type
REMARK                         _______ _______ _______ _____ _____    ______ ____
ROOT
ATOM      1  C   UNL     1      -0.810  10.774  19.717  0.00  0.00    +0.000 A 
ATOM      2  S   UNL     1      -1.787  12.090  20.214  0.00  0.00    +0.000 S 
ATOM      3  C   UNL     1      -1.459  11.848  21.888  0.00  0.00    +0.000 A 
ATOM      4  C   UNL     1      -0.689  10.710  22.029  0.00  0.00    +0.000 A 
ATOM      5  C   UNL     1      -0.210  10.141  20.797  0.00  0.00    +0.000 A 
ENDROOT
BRANCH   5   6
ATOM      6  C   UNL     1       0.800   9.073  20.687  0.00  0.00    +0.000 C 
ATOM      7  O   UNL     1       1.160   8.451  21.679  0.00  0.00    +0.000 OA
ATOM      8  N   UNL     1       1.288   8.904  19.407  0.00  0.00    +0.000 N 
ATOM      9  C   UNL     1       2.122   7.866  19.096  0.00  0.00    +0.000 A 
ATOM     10  N   UNL     1       2.359   6.777  19.779  0.00  0.00    +0.000 NA
ATOM     11  C   UNL     1       3.297   6.023  19.122  0.00  0.00    +0.000 A 
ATOM     12  C   UNL     1       3.788   6.573  17.953  0.00  0.00    +0.000 A 
ATOM     13  S   UNL     1       2.956   8.022  17.605  0.00  0.00    +0.000 S 
ATOM     14  C   UNL     1       4.908   6.004  17.147  0.00  0.00    +0.000 C 
ATOM     15  C   UNL     1       5.166   4.536  17.550  0.00  0.00    +0.000 C 
ATOM     16  C   UNL     1       5.114   4.322  19.075  0.00  0.00    +0.000 C 
ATOM     17  C   UNL     1       3.748   4.710  19.658  0.00  0.00    +0.000 C 
ATOM     18  H   UNL     1       1.110   9.584  18.688  0.00  0.00    +0.000 HD
ENDBRANCH   5   6
BRANCH   3  19
ATOM     19  C   UNL     1      -1.998  12.797  22.902  0.00  0.00    +0.000 A 
ATOM     20  C   UNL     1      -3.166  12.419  23.607  0.00  0.00    +0.000 A 
ATOM     21  C   UNL     1      -3.787  13.257  24.538  0.00  0.00    +0.000 A 
ATOM     22  C   UNL     1      -3.248  14.503  24.808  0.00  0.00    +0.000 A 
ATOM     23  C   UNL     1      -2.085  14.905  24.157  0.00  0.00    +0.000 A 
ATOM     24  C   UNL     1      -1.454  14.068  23.215  0.00  0.00    +0.000 A 
BRANCH  24  25
ATOM     25  S   UNL     1       0.023  14.688  22.425  0.00  0.00    +0.000 S 
ATOM     26  C   UNL     1      -0.427  15.409  20.874  0.00  0.00    +0.000 C 
ATOM     27  O   UNL     1       0.489  15.807  23.228  0.00  0.00    +0.000 OA
ATOM     28  O   UNL     1       0.864  13.549  22.129  0.00  0.00    +0.000 OA
ENDBRANCH  24  25
ENDBRANCH   3  19
BRANCH   1  30
ATOM     29  C   UNL     1      -2.066  10.075  17.649  0.00  0.00    +0.000 C 
ATOM     30  C   UNL     1      -0.720  10.457  18.246  0.00  0.00    +0.000 C 
ENDBRANCH   1  30
TORSDOF 4
ENDMDL
