MODEL 1
REMARK VINA RESULT:      -6.0      0.000      0.000
REMARK  Name = 
REMARK  5 active torsions:
REMARK  status: ('A' for Active; 'I' for Inactive)
REMARK    1  A    between atoms: C_1  and  C_2
REMARK    2  A    between atoms: C_2  and  O_3
REMARK    3  A    between atoms: O_3  and  C_4
REMARK    4  A    between atoms: C_7  and  C_8
REMARK    5  A    between atoms: C_8  and  C_10
REMARK                            x       y       z     vdW  Elec       q    Type
REMARK                         _______ _______ _______ _____ _____    ______ ____
ROOT
ATOM      1  C   UNL     1       2.509   3.979  18.346  0.00  0.00    +0.000 A 
ATOM      2  C   UNL     1       3.243   3.375  17.327  0.00  0.00    +0.000 A 
ATOM      3  C   UNL     1       4.242   4.085  16.658  0.00  0.00    +0.000 A 
ATOM      4  C   UNL     1       4.513   5.416  17.003  0.00  0.00    +0.000 A 
ATOM      5  C   UNL     1       3.740   6.037  17.992  0.00  0.00    +0.000 A 
ATOM      6  C   UNL     1       2.738   5.320  18.656  0.00  0.00    +0.000 A 
ENDROOT
BRANCH   4   7
ATOM      7  C   UNL     1       5.624   6.112  16.286  0.00  0.00    +0.000 C 
ATOM      8  O   UNL     1       5.331   6.747  15.273  0.00  0.00    +0.000 OA
BRANCH   7   9
ATOM      9  C   UNL     1       7.035   6.013  16.853  0.00  0.00    +0.000 C 
ATOM     10 CL   UNL     1       7.554   7.603  17.461  0.00  0.00    +0.000 Cl
ATOM     11 CL   UNL     1       7.114   4.828  18.179  0.00  0.00    +0.000 Cl
ENDBRANCH   7   9
ENDBRANCH   4   7
BRANCH   1  12
ATOM     12  O   UNL     1       1.590   3.172  18.955  0.00  0.00    +0.000 OA
BRANCH  12  14
ATOM     13  C   UNL     1       1.446   2.926  21.318  0.00  0.00    +0.000 C 
ATOM     14  C   UNL     1       0.950   3.706  20.114  0.00  0.00    +0.000 C 
ENDBRANCH  12  14
ENDBRANCH   1  12
TORSDOF 4
ENDMDL
MODEL 2
REMARK VINA RESULT:      -6.0      0.555      1.372
REMARK  Name = 
REMARK  5 active torsions:
REMARK  status: ('A' for Active; 'I' for Inactive)
REMARK    1  A    between atoms: C_1  and  C_2
REMARK    2  A    between atoms: C_2  and  O_3
REMARK    3  A    between atoms: O_3  and  C_4
REMARK    4  A    between atoms: C_7  and  C_8
REMARK    5  A    between atoms: C_8  and  C_10
REMARK                            x       y       z     vdW  Elec       q    Type
REMARK                         _______ _______ _______ _____ _____    ______ ____
ROOT
ATOM      1  C   UNL     1       2.359   3.914  18.094  0.00  0.00    +0.000 A 
ATOM      2  C   UNL     1       2.412   5.296  18.275  0.00  0.00    +0.000 A 
ATOM      3  C   UNL     1       3.517   6.026  17.833  0.00  0.00    +0.000 A 
ATOM      4  C   UNL     1       4.588   5.374  17.205  0.00  0.00    +0.000 A 
ATOM      5  C   UNL     1       4.555   3.980  17.071  0.00  0.00    +0.000 A 
ATOM      6  C   UNL     1       3.446   3.255  17.520  0.00  0.00    +0.000 A 
ENDROOT
BRANCH   4   7
ATOM      7  C   UNL     1       5.723   6.210  16.711  0.00  0.00    +0.000 C 
ATOM      8  O   UNL     1       5.523   6.898  15.710  0.00  0.00    +0.000 OA
BRANCH   7   9
ATOM      9  C   UNL     1       7.041   6.178  17.475  0.00  0.00    +0.000 C 
ATOM     10 CL   UNL     1       7.787   7.794  17.458  0.00  0.00    +0.000 Cl
ATOM     11 CL   UNL     1       6.794   5.668  19.163  0.00  0.00    +0.000 Cl
ENDBRANCH   7   9
ENDBRANCH   4   7
BRANCH   1  12
ATOM     12  O   UNL     1       1.210   3.317  18.528  0.00  0.00    +0.000 OA
BRANCH  12  14
ATOM     13  C   UNL     1       1.486   2.717  20.815  0.00  0.00    +0.000 C 
ATOM     14  C   UNL     1       0.783   3.653  19.848  0.00  0.00    +0.000 C 
ENDBRANCH  12  14
ENDBRANCH   1  12
TORSDOF 4
ENDMDL
MODEL 3
REMARK VINA RESULT:      -5.9      1.342      1.890
REMARK  Name = 
REMARK  5 active torsions:
REMARK  status: ('A' for Active; 'I' for Inactive)
REMARK    1  A    between atoms: C_1  and  C_2
REMARK    2  A    between atoms: C_2  and  O_3
REMARK    3  A    between atoms: O_3  and  C_4
REMARK    4  A    between atoms: C_7  and  C_8
REMARK    5  A    between atoms: C_8  and  C_10
REMARK                            x       y       z     vdW  Elec       q    Type
REMARK                         _______ _______ _______ _____ _____    ______ ____
ROOT
ATOM      1  C   UNL     1       2.057   4.214  18.705  0.00  0.00    +0.000 A 
ATOM      2  C   UNL     1       2.502   5.535  18.680  0.00  0.00    +0.000 A 
ATOM      3  C   UNL     1       3.564   5.908  17.854  0.00  0.00    +0.000 A 
ATOM      4  C   UNL     1       4.198   4.956  17.045  0.00  0.00    +0.000 A 
ATOM      5  C   UNL     1       3.784   3.619  17.111  0.00  0.00    +0.000 A 
ATOM      6  C   UNL     1       2.720   3.251  17.944  0.00  0.00    +0.000 A 
ENDROOT
BRANCH   4   7
ATOM      7  C   UNL     1       5.298   5.420  16.148  0.00  0.00    +0.000 C 
ATOM      8  O   UNL     1       5.223   6.568  15.711  0.00  0.00    +0.000 OA
BRANCH   7   9
ATOM      9  C   UNL     1       6.445   4.463  15.843  0.00  0.00    +0.000 C 
ATOM     10 CL   UNL     1       7.234   4.935  14.319  0.00  0.00    +0.000 Cl
ATOM     11 CL   UNL     1       7.653   4.470  17.151  0.00  0.00    +0.000 Cl
ENDBRANCH   7   9
ENDBRANCH   4   7
BRANCH   1  12
ATOM     12  O   UNL     1       0.984   3.979  19.518  0.00  0.00    +0.000 OA
BRANCH  12  14
ATOM     13  C   UNL     1       1.835   3.062  21.543  0.00  0.00    +0.000 C 
ATOM     14  C   UNL     1       1.027   2.779  20.289  0.00  0.00    +0.000 C 
ENDBRANCH  12  14
ENDBRANCH   1  12
TORSDOF 4
ENDMDL
MODEL 4
REMARK VINA RESULT:      -5.9      3.213      5.472
REMARK  Name = 
REMARK  5 active torsions:
REMARK  status: ('A' for Active; 'I' for Inactive)
REMARK    1  A    between atoms: C_1  and  C_2
REMARK    2  A    between atoms: C_2  and  O_3
REMARK    3  A    between atoms: O_3  and  C_4
REMARK    4  A    between atoms: C_7  and  C_8
REMARK    5  A    between atoms: C_8  and  C_10
REMARK                            x       y       z     vdW  Elec       q    Type
REMARK                         _______ _______ _______ _____ _____    ______ ____
ROOT
ATOM      1  C   UNL     1       6.086   4.622  18.119  0.00  0.00    +0.000 A 
ATOM      2  C   UNL     1       5.268   4.873  19.219  0.00  0.00    +0.000 A 
ATOM      3  C   UNL     1       3.895   4.630  19.150  0.00  0.00    +0.000 A 
ATOM      4  C   UNL     1       3.325   4.134  17.970  0.00  0.00    +0.000 A 
ATOM      5  C   UNL     1       4.140   3.932  16.849  0.00  0.00    +0.000 A 
ATOM      6  C   UNL     1       5.516   4.181  16.924  0.00  0.00    +0.000 A 
ENDROOT
BRANCH   4   7
ATOM      7  C   UNL     1       1.858   3.849  17.967  0.00  0.00    +0.000 C 
ATOM      8  O   UNL     1       1.144   4.569  17.269  0.00  0.00    +0.000 OA
BRANCH   7   9
ATOM      9  C   UNL     1       1.338   2.687  18.805  0.00  0.00    +0.000 C 
ATOM     10 CL   UNL     1       2.602   1.443  18.960  0.00  0.00    +0.000 Cl
ATOM     11 CL   UNL     1       0.854   3.231  20.430  0.00  0.00    +0.000 Cl
ENDBRANCH   7   9
ENDBRANCH   4   7
BRANCH   1  12
ATOM     12  O   UNL     1       7.417   4.857  18.320  0.00  0.00    +0.000 OA
BRANCH  12  14
ATOM     13  C   UNL     1       7.627   7.145  17.701  0.00  0.00    +0.000 C 
ATOM     14  C   UNL     1       7.761   6.143  18.834  0.00  0.00    +0.000 C 
ENDBRANCH  12  14
ENDBRANCH   1  12
TORSDOF 4
ENDMDL
MODEL 5
REMARK VINA RESULT:      -5.8      1.984      2.218
REMARK  Name = 
REMARK  5 active torsions:
REMARK  status: ('A' for Active; 'I' for Inactive)
REMARK    1  A    between atoms: C_1  and  C_2
REMARK    2  A    between atoms: C_2  and  O_3
REMARK    3  A    between atoms: O_3  and  C_4
REMARK    4  A    between atoms: C_7  and  C_8
REMARK    5  A    between atoms: C_8  and  C_10
REMARK                            x       y       z     vdW  Elec       q    Type
REMARK                         _______ _______ _______ _____ _____    ______ ____
ROOT
ATOM      1  C   UNL     1       2.518   4.403  19.196  0.00  0.00    +0.000 A 
ATOM      2  C   UNL     1       2.854   3.638  18.080  0.00  0.00    +0.000 A 
ATOM      3  C   UNL     1       4.112   3.766  17.487  0.00  0.00    +0.000 A 
ATOM      4  C   UNL     1       5.048   4.670  18.007  0.00  0.00    +0.000 A 
ATOM      5  C   UNL     1       4.690   5.475  19.096  0.00  0.00    +0.000 A 
ATOM      6  C   UNL     1       3.426   5.343  19.683  0.00  0.00    +0.000 A 
ENDROOT
BRANCH   4   7
ATOM      7  C   UNL     1       6.394   4.733  17.361  0.00  0.00    +0.000 C 
ATOM      8  O   UNL     1       7.356   4.340  18.022  0.00  0.00    +0.000 OA
BRANCH   7   9
ATOM      9  C   UNL     1       6.496   5.256  15.933  0.00  0.00    +0.000 C 
ATOM     10 CL   UNL     1       6.369   3.901  14.785  0.00  0.00    +0.000 Cl
ATOM     11 CL   UNL     1       5.208   6.435  15.587  0.00  0.00    +0.000 Cl
ENDBRANCH   7   9
ENDBRANCH   4   7
BRANCH   1  12
ATOM     12  O   UNL     1       1.278   4.158  19.713  0.00  0.00    +0.000 OA
BRANCH  12  14
ATOM     13  C   UNL     1       1.581   2.710  21.577  0.00  0.00    +0.000 C 
ATOM     14  C   UNL     1       1.033   2.827  20.166  0.00  0.00    +0.000 C 
ENDBRANCH  12  14
ENDBRANCH   1  12
TORSDOF 4
ENDMDL
MODEL 6
REMARK VINA RESULT:      -5.8      1.724      2.282
REMARK  Name = 
REMARK  5 active torsions:
REMARK  status: ('A' for Active; 'I' for Inactive)
REMARK    1  A    between atoms: C_1  and  C_2
REMARK    2  A    between atoms: C_2  and  O_3
REMARK    3  A    between atoms: O_3  and  C_4
REMARK    4  A    between atoms: C_7  and  C_8
REMARK    5  A    between atoms: C_8  and  C_10
REMARK                            x       y       z     vdW  Elec       q    Type
REMARK                         _______ _______ _______ _____ _____    ______ ____
ROOT
ATOM      1  C   UNL     1       2.836   3.980  18.902  0.00  0.00    +0.000 A 
ATOM      2  C   UNL     1       3.594   4.881  19.647  0.00  0.00    +0.000 A 
ATOM      3  C   UNL     1       4.894   5.207  19.254  0.00  0.00    +0.000 A 
ATOM      4  C   UNL     1       5.450   4.626  18.106  0.00  0.00    +0.000 A 
ATOM      5  C   UNL     1       4.705   3.682  17.388  0.00  0.00    +0.000 A 
ATOM      6  C   UNL     1       3.404   3.357  17.790  0.00  0.00    +0.000 A 
ENDROOT
BRANCH   4   7
ATOM      7  C   UNL     1       6.827   5.046  17.706  0.00  0.00    +0.000 C 
ATOM      8  O   UNL     1       7.770   4.405  18.171  0.00  0.00    +0.000 OA
BRANCH   7   9
ATOM      9  C   UNL     1       6.983   6.218  16.745  0.00  0.00    +0.000 C 
ATOM     10 CL   UNL     1       5.392   6.682  16.097  0.00  0.00    +0.000 Cl
ATOM     11 CL   UNL     1       7.713   7.624  17.558  0.00  0.00    +0.000 Cl
ENDBRANCH   7   9
ENDBRANCH   4   7
BRANCH   1  12
ATOM     12  O   UNL     1       1.565   3.774  19.360  0.00  0.00    +0.000 OA
BRANCH  12  14
ATOM     13  C   UNL     1       1.349   2.752  21.499  0.00  0.00    +0.000 C 
ATOM     14  C   UNL     1       1.336   4.066  20.738  0.00  0.00    +0.000 C 
ENDBRANCH  12  14
ENDBRANCH   1  12
TORSDOF 4
ENDMDL
MODEL 7
REMARK VINA RESULT:      -5.8      0.745      1.837
REMARK  Name = 
REMARK  5 active torsions:
REMARK  status: ('A' for Active; 'I' for Inactive)
REMARK    1  A    between atoms: C_1  and  C_2
REMARK    2  A    between atoms: C_2  and  O_3
REMARK    3  A    between atoms: O_3  and  C_4
REMARK    4  A    between atoms: C_7  and  C_8
REMARK    5  A    between atoms: C_8  and  C_10
REMARK                            x       y       z     vdW  Elec       q    Type
REMARK                         _______ _______ _______ _____ _____    ______ ____
ROOT
ATOM      1  C   UNL     1       2.216   3.935  17.681  0.00  0.00    +0.000 A 
ATOM      2  C   UNL     1       2.320   5.255  18.118  0.00  0.00    +0.000 A 
ATOM      3  C   UNL     1       3.448   6.017  17.808  0.00  0.00    +0.000 A 
ATOM      4  C   UNL     1       4.491   5.459  17.056  0.00  0.00    +0.000 A 
ATOM      5  C   UNL     1       4.408   4.117  16.663  0.00  0.00    +0.000 A 
ATOM      6  C   UNL     1       3.276   3.358  16.980  0.00  0.00    +0.000 A 
ENDROOT
BRANCH   4   7
ATOM      7  C   UNL     1       5.653   6.333  16.715  0.00  0.00    +0.000 C 
ATOM      8  O   UNL     1       5.687   6.809  15.580  0.00  0.00    +0.000 OA
BRANCH   7   9
ATOM      9  C   UNL     1       6.708   6.598  17.783  0.00  0.00    +0.000 C 
ATOM     10 CL   UNL     1       7.706   5.143  18.017  0.00  0.00    +0.000 Cl
ATOM     11 CL   UNL     1       7.761   7.958  17.324  0.00  0.00    +0.000 Cl
ENDBRANCH   7   9
ENDBRANCH   4   7
BRANCH   1  12
ATOM     12  O   UNL     1       1.049   3.307  18.009  0.00  0.00    +0.000 OA
BRANCH  12  14
ATOM     13  C   UNL     1       1.666   2.263  20.057  0.00  0.00    +0.000 C 
ATOM     14  C   UNL     1       0.726   3.257  19.398  0.00  0.00    +0.000 C 
ENDBRANCH  12  14
ENDBRANCH   1  12
TORSDOF 4
ENDMDL
MODEL 8
REMARK VINA RESULT:      -5.8      2.716      5.581
REMARK  Name = 
REMARK  5 active torsions:
REMARK  status: ('A' for Active; 'I' for Inactive)
REMARK    1  A    between atoms: C_1  and  C_2
REMARK    2  A    between atoms: C_2  and  O_3
REMARK    3  A    between atoms: O_3  and  C_4
REMARK    4  A    between atoms: C_7  and  C_8
REMARK    5  A    between atoms: C_8  and  C_10
REMARK                            x       y       z     vdW  Elec       q    Type
REMARK                         _______ _______ _______ _____ _____    ______ ____
ROOT
ATOM      1  C   UNL     1       5.865   6.052  16.898  0.00  0.00    +0.000 A 
ATOM      2  C   UNL     1       4.712   6.727  17.294  0.00  0.00    +0.000 A 
ATOM      3  C   UNL     1       3.532   6.025  17.548  0.00  0.00    +0.000 A 
ATOM      4  C   UNL     1       3.496   4.632  17.402  0.00  0.00    +0.000 A 
ATOM      5  C   UNL     1       4.641   3.961  16.953  0.00  0.00    +0.000 A 
ATOM      6  C   UNL     1       5.819   4.672  16.698  0.00  0.00    +0.000 A 
ENDROOT
BRANCH   4   7
ATOM      7  C   UNL     1       2.220   3.927  17.731  0.00  0.00    +0.000 C 
ATOM      8  O   UNL     1       1.181   4.390  17.261  0.00  0.00    +0.000 OA
BRANCH   7   9
ATOM      9  C   UNL     1       2.280   2.679  18.606  0.00  0.00    +0.000 C 
ATOM     10 CL   UNL     1       3.072   3.065  20.152  0.00  0.00    +0.000 Cl
ATOM     11 CL   UNL     1       0.649   2.043  18.929  0.00  0.00    +0.000 Cl
ENDBRANCH   7   9
ENDBRANCH   4   7
BRANCH   1  12
ATOM     12  O   UNL     1       6.967   6.841  16.721  0.00  0.00    +0.000 OA
BRANCH  12  14
ATOM     13  C   UNL     1       8.051   8.633  17.851  0.00  0.00    +0.000 C 
ATOM     14  C   UNL     1       7.714   7.153  17.896  0.00  0.00    +0.000 C 
ENDBRANCH  12  14
ENDBRANCH   1  12
TORSDOF 4
ENDMDL
MODEL 9
REMARK VINA RESULT:      -5.8      3.055      5.684
REMARK  Name = 
REMARK  5 active torsions:
REMARK  status: ('A' for Active; 'I' for Inactive)
REMARK    1  A    between atoms: C_1  and  C_2
REMARK    2  A    between atoms: C_2  and  O_3
REMARK    3  A    between atoms: O_3  and  C_4
REMARK    4  A    between atoms: C_7  and  C_8
REMARK    5  A    between atoms: C_8  and  C_10
REMARK                            x       y       z     vdW  Elec       q    Type
REMARK                         _______ _______ _______ _____ _____    ______ ____
ROOT
ATOM      1  C   UNL     1       5.368   5.711  17.536  0.00  0.00    +0.000 A 
ATOM      2  C   UNL     1       5.358   5.372  18.888  0.00  0.00    +0.000 A 
ATOM      3  C   UNL     1       4.663   4.245  19.330  0.00  0.00    +0.000 A 
ATOM      4  C   UNL     1       3.962   3.445  18.417  0.00  0.00    +0.000 A 
ATOM      5  C   UNL     1       3.930   3.817  17.067  0.00  0.00    +0.000 A 
ATOM      6  C   UNL     1       4.627   4.950  16.631  0.00  0.00    +0.000 A 
ENDROOT
BRANCH   4   7
ATOM      7  C   UNL     1       3.274   2.226  18.939  0.00  0.00    +0.000 C 
ATOM      8  O   UNL     1       3.742   1.133  18.619  0.00  0.00    +0.000 OA
BRANCH   7   9
ATOM      9  C   UNL     1       2.058   2.403  19.840  0.00  0.00    +0.000 C 
ATOM     10 CL   UNL     1       2.583   2.597  21.530  0.00  0.00    +0.000 Cl
ATOM     11 CL   UNL     1       1.103   3.827  19.360  0.00  0.00    +0.000 Cl
ENDBRANCH   7   9
ENDBRANCH   4   7
BRANCH   1  12
ATOM     12  O   UNL     1       6.118   6.808  17.219  0.00  0.00    +0.000 OA
BRANCH  12  14
ATOM     13  C   UNL     1       7.917   8.286  17.715  0.00  0.00    +0.000 C 
ATOM     14  C   UNL     1       7.441   6.844  17.752  0.00  0.00    +0.000 C 
ENDBRANCH  12  14
ENDBRANCH   1  12
TORSDOF 4
ENDMDL
