MODEL 1
REMARK VINA RESULT:      -8.3      0.000      0.000
REMARK  Name = 
REMARK  9 active torsions:
REMARK  status: ('A' for Active; 'I' for Inactive)
REMARK    1  A    between atoms: C_1  and  O_2
REMARK    2  A    between atoms: O_2  and  C_3
REMARK    3  A    between atoms: C_5  and  C_6
REMARK    4  A    between atoms: C_10  and  O_11
REMARK    5  A    between atoms: C_16  and  C_17
REMARK    6  A    between atoms: C_20  and  O_21
REMARK    7  A    between atoms: C_28  and  C_29
REMARK    8  A    between atoms: C_29  and  O_30
REMARK    9  A    between atoms: C_33  and  O_34
REMARK                            x       y       z     vdW  Elec       q    Type
REMARK                         _______ _______ _______ _____ _____    ______ ____
ROOT
ATOM      1  C   UNL     1       1.936   8.243  19.911  0.00  0.00    +0.000 C 
ATOM      2  O   UNL     1       1.685   9.099  18.785  0.00  0.00    +0.000 OA
ATOM      3  C   UNL     1       1.129  10.295  19.177  0.00  0.00    +0.000 A 
ATOM      4  C   UNL     1       1.601  11.464  18.595  0.00  0.00    +0.000 A 
ATOM      5  C   UNL     1       1.029  12.686  18.958  0.00  0.00    +0.000 A 
ATOM      6  C   UNL     1      -0.074  12.736  19.833  0.00  0.00    +0.000 A 
ATOM      7  C   UNL     1      -0.685  14.022  20.236  0.00  0.00    +0.000 A 
ATOM      8  O   UNL     1      -0.300  15.123  19.880  0.00  0.00    +0.000 OA
ATOM      9  C   UNL     1      -1.841  13.949  21.135  0.00  0.00    +0.000 A 
ATOM     10  C   UNL     1      -2.316  12.757  21.516  0.00  0.00    +0.000 A 
ATOM     11  O   UNL     1      -1.734  11.537  21.170  0.00  0.00    +0.000 OA
ATOM     12  C   UNL     1      -0.593  11.552  20.376  0.00  0.00    +0.000 A 
ATOM     13  C   UNL     1       0.079  10.341  20.102  0.00  0.00    +0.000 A 
ATOM     14  O   UNL     1      -0.262   9.191  20.762  0.00  0.00    +0.000 OA
ATOM     15  C   UNL     1       0.915   8.403  21.074  0.00  0.00    +0.000 C 
ENDROOT
BRANCH   1  18
ATOM     16  C   UNL     1       1.587   4.408  20.139  0.00  0.00    +0.000 A 
ATOM     17  C   UNL     1       1.686   5.771  20.479  0.00  0.00    +0.000 A 
ATOM     18  C   UNL     1       2.066   6.759  19.540  0.00  0.00    +0.000 A 
ATOM     19  C   UNL     1       2.410   6.341  18.253  0.00  0.00    +0.000 A 
ATOM     20  C   UNL     1       2.321   4.986  17.902  0.00  0.00    +0.000 A 
ATOM     21  C   UNL     1       1.888   4.031  18.829  0.00  0.00    +0.000 A 
BRANCH  16  23
ATOM     22  C   UNL     1       2.128   2.796  21.837  0.00  0.00    +0.000 C 
ATOM     23  O   UNL     1       1.169   3.617  21.178  0.00  0.00    +0.000 OA
ENDBRANCH  16  23
BRANCH  21  24
ATOM     24  O   UNL     1       1.757   2.734  18.413  0.00  0.00    +0.000 OA
ATOM     25  H   UNL     1       1.885   2.139  19.168  0.00  0.00    +0.000 HD
ENDBRANCH  21  24
ENDBRANCH   1  18
BRANCH  10  26
ATOM     26  C   UNL     1      -3.573  12.732  22.304  0.00  0.00    +0.000 A 
ATOM     27  C   UNL     1      -4.810  13.040  21.708  0.00  0.00    +0.000 A 
ATOM     28  C   UNL     1      -5.976  13.161  22.481  0.00  0.00    +0.000 A 
ATOM     29  C   UNL     1      -5.913  12.975  23.860  0.00  0.00    +0.000 A 
ATOM     30  C   UNL     1      -4.708  12.665  24.477  0.00  0.00    +0.000 A 
ATOM     31  C   UNL     1      -3.545  12.545  23.696  0.00  0.00    +0.000 A 
BRANCH  29  32
ATOM     32  O   UNL     1      -7.013  13.099  24.657  0.00  0.00    +0.000 OA
ATOM     33  H   UNL     1      -7.795  12.808  24.162  0.00  0.00    +0.000 HD
ENDBRANCH  29  32
ENDBRANCH  10  26
BRANCH   5  34
ATOM     34  O   UNL     1       1.561  13.834  18.444  0.00  0.00    +0.000 OA
ATOM     35  H   UNL     1       1.742  14.481  19.144  0.00  0.00    +0.000 HD
ENDBRANCH   5  34
BRANCH  15  36
ATOM     36  C   UNL     1       1.656   8.965  22.306  0.00  0.00    +0.000 C 
BRANCH  36  37
ATOM     37  O   UNL     1       0.776   9.627  23.206  0.00  0.00    +0.000 OA
ATOM     38  H   UNL     1      -0.044   9.834  22.726  0.00  0.00    +0.000 HD
ENDBRANCH  36  37
ENDBRANCH  15  36
TORSDOF 8
ENDMDL
MODEL 2
REMARK VINA RESULT:      -8.2      0.847      1.637
REMARK  Name = 
REMARK  9 active torsions:
REMARK  status: ('A' for Active; 'I' for Inactive)
REMARK    1  A    between atoms: C_1  and  O_2
REMARK    2  A    between atoms: O_2  and  C_3
REMARK    3  A    between atoms: C_5  and  C_6
REMARK    4  A    between atoms: C_10  and  O_11
REMARK    5  A    between atoms: C_16  and  C_17
REMARK    6  A    between atoms: C_20  and  O_21
REMARK    7  A    between atoms: C_28  and  C_29
REMARK    8  A    between atoms: C_29  and  O_30
REMARK    9  A    between atoms: C_33  and  O_34
REMARK                            x       y       z     vdW  Elec       q    Type
REMARK                         _______ _______ _______ _____ _____    ______ ____
ROOT
ATOM      1  C   UNL     1       1.864   8.194  20.177  0.00  0.00    +0.000 C 
ATOM      2  O   UNL     1       1.586   8.941  18.981  0.00  0.00    +0.000 OA
ATOM      3  C   UNL     1       1.009  10.156  19.271  0.00  0.00    +0.000 A 
ATOM      4  C   UNL     1       1.451  11.277  18.581  0.00  0.00    +0.000 A 
ATOM      5  C   UNL     1       0.857  12.515  18.840  0.00  0.00    +0.000 A 
ATOM      6  C   UNL     1      -0.238  12.622  19.718  0.00  0.00    +0.000 A 
ATOM      7  C   UNL     1      -0.872  13.926  20.010  0.00  0.00    +0.000 A 
ATOM      8  O   UNL     1      -0.513  14.998  19.554  0.00  0.00    +0.000 OA
ATOM      9  C   UNL     1      -2.018  13.911  20.924  0.00  0.00    +0.000 A 
ATOM     10  C   UNL     1      -2.466  12.749  21.416  0.00  0.00    +0.000 A 
ATOM     11  O   UNL     1      -1.861  11.514  21.174  0.00  0.00    +0.000 OA
ATOM     12  C   UNL     1      -0.728  11.481  20.370  0.00  0.00    +0.000 A 
ATOM     13  C   UNL     1      -0.034  10.264  20.199  0.00  0.00    +0.000 A 
ATOM     14  O   UNL     1      -0.345   9.171  20.962  0.00  0.00    +0.000 OA
ATOM     15  C   UNL     1       0.851   8.438  21.332  0.00  0.00    +0.000 C 
ENDROOT
BRANCH   1  18
ATOM     16  C   UNL     1       3.194   4.875  18.730  0.00  0.00    +0.000 A 
ATOM     17  C   UNL     1       2.844   6.231  18.881  0.00  0.00    +0.000 A 
ATOM     18  C   UNL     1       2.021   6.686  19.939  0.00  0.00    +0.000 A 
ATOM     19  C   UNL     1       1.499   5.735  20.817  0.00  0.00    +0.000 A 
ATOM     20  C   UNL     1       1.834   4.381  20.675  0.00  0.00    +0.000 A 
ATOM     21  C   UNL     1       2.696   3.957  19.656  0.00  0.00    +0.000 A 
BRANCH  16  23
ATOM     22  C   UNL     1       4.535   5.760  16.943  0.00  0.00    +0.000 C 
ATOM     23  O   UNL     1       4.027   4.644  17.666  0.00  0.00    +0.000 OA
ENDBRANCH  16  23
BRANCH  21  24
ATOM     24  O   UNL     1       3.042   2.635  19.606  0.00  0.00    +0.000 OA
ATOM     25  H   UNL     1       3.307   2.337  20.490  0.00  0.00    +0.000 HD
ENDBRANCH  21  24
ENDBRANCH   1  18
BRANCH  10  26
ATOM     26  C   UNL     1      -3.715  12.770  22.216  0.00  0.00    +0.000 A 
ATOM     27  C   UNL     1      -4.943  13.137  21.635  0.00  0.00    +0.000 A 
ATOM     28  C   UNL     1      -6.095  13.300  22.421  0.00  0.00    +0.000 A 
ATOM     29  C   UNL     1      -6.028  13.097  23.797  0.00  0.00    +0.000 A 
ATOM     30  C   UNL     1      -4.831  12.730  24.399  0.00  0.00    +0.000 A 
ATOM     31  C   UNL     1      -3.682  12.567  23.605  0.00  0.00    +0.000 A 
BRANCH  29  32
ATOM     32  O   UNL     1      -7.113  13.261  24.606  0.00  0.00    +0.000 OA
ATOM     33  H   UNL     1      -7.917  13.063  24.100  0.00  0.00    +0.000 HD
ENDBRANCH  29  32
ENDBRANCH  10  26
BRANCH   5  34
ATOM     34  O   UNL     1       1.361  13.623  18.220  0.00  0.00    +0.000 OA
ATOM     35  H   UNL     1       1.719  13.403  17.345  0.00  0.00    +0.000 HD
ENDBRANCH   5  34
BRANCH  15  36
ATOM     36  C   UNL     1       1.590   9.122  22.501  0.00  0.00    +0.000 C 
BRANCH  36  37
ATOM     37  O   UNL     1       0.693   9.622  23.484  0.00  0.00    +0.000 OA
ATOM     38  H   UNL     1      -0.097   9.956  23.028  0.00  0.00    +0.000 HD
ENDBRANCH  36  37
ENDBRANCH  15  36
TORSDOF 8
ENDMDL
MODEL 3
REMARK VINA RESULT:      -7.9      0.733      1.143
REMARK  Name = 
REMARK  9 active torsions:
REMARK  status: ('A' for Active; 'I' for Inactive)
REMARK    1  A    between atoms: C_1  and  O_2
REMARK    2  A    between atoms: O_2  and  C_3
REMARK    3  A    between atoms: C_5  and  C_6
REMARK    4  A    between atoms: C_10  and  O_11
REMARK    5  A    between atoms: C_16  and  C_17
REMARK    6  A    between atoms: C_20  and  O_21
REMARK    7  A    between atoms: C_28  and  C_29
REMARK    8  A    between atoms: C_29  and  O_30
REMARK    9  A    between atoms: C_33  and  O_34
REMARK                            x       y       z     vdW  Elec       q    Type
REMARK                         _______ _______ _______ _____ _____    ______ ____
ROOT
ATOM      1  C   UNL     1       2.102   7.706  19.571  0.00  0.00    +0.000 C 
ATOM      2  O   UNL     1       1.889   8.503  18.395  0.00  0.00    +0.000 OA
ATOM      3  C   UNL     1       1.464   9.771  18.718  0.00  0.00    +0.000 A 
ATOM      4  C   UNL     1       2.020  10.847  18.039  0.00  0.00    +0.000 A 
ATOM      5  C   UNL     1       1.580  12.140  18.332  0.00  0.00    +0.000 A 
ATOM      6  C   UNL     1       0.522  12.356  19.237  0.00  0.00    +0.000 A 
ATOM      7  C   UNL     1       0.051  13.719  19.566  0.00  0.00    +0.000 A 
ATOM      8  O   UNL     1       0.524  14.751  19.120  0.00  0.00    +0.000 OA
ATOM      9  C   UNL     1      -1.071  13.820  20.505  0.00  0.00    +0.000 A 
ATOM     10  C   UNL     1      -1.641  12.707  20.987  0.00  0.00    +0.000 A 
ATOM     11  O   UNL     1      -1.189  11.416  20.709  0.00  0.00    +0.000 OA
ATOM     12  C   UNL     1      -0.084  11.267  19.879  0.00  0.00    +0.000 A 
ATOM     13  C   UNL     1       0.460   9.981  19.671  0.00  0.00    +0.000 A 
ATOM     14  O   UNL     1       0.039   8.917  20.422  0.00  0.00    +0.000 OA
ATOM     15  C   UNL     1       1.148   8.042  20.752  0.00  0.00    +0.000 C 
ENDROOT
BRANCH   1  18
ATOM     16  C   UNL     1       1.429   3.944  20.096  0.00  0.00    +0.000 A 
ATOM     17  C   UNL     1       1.669   5.312  20.330  0.00  0.00    +0.000 A 
ATOM     18  C   UNL     1       2.078   6.195  19.302  0.00  0.00    +0.000 A 
ATOM     19  C   UNL     1       2.306   5.660  18.033  0.00  0.00    +0.000 A 
ATOM     20  C   UNL     1       2.078   4.299  17.787  0.00  0.00    +0.000 A 
ATOM     21  C   UNL     1       1.617   3.452  18.803  0.00  0.00    +0.000 A 
BRANCH  16  23
ATOM     22  C   UNL     1       1.948   2.476  21.926  0.00  0.00    +0.000 C 
ATOM     23  O   UNL     1       1.005   3.267  21.210  0.00  0.00    +0.000 OA
ENDBRANCH  16  23
BRANCH  21  24
ATOM     24  O   UNL     1       1.347   2.148  18.490  0.00  0.00    +0.000 OA
ATOM     25  H   UNL     1       1.156   2.078  17.541  0.00  0.00    +0.000 HD
ENDBRANCH  21  24
ENDBRANCH   1  18
BRANCH  10  26
ATOM     26  C   UNL     1      -2.863  12.857  21.814  0.00  0.00    +0.000 A 
ATOM     27  C   UNL     1      -2.815  12.708  23.212  0.00  0.00    +0.000 A 
ATOM     28  C   UNL     1      -3.991  12.703  23.980  0.00  0.00    +0.000 A 
ATOM     29  C   UNL     1      -5.227  12.846  23.353  0.00  0.00    +0.000 A 
ATOM     30  C   UNL     1      -5.305  12.999  21.975  0.00  0.00    +0.000 A 
ATOM     31  C   UNL     1      -4.124  13.005  21.214  0.00  0.00    +0.000 A 
BRANCH  29  32
ATOM     32  O   UNL     1      -6.398  12.829  24.051  0.00  0.00    +0.000 OA
ATOM     33  H   UNL     1      -7.126  12.638  23.439  0.00  0.00    +0.000 HD
ENDBRANCH  29  32
ENDBRANCH  10  26
BRANCH   5  34
ATOM     34  O   UNL     1       2.197  13.194  17.721  0.00  0.00    +0.000 OA
ATOM     35  H   UNL     1       1.837  14.040  18.031  0.00  0.00    +0.000 HD
ENDBRANCH   5  34
BRANCH  15  36
ATOM     36  C   UNL     1       1.986   8.612  21.916  0.00  0.00    +0.000 C 
BRANCH  36  37
ATOM     37  O   UNL     1       1.197   9.371  22.824  0.00  0.00    +0.000 OA
ATOM     38  H   UNL     1       1.763  10.064  23.205  0.00  0.00    +0.000 HD
ENDBRANCH  36  37
ENDBRANCH  15  36
TORSDOF 8
ENDMDL
MODEL 4
REMARK VINA RESULT:      -7.7      1.198      1.842
REMARK  Name = 
REMARK  9 active torsions:
REMARK  status: ('A' for Active; 'I' for Inactive)
REMARK    1  A    between atoms: C_1  and  O_2
REMARK    2  A    between atoms: O_2  and  C_3
REMARK    3  A    between atoms: C_5  and  C_6
REMARK    4  A    between atoms: C_10  and  O_11
REMARK    5  A    between atoms: C_16  and  C_17
REMARK    6  A    between atoms: C_20  and  O_21
REMARK    7  A    between atoms: C_28  and  C_29
REMARK    8  A    between atoms: C_29  and  O_30
REMARK    9  A    between atoms: C_33  and  O_34
REMARK                            x       y       z     vdW  Elec       q    Type
REMARK                         _______ _______ _______ _____ _____    ______ ____
ROOT
ATOM      1  C   UNL     1       1.941   7.924  19.984  0.00  0.00    +0.000 C 
ATOM      2  O   UNL     1       1.844   8.602  18.721  0.00  0.00    +0.000 OA
ATOM      3  C   UNL     1       1.428   9.904  18.881  0.00  0.00    +0.000 A 
ATOM      4  C   UNL     1       2.065  10.895  18.147  0.00  0.00    +0.000 A 
ATOM      5  C   UNL     1       1.637  12.219  18.273  0.00  0.00    +0.000 A 
ATOM      6  C   UNL     1       0.516  12.544  19.060  0.00  0.00    +0.000 A 
ATOM      7  C   UNL     1       0.055  13.941  19.212  0.00  0.00    +0.000 A 
ATOM      8  O   UNL     1       0.589  14.915  18.707  0.00  0.00    +0.000 OA
ATOM      9  C   UNL     1      -1.136  14.157  20.040  0.00  0.00    +0.000 A 
ATOM     10  C   UNL     1      -1.772  13.109  20.581  0.00  0.00    +0.000 A 
ATOM     11  O   UNL     1      -1.334  11.789  20.471  0.00  0.00    +0.000 OA
ATOM     12  C   UNL     1      -0.170  11.537  19.755  0.00  0.00    +0.000 A 
ATOM     13  C   UNL     1       0.355  10.227  19.721  0.00  0.00    +0.000 A 
ATOM     14  O   UNL     1      -0.153   9.251  20.537  0.00  0.00    +0.000 OA
ATOM     15  C   UNL     1       0.903   8.395  21.043  0.00  0.00    +0.000 C 
ENDROOT
BRANCH   1  18
ATOM     16  C   UNL     1       2.497   4.384  18.555  0.00  0.00    +0.000 A 
ATOM     17  C   UNL     1       2.318   5.777  18.664  0.00  0.00    +0.000 A 
ATOM     18  C   UNL     1       1.898   6.394  19.866  0.00  0.00    +0.000 A 
ATOM     19  C   UNL     1       1.597   5.571  20.953  0.00  0.00    +0.000 A 
ATOM     20  C   UNL     1       1.765   4.182  20.857  0.00  0.00    +0.000 A 
ATOM     21  C   UNL     1       2.237   3.595  19.677  0.00  0.00    +0.000 A 
BRANCH  16  23
ATOM     22  C   UNL     1       4.347   3.947  17.086  0.00  0.00    +0.000 C 
ATOM     23  O   UNL     1       2.944   3.987  17.321  0.00  0.00    +0.000 OA
ENDBRANCH  16  23
BRANCH  21  24
ATOM     24  O   UNL     1       2.446   2.243  19.662  0.00  0.00    +0.000 OA
ATOM     25  H   UNL     1       2.740   1.953  20.540  0.00  0.00    +0.000 HD
ENDBRANCH  21  24
ENDBRANCH   1  18
BRANCH  10  26
ATOM     26  C   UNL     1      -3.053  13.364  21.285  0.00  0.00    +0.000 A 
ATOM     27  C   UNL     1      -4.207  12.619  20.983  0.00  0.00    +0.000 A 
ATOM     28  C   UNL     1      -5.452  12.957  21.541  0.00  0.00    +0.000 A 
ATOM     29  C   UNL     1      -5.550  14.044  22.405  0.00  0.00    +0.000 A 
ATOM     30  C   UNL     1      -4.427  14.796  22.724  0.00  0.00    +0.000 A 
ATOM     31  C   UNL     1      -3.185  14.451  22.164  0.00  0.00    +0.000 A 
BRANCH  29  32
ATOM     32  O   UNL     1      -6.738  14.424  22.957  0.00  0.00    +0.000 OA
ATOM     33  H   UNL     1      -6.716  14.239  23.909  0.00  0.00    +0.000 HD
ENDBRANCH  29  32
ENDBRANCH  10  26
BRANCH   5  34
ATOM     34  O   UNL     1       2.328  13.194  17.613  0.00  0.00    +0.000 OA
ATOM     35  H   UNL     1       2.962  13.634  18.201  0.00  0.00    +0.000 HD
ENDBRANCH   5  34
BRANCH  15  36
ATOM     36  C   UNL     1       1.659   9.065  22.210  0.00  0.00    +0.000 C 
BRANCH  36  37
ATOM     37  O   UNL     1       0.776   9.687  23.134  0.00  0.00    +0.000 OA
ATOM     38  H   UNL     1       0.675   9.095  23.898  0.00  0.00    +0.000 HD
ENDBRANCH  36  37
ENDBRANCH  15  36
TORSDOF 8
ENDMDL
MODEL 5
REMARK VINA RESULT:      -7.5      2.647      5.012
REMARK  Name = 
REMARK  9 active torsions:
REMARK  status: ('A' for Active; 'I' for Inactive)
REMARK    1  A    between atoms: C_1  and  O_2
REMARK    2  A    between atoms: O_2  and  C_3
REMARK    3  A    between atoms: C_5  and  C_6
REMARK    4  A    between atoms: C_10  and  O_11
REMARK    5  A    between atoms: C_16  and  C_17
REMARK    6  A    between atoms: C_20  and  O_21
REMARK    7  A    between atoms: C_28  and  C_29
REMARK    8  A    between atoms: C_29  and  O_30
REMARK    9  A    between atoms: C_33  and  O_34
REMARK                            x       y       z     vdW  Elec       q    Type
REMARK                         _______ _______ _______ _____ _____    ______ ____
ROOT
ATOM      1  C   UNL     1       1.621   7.836  18.946  0.00  0.00    +0.000 C 
ATOM      2  O   UNL     1       1.824   8.079  20.348  0.00  0.00    +0.000 OA
ATOM      3  C   UNL     1       1.159   9.210  20.762  0.00  0.00    +0.000 A 
ATOM      4  C   UNL     1       0.470   9.166  21.967  0.00  0.00    +0.000 A 
ATOM      5  C   UNL     1      -0.186  10.314  22.419  0.00  0.00    +0.000 A 
ATOM      6  C   UNL     1      -0.082  11.530  21.718  0.00  0.00    +0.000 A 
ATOM      7  C   UNL     1      -0.779  12.752  22.178  0.00  0.00    +0.000 A 
ATOM      8  O   UNL     1      -1.499  12.820  23.160  0.00  0.00    +0.000 OA
ATOM      9  C   UNL     1      -0.580  13.964  21.378  0.00  0.00    +0.000 A 
ATOM     10  C   UNL     1       0.234  13.938  20.315  0.00  0.00    +0.000 A 
ATOM     11  O   UNL     1       0.875  12.787  19.851  0.00  0.00    +0.000 OA
ATOM     12  C   UNL     1       0.664  11.595  20.533  0.00  0.00    +0.000 A 
ATOM     13  C   UNL     1       1.210  10.397  20.021  0.00  0.00    +0.000 A 
ATOM     14  O   UNL     1       1.773  10.365  18.774  0.00  0.00    +0.000 OA
ATOM     15  C   UNL     1       1.454   9.125  18.092  0.00  0.00    +0.000 C 
ENDROOT
BRANCH   1  18
ATOM     16  C   UNL     1       3.360   4.656  17.627  0.00  0.00    +0.000 A 
ATOM     17  C   UNL     1       2.529   5.530  18.354  0.00  0.00    +0.000 A 
ATOM     18  C   UNL     1       2.692   6.935  18.316  0.00  0.00    +0.000 A 
ATOM     19  C   UNL     1       3.757   7.450  17.576  0.00  0.00    +0.000 A 
ATOM     20  C   UNL     1       4.597   6.592  16.851  0.00  0.00    +0.000 A 
ATOM     21  C   UNL     1       4.384   5.207  16.855  0.00  0.00    +0.000 A 
BRANCH  16  23
ATOM     22  C   UNL     1       3.693   2.556  18.748  0.00  0.00    +0.000 C 
ATOM     23  O   UNL     1       3.017   3.336  17.766  0.00  0.00    +0.000 OA
ENDBRANCH  16  23
BRANCH  21  24
ATOM     24  O   UNL     1       5.192   4.424  16.077  0.00  0.00    +0.000 OA
ATOM     25  H   UNL     1       4.643   3.851  15.518  0.00  0.00    +0.000 HD
ENDBRANCH  21  24
ENDBRANCH   1  18
BRANCH  10  26
ATOM     26  C   UNL     1       0.519  15.221  19.628  0.00  0.00    +0.000 A 
ATOM     27  C   UNL     1      -0.525  16.036  19.151  0.00  0.00    +0.000 A 
ATOM     28  C   UNL     1      -0.255  17.174  18.373  0.00  0.00    +0.000 A 
ATOM     29  C   UNL     1       1.061  17.505  18.063  0.00  0.00    +0.000 A 
ATOM     30  C   UNL     1       2.113  16.721  18.523  0.00  0.00    +0.000 A 
ATOM     31  C   UNL     1       1.836  15.585  19.303  0.00  0.00    +0.000 A 
BRANCH  29  32
ATOM     32  O   UNL     1       1.374  18.588  17.296  0.00  0.00    +0.000 OA
ATOM     33  H   UNL     1       1.963  18.306  16.578  0.00  0.00    +0.000 HD
ENDBRANCH  29  32
ENDBRANCH  10  26
BRANCH   5  34
ATOM     34  O   UNL     1      -0.932  10.232  23.561  0.00  0.00    +0.000 OA
ATOM     35  H   UNL     1      -0.860   9.353  23.965  0.00  0.00    +0.000 HD
ENDBRANCH   5  34
BRANCH  15  36
ATOM     36  C   UNL     1       0.024   9.153  17.515  0.00  0.00    +0.000 C 
BRANCH  36  37
ATOM     37  O   UNL     1      -0.497  10.473  17.432  0.00  0.00    +0.000 OA
ATOM     38  H   UNL     1      -0.683  10.779  18.336  0.00  0.00    +0.000 HD
ENDBRANCH  36  37
ENDBRANCH  15  36
TORSDOF 8
ENDMDL
MODEL 6
REMARK VINA RESULT:      -7.5      2.988      5.424
REMARK  Name = 
REMARK  9 active torsions:
REMARK  status: ('A' for Active; 'I' for Inactive)
REMARK    1  A    between atoms: C_1  and  O_2
REMARK    2  A    between atoms: O_2  and  C_3
REMARK    3  A    between atoms: C_5  and  C_6
REMARK    4  A    between atoms: C_10  and  O_11
REMARK    5  A    between atoms: C_16  and  C_17
REMARK    6  A    between atoms: C_20  and  O_21
REMARK    7  A    between atoms: C_28  and  C_29
REMARK    8  A    between atoms: C_29  and  O_30
REMARK    9  A    between atoms: C_33  and  O_34
REMARK                            x       y       z     vdW  Elec       q    Type
REMARK                         _______ _______ _______ _____ _____    ______ ____
ROOT
ATOM      1  C   UNL     1       1.874   7.303  18.665  0.00  0.00    +0.000 C 
ATOM      2  O   UNL     1       2.098   7.478  20.074  0.00  0.00    +0.000 OA
ATOM      3  C   UNL     1       1.453   8.597  20.549  0.00  0.00    +0.000 A 
ATOM      4  C   UNL     1       0.780   8.506  21.760  0.00  0.00    +0.000 A 
ATOM      5  C   UNL     1       0.145   9.639  22.274  0.00  0.00    +0.000 A 
ATOM      6  C   UNL     1       0.257  10.886  21.628  0.00  0.00    +0.000 A 
ATOM      7  C   UNL     1      -0.417  12.094  22.154  0.00  0.00    +0.000 A 
ATOM      8  O   UNL     1      -1.124  12.126  23.147  0.00  0.00    +0.000 OA
ATOM      9  C   UNL     1      -0.211  13.340  21.409  0.00  0.00    +0.000 A 
ATOM     10  C   UNL     1       0.589  13.352  20.335  0.00  0.00    +0.000 A 
ATOM     11  O   UNL     1       1.208  12.216  19.810  0.00  0.00    +0.000 OA
ATOM     12  C   UNL     1       0.989  10.996  20.437  0.00  0.00    +0.000 A 
ATOM     13  C   UNL     1       1.512   9.816  19.864  0.00  0.00    +0.000 A 
ATOM     14  O   UNL     1       2.058   9.835  18.609  0.00  0.00    +0.000 OA
ATOM     15  C   UNL     1       1.715   8.632  17.875  0.00  0.00    +0.000 C 
ENDROOT
BRANCH   1  18
ATOM     16  C   UNL     1       5.187   6.245  16.998  0.00  0.00    +0.000 A 
ATOM     17  C   UNL     1       4.097   7.010  17.455  0.00  0.00    +0.000 A 
ATOM     18  C   UNL     1       2.924   6.418  17.980  0.00  0.00    +0.000 A 
ATOM     19  C   UNL     1       2.839   5.025  17.981  0.00  0.00    +0.000 A 
ATOM     20  C   UNL     1       3.915   4.249  17.524  0.00  0.00    +0.000 A 
ATOM     21  C   UNL     1       5.090   4.853  17.062  0.00  0.00    +0.000 A 
BRANCH  16  23
ATOM     22  C   UNL     1       7.331   7.231  17.450  0.00  0.00    +0.000 C 
ATOM     23  O   UNL     1       6.242   7.005  16.562  0.00  0.00    +0.000 OA
ENDBRANCH  16  23
BRANCH  21  24
ATOM     24  O   UNL     1       6.132   4.048  16.691  0.00  0.00    +0.000 OA
ATOM     25  H   UNL     1       5.980   3.150  17.026  0.00  0.00    +0.000 HD
ENDBRANCH  21  24
ENDBRANCH   1  18
BRANCH  10  26
ATOM     26  C   UNL     1       0.883  14.662  19.704  0.00  0.00    +0.000 A 
ATOM     27  C   UNL     1      -0.155  15.505  19.265  0.00  0.00    +0.000 A 
ATOM     28  C   UNL     1       0.122  16.674  18.538  0.00  0.00    +0.000 A 
ATOM     29  C   UNL     1       1.441  17.008  18.241  0.00  0.00    +0.000 A 
ATOM     30  C   UNL     1       2.487  16.198  18.665  0.00  0.00    +0.000 A 
ATOM     31  C   UNL     1       2.202  15.030  19.394  0.00  0.00    +0.000 A 
BRANCH  29  32
ATOM     32  O   UNL     1       1.761  18.121  17.522  0.00  0.00    +0.000 OA
ATOM     33  H   UNL     1       2.084  17.850  16.648  0.00  0.00    +0.000 HD
ENDBRANCH  29  32
ENDBRANCH  10  26
BRANCH   5  34
ATOM     34  O   UNL     1      -0.587   9.514  23.420  0.00  0.00    +0.000 OA
ATOM     35  H   UNL     1      -1.496   9.236  23.227  0.00  0.00    +0.000 HD
ENDBRANCH   5  34
BRANCH  15  36
ATOM     36  C   UNL     1       0.277   8.706  17.318  0.00  0.00    +0.000 C 
BRANCH  36  37
ATOM     37  O   UNL     1      -0.284  10.006  17.450  0.00  0.00    +0.000 OA
ATOM     38  H   UNL     1       0.249  10.498  18.097  0.00  0.00    +0.000 HD
ENDBRANCH  36  37
ENDBRANCH  15  36
TORSDOF 8
ENDMDL
MODEL 7
REMARK VINA RESULT:      -7.2      2.625      5.018
REMARK  Name = 
REMARK  9 active torsions:
REMARK  status: ('A' for Active; 'I' for Inactive)
REMARK    1  A    between atoms: C_1  and  O_2
REMARK    2  A    between atoms: O_2  and  C_3
REMARK    3  A    between atoms: C_5  and  C_6
REMARK    4  A    between atoms: C_10  and  O_11
REMARK    5  A    between atoms: C_16  and  C_17
REMARK    6  A    between atoms: C_20  and  O_21
REMARK    7  A    between atoms: C_28  and  C_29
REMARK    8  A    between atoms: C_29  and  O_30
REMARK    9  A    between atoms: C_33  and  O_34
REMARK                            x       y       z     vdW  Elec       q    Type
REMARK                         _______ _______ _______ _____ _____    ______ ____
ROOT
ATOM      1  C   UNL     1       1.846   7.498  19.100  0.00  0.00    +0.000 C 
ATOM      2  O   UNL     1       1.931   7.817  20.499  0.00  0.00    +0.000 OA
ATOM      3  C   UNL     1       1.216   8.953  20.800  0.00  0.00    +0.000 A 
ATOM      4  C   UNL     1       0.434   8.957  21.946  0.00  0.00    +0.000 A 
ATOM      5  C   UNL     1      -0.276  10.112  22.284  0.00  0.00    +0.000 A 
ATOM      6  C   UNL     1      -0.135  11.293  21.530  0.00  0.00    +0.000 A 
ATOM      7  C   UNL     1      -0.887  12.522  21.868  0.00  0.00    +0.000 A 
ATOM      8  O   UNL     1      -1.686  12.626  22.784  0.00  0.00    +0.000 OA
ATOM      9  C   UNL     1      -0.644  13.696  21.024  0.00  0.00    +0.000 A 
ATOM     10  C   UNL     1       0.253  13.632  20.032  0.00  0.00    +0.000 A 
ATOM     11  O   UNL     1       0.948  12.473  19.682  0.00  0.00    +0.000 OA
ATOM     12  C   UNL     1       0.703  11.312  20.406  0.00  0.00    +0.000 A 
ATOM     13  C   UNL     1       1.308  10.102  20.004  0.00  0.00    +0.000 A 
ATOM     14  O   UNL     1       1.970  10.018  18.808  0.00  0.00    +0.000 OA
ATOM     15  C   UNL     1       1.728   8.738  18.170  0.00  0.00    +0.000 C 
ENDROOT
BRANCH   1  18
ATOM     16  C   UNL     1       3.967   4.322  18.562  0.00  0.00    +0.000 A 
ATOM     17  C   UNL     1       3.085   5.271  19.113  0.00  0.00    +0.000 A 
ATOM     18  C   UNL     1       2.980   6.588  18.607  0.00  0.00    +0.000 A 
ATOM     19  C   UNL     1       3.831   6.959  17.565  0.00  0.00    +0.000 A 
ATOM     20  C   UNL     1       4.719   6.026  17.010  0.00  0.00    +0.000 A 
ATOM     21  C   UNL     1       4.768   4.710  17.486  0.00  0.00    +0.000 A 
BRANCH  16  23
ATOM     22  C   UNL     1       3.189   2.049  18.507  0.00  0.00    +0.000 C 
ATOM     23  O   UNL     1       3.894   3.094  19.169  0.00  0.00    +0.000 OA
ENDBRANCH  16  23
BRANCH  21  24
ATOM     24  O   UNL     1       5.604   3.824  16.864  0.00  0.00    +0.000 OA
ATOM     25  H   UNL     1       6.524   4.040  17.086  0.00  0.00    +0.000 HD
ENDBRANCH  21  24
ENDBRANCH   1  18
BRANCH  10  26
ATOM     26  C   UNL     1       0.572  14.884  19.303  0.00  0.00    +0.000 A 
ATOM     27  C   UNL     1       1.901  15.226  18.994  0.00  0.00    +0.000 A 
ATOM     28  C   UNL     1       2.215  16.477  18.437  0.00  0.00    +0.000 A 
ATOM     29  C   UNL     1       1.200  17.397  18.187  0.00  0.00    +0.000 A 
ATOM     30  C   UNL     1      -0.122  17.086  18.478  0.00  0.00    +0.000 A 
ATOM     31  C   UNL     1      -0.429  15.832  19.034  0.00  0.00    +0.000 A 
BRANCH  29  32
ATOM     32  O   UNL     1       1.455  18.631  17.666  0.00  0.00    +0.000 OA
ATOM     33  H   UNL     1       1.691  19.235  18.387  0.00  0.00    +0.000 HD
ENDBRANCH  29  32
ENDBRANCH  10  26
BRANCH   5  34
ATOM     34  O   UNL     1      -1.110  10.073  23.365  0.00  0.00    +0.000 OA
ATOM     35  H   UNL     1      -2.002  10.375  23.131  0.00  0.00    +0.000 HD
ENDBRANCH   5  34
BRANCH  15  36
ATOM     36  C   UNL     1       0.349   8.707  17.479  0.00  0.00    +0.000 C 
BRANCH  36  37
ATOM     37  O   UNL     1      -0.256   9.993  17.429  0.00  0.00    +0.000 OA
ATOM     38  H   UNL     1      -0.413  10.287  18.343  0.00  0.00    +0.000 HD
ENDBRANCH  36  37
ENDBRANCH  15  36
TORSDOF 8
ENDMDL
MODEL 8
REMARK VINA RESULT:      -7.2      2.065      8.847
REMARK  Name = 
REMARK  9 active torsions:
REMARK  status: ('A' for Active; 'I' for Inactive)
REMARK    1  A    between atoms: C_1  and  O_2
REMARK    2  A    between atoms: O_2  and  C_3
REMARK    3  A    between atoms: C_5  and  C_6
REMARK    4  A    between atoms: C_10  and  O_11
REMARK    5  A    between atoms: C_16  and  C_17
REMARK    6  A    between atoms: C_20  and  O_21
REMARK    7  A    between atoms: C_28  and  C_29
REMARK    8  A    between atoms: C_29  and  O_30
REMARK    9  A    between atoms: C_33  and  O_34
REMARK                            x       y       z     vdW  Elec       q    Type
REMARK                         _______ _______ _______ _____ _____    ______ ____
ROOT
ATOM      1  C   UNL     1      -4.049  13.842  20.578  0.00  0.00    +0.000 C 
ATOM      2  O   UNL     1      -2.894  14.587  20.998  0.00  0.00    +0.000 OA
ATOM      3  C   UNL     1      -1.768  14.200  20.309  0.00  0.00    +0.000 A 
ATOM      4  C   UNL     1      -0.904  15.184  19.850  0.00  0.00    +0.000 A 
ATOM      5  C   UNL     1       0.260  14.809  19.174  0.00  0.00    +0.000 A 
ATOM      6  C   UNL     1       0.609  13.452  19.035  0.00  0.00    +0.000 A 
ATOM      7  C   UNL     1       1.833  13.037  18.314  0.00  0.00    +0.000 A 
ATOM      8  O   UNL     1       2.619  13.797  17.773  0.00  0.00    +0.000 OA
ATOM      9  C   UNL     1       2.105  11.598  18.250  0.00  0.00    +0.000 A 
ATOM     10  C   UNL     1       1.284  10.736  18.864  0.00  0.00    +0.000 A 
ATOM     11  O   UNL     1       0.111  11.108  19.523  0.00  0.00    +0.000 OA
ATOM     12  C   UNL     1      -0.230  12.455  19.552  0.00  0.00    +0.000 A 
ATOM     13  C   UNL     1      -1.464  12.846  20.114  0.00  0.00    +0.000 A 
ATOM     14  O   UNL     1      -2.405  11.910  20.450  0.00  0.00    +0.000 OA
ATOM     15  C   UNL     1      -3.741  12.382  20.140  0.00  0.00    +0.000 C 
ENDROOT
BRANCH   1  18
ATOM     16  C   UNL     1      -7.029  12.590  22.682  0.00  0.00    +0.000 A 
ATOM     17  C   UNL     1      -6.091  12.753  21.645  0.00  0.00    +0.000 A 
ATOM     18  C   UNL     1      -5.190  13.843  21.605  0.00  0.00    +0.000 A 
ATOM     19  C   UNL     1      -5.291  14.813  22.604  0.00  0.00    +0.000 A 
ATOM     20  C   UNL     1      -6.224  14.666  23.640  0.00  0.00    +0.000 A 
ATOM     21  C   UNL     1      -7.069  13.550  23.694  0.00  0.00    +0.000 A 
BRANCH  16  23
ATOM     22  C   UNL     1      -7.916  10.858  21.272  0.00  0.00    +0.000 C 
ATOM     23  O   UNL     1      -7.784  11.452  22.559  0.00  0.00    +0.000 OA
ENDBRANCH  16  23
BRANCH  21  24
ATOM     24  O   UNL     1      -7.913  13.426  24.763  0.00  0.00    +0.000 OA
ATOM     25  H   UNL     1      -8.054  12.485  24.954  0.00  0.00    +0.000 HD
ENDBRANCH  21  24
ENDBRANCH   1  18
BRANCH  10  26
ATOM     26  C   UNL     1       1.680   9.306  18.898  0.00  0.00    +0.000 A 
ATOM     27  C   UNL     1       1.458   8.518  20.042  0.00  0.00    +0.000 A 
ATOM     28  C   UNL     1       1.964   7.211  20.129  0.00  0.00    +0.000 A 
ATOM     29  C   UNL     1       2.698   6.681  19.071  0.00  0.00    +0.000 A 
ATOM     30  C   UNL     1       2.930   7.434  17.926  0.00  0.00    +0.000 A 
ATOM     31  C   UNL     1       2.420   8.741  17.846  0.00  0.00    +0.000 A 
BRANCH  29  32
ATOM     32  O   UNL     1       3.226   5.425  19.114  0.00  0.00    +0.000 OA
ATOM     33  H   UNL     1       4.168   5.471  18.884  0.00  0.00    +0.000 HD
ENDBRANCH  29  32
ENDBRANCH  10  26
BRANCH   5  34
ATOM     34  O   UNL     1       1.055  15.788  18.651  0.00  0.00    +0.000 OA
ATOM     35  H   UNL     1       1.802  15.410  18.162  0.00  0.00    +0.000 HD
ENDBRANCH   5  34
BRANCH  15  36
ATOM     36  C   UNL     1      -4.050  12.243  18.634  0.00  0.00    +0.000 C 
BRANCH  36  37
ATOM     37  O   UNL     1      -3.769  10.938  18.146  0.00  0.00    +0.000 OA
ATOM     38  H   UNL     1      -4.241  10.825  17.304  0.00  0.00    +0.000 HD
ENDBRANCH  36  37
ENDBRANCH  15  36
TORSDOF 8
ENDMDL
MODEL 9
REMARK VINA RESULT:      -7.1      2.517      3.330
REMARK  Name = 
REMARK  9 active torsions:
REMARK  status: ('A' for Active; 'I' for Inactive)
REMARK    1  A    between atoms: C_1  and  O_2
REMARK    2  A    between atoms: O_2  and  C_3
REMARK    3  A    between atoms: C_5  and  C_6
REMARK    4  A    between atoms: C_10  and  O_11
REMARK    5  A    between atoms: C_16  and  C_17
REMARK    6  A    between atoms: C_20  and  O_21
REMARK    7  A    between atoms: C_28  and  C_29
REMARK    8  A    between atoms: C_29  and  O_30
REMARK    9  A    between atoms: C_33  and  O_34
REMARK                            x       y       z     vdW  Elec       q    Type
REMARK                         _______ _______ _______ _____ _____    ______ ____
ROOT
ATOM      1  C   UNL     1       1.356   9.303  17.866  0.00  0.00    +0.000 C 
ATOM      2  O   UNL     1       0.061   8.752  17.572  0.00  0.00    +0.000 OA
ATOM      3  C   UNL     1      -0.940   9.663  17.818  0.00  0.00    +0.000 A 
ATOM      4  C   UNL     1      -1.968   9.780  16.892  0.00  0.00    +0.000 A 
ATOM      5  C   UNL     1      -3.009  10.678  17.140  0.00  0.00    +0.000 A 
ATOM      6  C   UNL     1      -3.075  11.393  18.351  0.00  0.00    +0.000 A 
ATOM      7  C   UNL     1      -4.165  12.355  18.624  0.00  0.00    +0.000 A 
ATOM      8  O   UNL     1      -5.069  12.628  17.852  0.00  0.00    +0.000 OA
ATOM      9  C   UNL     1      -4.141  13.026  19.928  0.00  0.00    +0.000 A 
ATOM     10  C   UNL     1      -3.186  12.724  20.817  0.00  0.00    +0.000 A 
ATOM     11  O   UNL     1      -2.134  11.842  20.563  0.00  0.00    +0.000 OA
ATOM     12  C   UNL     1      -2.071  11.231  19.316  0.00  0.00    +0.000 A 
ATOM     13  C   UNL     1      -0.960  10.422  18.995  0.00  0.00    +0.000 A 
ATOM     14  O   UNL     1       0.138  10.388  19.813  0.00  0.00    +0.000 OA
ATOM     15  C   UNL     1       1.362  10.326  19.038  0.00  0.00    +0.000 C 
ENDROOT
BRANCH   1  18
ATOM     16  C   UNL     1       3.126   6.199  19.318  0.00  0.00    +0.000 A 
ATOM     17  C   UNL     1       2.284   7.317  19.165  0.00  0.00    +0.000 A 
ATOM     18  C   UNL     1       2.437   8.240  18.104  0.00  0.00    +0.000 A 
ATOM     19  C   UNL     1       3.503   8.053  17.223  0.00  0.00    +0.000 A 
ATOM     20  C   UNL     1       4.354   6.947  17.365  0.00  0.00    +0.000 A 
ATOM     21  C   UNL     1       4.151   6.012  18.388  0.00  0.00    +0.000 A 
BRANCH  16  23
ATOM     22  C   UNL     1       1.568   4.678  20.336  0.00  0.00    +0.000 C 
ATOM     23  O   UNL     1       2.791   5.406  20.385  0.00  0.00    +0.000 OA
ENDBRANCH  16  23
BRANCH  21  24
ATOM     24  O   UNL     1       4.969   4.917  18.439  0.00  0.00    +0.000 OA
ATOM     25  H   UNL     1       5.857   5.191  18.719  0.00  0.00    +0.000 HD
ENDBRANCH  21  24
ENDBRANCH   1  18
BRANCH  10  26
ATOM     26  C   UNL     1      -3.288  13.317  22.173  0.00  0.00    +0.000 A 
ATOM     27  C   UNL     1      -2.539  14.454  22.526  0.00  0.00    +0.000 A 
ATOM     28  C   UNL     1      -2.523  14.928  23.848  0.00  0.00    +0.000 A 
ATOM     29  C   UNL     1      -3.256  14.264  24.829  0.00  0.00    +0.000 A 
ATOM     30  C   UNL     1      -4.008  13.141  24.510  0.00  0.00    +0.000 A 
ATOM     31  C   UNL     1      -4.021  12.675  23.184  0.00  0.00    +0.000 A 
BRANCH  29  32
ATOM     32  O   UNL     1      -3.258  14.672  26.130  0.00  0.00    +0.000 OA
ATOM     33  H   UNL     1      -2.678  15.445  26.219  0.00  0.00    +0.000 HD
ENDBRANCH  29  32
ENDBRANCH  10  26
BRANCH   5  34
ATOM     34  O   UNL     1      -3.967  10.847  16.180  0.00  0.00    +0.000 OA
ATOM     35  H   UNL     1      -3.617  10.652  15.297  0.00  0.00    +0.000 HD
ENDBRANCH   5  34
BRANCH  15  36
ATOM     36  C   UNL     1       1.743  11.713  18.478  0.00  0.00    +0.000 C 
BRANCH  36  37
ATOM     37  O   UNL     1       2.506  11.619  17.282  0.00  0.00    +0.000 OA
ATOM     38  H   UNL     1       2.026  11.040  16.665  0.00  0.00    +0.000 HD
ENDBRANCH  36  37
ENDBRANCH  15  36
TORSDOF 8
ENDMDL
