MODEL 1
REMARK VINA RESULT:      -8.1      0.000      0.000
REMARK  Name = 
REMARK  3 active torsions:
REMARK  status: ('A' for Active; 'I' for Inactive)
REMARK    1  A    between atoms: C_2  and  C_3
REMARK    2  A    between atoms: N_5  and  C_6
REMARK    3  A    between atoms: C_6  and  C_7
REMARK                            x       y       z     vdW  Elec       q    Type
REMARK                         _______ _______ _______ _____ _____    ______ ____
ROOT
ATOM      1  C   UNL     1       3.028   5.718  18.735  0.00  0.00    +0.000 C 
ATOM      2  C   UNL     1       4.276   5.137  19.429  0.00  0.00    +0.000 C 
ATOM      3  N   UNL     1       4.912   3.998  18.730  0.00  0.00    +0.000 NA
ATOM      4  C   UNL     1       3.933   2.935  18.466  0.00  0.00    +0.000 C 
ATOM      5  C   UNL     1       2.647   3.394  17.744  0.00  0.00    +0.000 C 
ATOM      6  O   UNL     1       1.654   2.357  17.862  0.00  0.00    +0.000 OA
ATOM      7  C   UNL     1       0.747   2.711  18.921  0.00  0.00    +0.000 C 
ATOM      8  C   UNL     1       1.264   3.992  19.545  0.00  0.00    +0.000 C 
ATOM      9  C   UNL     1       2.016   4.622  18.380  0.00  0.00    +0.000 C 
ENDROOT
BRANCH   1  11
ATOM     10  O   UNL     1       2.106   6.547  20.817  0.00  0.00    +0.000 OA
ATOM     11  C   UNL     1       2.333   6.754  19.625  0.00  0.00    +0.000 C 
ATOM     12  N   UNL     1       1.835   7.855  18.970  0.00  0.00    +0.000 N 
ATOM     13  C   UNL     1       1.066   8.900  19.608  0.00  0.00    +0.000 C 
ATOM     14  C   UNL     1       0.919   9.925  18.521  0.00  0.00    +0.000 C 
ATOM     15  C   UNL     1       2.267   9.804  17.851  0.00  0.00    +0.000 C 
ATOM     16  O   UNL     1       2.586   8.399  17.895  0.00  0.00    +0.000 OA
ENDBRANCH   1  11
BRANCH   3  17
ATOM     17  C   UNL     1       5.657   4.365  17.519  0.00  0.00    +0.000 C 
BRANCH  17  18
ATOM     18  C   UNL     1       6.489   5.612  17.684  0.00  0.00    +0.000 A 
ATOM     19  C   UNL     1       7.506   5.702  18.641  0.00  0.00    +0.000 A 
ATOM     20  C   UNL     1       8.238   6.878  18.760  0.00  0.00    +0.000 A 
ATOM     21  C   UNL     1       7.934   7.929  17.910  0.00  0.00    +0.000 A 
ATOM     22  N   UNL     1       6.975   7.877  16.962  0.00  0.00    +0.000 NA
ATOM     23  C   UNL     1       6.276   6.722  16.872  0.00  0.00    +0.000 A 
ENDBRANCH  17  18
ENDBRANCH   3  17
TORSDOF 3
ENDMDL
MODEL 2
REMARK VINA RESULT:      -7.7      0.645      1.019
REMARK  Name = 
REMARK  3 active torsions:
REMARK  status: ('A' for Active; 'I' for Inactive)
REMARK    1  A    between atoms: C_2  and  C_3
REMARK    2  A    between atoms: N_5  and  C_6
REMARK    3  A    between atoms: C_6  and  C_7
REMARK                            x       y       z     vdW  Elec       q    Type
REMARK                         _______ _______ _______ _____ _____    ______ ____
ROOT
ATOM      1  C   UNL     1       2.994   5.743  18.772  0.00  0.00    +0.000 C 
ATOM      2  C   UNL     1       4.228   5.169  19.495  0.00  0.00    +0.000 C 
ATOM      3  N   UNL     1       4.894   4.041  18.806  0.00  0.00    +0.000 NA
ATOM      4  C   UNL     1       3.932   2.971  18.508  0.00  0.00    +0.000 C 
ATOM      5  C   UNL     1       2.663   3.423  17.755  0.00  0.00    +0.000 C 
ATOM      6  O   UNL     1       1.676   2.376  17.838  0.00  0.00    +0.000 OA
ATOM      7  C   UNL     1       0.738   2.713  18.875  0.00  0.00    +0.000 C 
ATOM      8  C   UNL     1       1.226   3.994  19.522  0.00  0.00    +0.000 C 
ATOM      9  C   UNL     1       2.003   4.640  18.382  0.00  0.00    +0.000 C 
ENDROOT
BRANCH   1  11
ATOM     10  O   UNL     1       1.990   6.540  20.829  0.00  0.00    +0.000 OA
ATOM     11  C   UNL     1       2.265   6.765  19.650  0.00  0.00    +0.000 C 
ATOM     12  N   UNL     1       1.794   7.878  18.994  0.00  0.00    +0.000 N 
ATOM     13  C   UNL     1       1.002   8.914  19.618  0.00  0.00    +0.000 C 
ATOM     14  C   UNL     1       0.899   9.956  18.542  0.00  0.00    +0.000 C 
ATOM     15  C   UNL     1       2.272   9.844  17.924  0.00  0.00    +0.000 C 
ATOM     16  O   UNL     1       2.589   8.438  17.958  0.00  0.00    +0.000 OA
ENDBRANCH   1  11
BRANCH   3  17
ATOM     17  C   UNL     1       5.668   4.424  17.618  0.00  0.00    +0.000 C 
BRANCH  17  18
ATOM     18  C   UNL     1       6.560   5.618  17.846  0.00  0.00    +0.000 A 
ATOM     19  C   UNL     1       6.441   6.787  17.087  0.00  0.00    +0.000 A 
ATOM     20  C   UNL     1       7.296   7.858  17.329  0.00  0.00    +0.000 A 
ATOM     21  C   UNL     1       8.241   7.727  18.334  0.00  0.00    +0.000 A 
ATOM     22  N   UNL     1       8.376   6.625  19.101  0.00  0.00    +0.000 NA
ATOM     23  C   UNL     1       7.535   5.598  18.839  0.00  0.00    +0.000 A 
ENDBRANCH  17  18
ENDBRANCH   3  17
TORSDOF 3
ENDMDL
MODEL 3
REMARK VINA RESULT:      -7.3      3.111      6.502
REMARK  Name = 
REMARK  3 active torsions:
REMARK  status: ('A' for Active; 'I' for Inactive)
REMARK    1  A    between atoms: C_2  and  C_3
REMARK    2  A    between atoms: N_5  and  C_6
REMARK    3  A    between atoms: C_6  and  C_7
REMARK                            x       y       z     vdW  Elec       q    Type
REMARK                         _______ _______ _______ _____ _____    ______ ____
ROOT
ATOM      1  C   UNL     1       5.697   4.616  16.590  0.00  0.00    +0.000 C 
ATOM      2  C   UNL     1       6.263   4.347  17.998  0.00  0.00    +0.000 C 
ATOM      3  N   UNL     1       5.248   4.131  19.054  0.00  0.00    +0.000 NA
ATOM      4  C   UNL     1       4.289   5.243  19.092  0.00  0.00    +0.000 C 
ATOM      5  C   UNL     1       3.631   5.587  17.738  0.00  0.00    +0.000 C 
ATOM      6  O   UNL     1       3.004   6.880  17.842  0.00  0.00    +0.000 OA
ATOM      7  C   UNL     1       3.876   7.861  17.252  0.00  0.00    +0.000 C 
ATOM      8  C   UNL     1       5.145   7.142  16.842  0.00  0.00    +0.000 C 
ATOM      9  C   UNL     1       4.638   5.725  16.608  0.00  0.00    +0.000 C 
ENDROOT
BRANCH   1  11
ATOM     10  O   UNL     1       7.783   5.684  15.970  0.00  0.00    +0.000 OA
ATOM     11  C   UNL     1       6.809   5.019  15.616  0.00  0.00    +0.000 C 
ATOM     12  N   UNL     1       6.567   4.732  14.293  0.00  0.00    +0.000 N 
ATOM     13  C   UNL     1       7.443   5.112  13.207  0.00  0.00    +0.000 C 
ATOM     14  C   UNL     1       6.828   4.427  12.021  0.00  0.00    +0.000 C 
ATOM     15  C   UNL     1       6.364   3.141  12.661  0.00  0.00    +0.000 C 
ATOM     16  O   UNL     1       5.906   3.516  13.975  0.00  0.00    +0.000 OA
ENDBRANCH   1  11
BRANCH   3  17
ATOM     17  C   UNL     1       4.570   2.829  18.989  0.00  0.00    +0.000 C 
BRANCH  17  18
ATOM     18  C   UNL     1       3.303   2.776  19.804  0.00  0.00    +0.000 A 
ATOM     19  C   UNL     1       2.037   2.840  19.210  0.00  0.00    +0.000 A 
ATOM     20  C   UNL     1       0.898   2.796  20.006  0.00  0.00    +0.000 A 
ATOM     21  C   UNL     1       1.061   2.682  21.378  0.00  0.00    +0.000 A 
ATOM     22  N   UNL     1       2.262   2.599  21.988  0.00  0.00    +0.000 NA
ATOM     23  C   UNL     1       3.352   2.648  21.189  0.00  0.00    +0.000 A 
ENDBRANCH  17  18
ENDBRANCH   3  17
TORSDOF 3
ENDMDL
MODEL 4
REMARK VINA RESULT:      -7.3      1.702      2.283
REMARK  Name = 
REMARK  3 active torsions:
REMARK  status: ('A' for Active; 'I' for Inactive)
REMARK    1  A    between atoms: C_2  and  C_3
REMARK    2  A    between atoms: N_5  and  C_6
REMARK    3  A    between atoms: C_6  and  C_7
REMARK                            x       y       z     vdW  Elec       q    Type
REMARK                         _______ _______ _______ _____ _____    ______ ____
ROOT
ATOM      1  C   UNL     1       2.346   5.730  19.113  0.00  0.00    +0.000 C 
ATOM      2  C   UNL     1       3.866   5.568  18.912  0.00  0.00    +0.000 C 
ATOM      3  N   UNL     1       4.285   4.305  18.265  0.00  0.00    +0.000 NA
ATOM      4  C   UNL     1       3.737   3.145  18.983  0.00  0.00    +0.000 C 
ATOM      5  C   UNL     1       2.212   3.181  19.217  0.00  0.00    +0.000 C 
ATOM      6  O   UNL     1       1.871   2.192  20.208  0.00  0.00    +0.000 OA
ATOM      7  C   UNL     1       1.713   2.851  21.477  0.00  0.00    +0.000 C 
ATOM      8  C   UNL     1       2.061   4.311  21.270  0.00  0.00    +0.000 C 
ATOM      9  C   UNL     1       1.732   4.502  19.795  0.00  0.00    +0.000 C 
ENDROOT
BRANCH   1  11
ATOM     10  O   UNL     1       2.041   6.941  21.190  0.00  0.00    +0.000 OA
ATOM     11  C   UNL     1       2.030   6.968  19.959  0.00  0.00    +0.000 C 
ATOM     12  N   UNL     1       1.574   8.060  19.260  0.00  0.00    +0.000 N 
ATOM     13  C   UNL     1       1.133   9.291  19.875  0.00  0.00    +0.000 C 
ATOM     14  C   UNL     1       0.909  10.197  18.698  0.00  0.00    +0.000 C 
ATOM     15  C   UNL     1       2.042   9.761  17.801  0.00  0.00    +0.000 C 
ATOM     16  O   UNL     1       2.145   8.335  17.989  0.00  0.00    +0.000 OA
ENDBRANCH   1  11
BRANCH   3  17
ATOM     17  C   UNL     1       4.005   4.236  16.825  0.00  0.00    +0.000 C 
BRANCH  17  18
ATOM     18  C   UNL     1       5.215   4.507  15.968  0.00  0.00    +0.000 A 
ATOM     19  C   UNL     1       5.336   3.995  14.672  0.00  0.00    +0.000 A 
ATOM     20  C   UNL     1       6.478   4.266  13.926  0.00  0.00    +0.000 A 
ATOM     21  C   UNL     1       7.464   5.053  14.499  0.00  0.00    +0.000 A 
ATOM     22  N   UNL     1       7.379   5.581  15.738  0.00  0.00    +0.000 NA
ATOM     23  C   UNL     1       6.260   5.297  16.442  0.00  0.00    +0.000 A 
ENDBRANCH  17  18
ENDBRANCH   3  17
TORSDOF 3
ENDMDL
MODEL 5
REMARK VINA RESULT:      -7.1      2.258      5.426
REMARK  Name = 
REMARK  3 active torsions:
REMARK  status: ('A' for Active; 'I' for Inactive)
REMARK    1  A    between atoms: C_2  and  C_3
REMARK    2  A    between atoms: N_5  and  C_6
REMARK    3  A    between atoms: C_6  and  C_7
REMARK                            x       y       z     vdW  Elec       q    Type
REMARK                         _______ _______ _______ _____ _____    ______ ____
ROOT
ATOM      1  C   UNL     1       4.883   4.883  18.742  0.00  0.00    +0.000 C 
ATOM      2  C   UNL     1       3.936   5.772  17.912  0.00  0.00    +0.000 C 
ATOM      3  N   UNL     1       2.574   5.933  18.468  0.00  0.00    +0.000 NA
ATOM      4  C   UNL     1       1.956   4.624  18.721  0.00  0.00    +0.000 C 
ATOM      5  C   UNL     1       2.803   3.654  19.573  0.00  0.00    +0.000 C 
ATOM      6  O   UNL     1       2.253   2.327  19.449  0.00  0.00    +0.000 OA
ATOM      7  C   UNL     1       3.039   1.594  18.493  0.00  0.00    +0.000 C 
ATOM      8  C   UNL     1       4.073   2.551  17.935  0.00  0.00    +0.000 C 
ATOM      9  C   UNL     1       4.238   3.535  19.085  0.00  0.00    +0.000 C 
ENDROOT
BRANCH   1  11
ATOM     10  O   UNL     1       7.240   4.345  18.577  0.00  0.00    +0.000 OA
ATOM     11  C   UNL     1       6.193   4.620  17.992  0.00  0.00    +0.000 C 
ATOM     12  N   UNL     1       6.159   4.871  16.641  0.00  0.00    +0.000 N 
ATOM     13  C   UNL     1       7.308   4.776  15.769  0.00  0.00    +0.000 C 
ATOM     14  C   UNL     1       6.716   4.974  14.404  0.00  0.00    +0.000 C 
ATOM     15  C   UNL     1       5.401   4.251  14.572  0.00  0.00    +0.000 C 
ATOM     16  O   UNL     1       4.981   4.540  15.920  0.00  0.00    +0.000 OA
ENDBRANCH   1  11
BRANCH   3  17
ATOM     17  C   UNL     1       2.496   6.809  19.644  0.00  0.00    +0.000 C 
BRANCH  17  18
ATOM     18  C   UNL     1       1.861   8.145  19.353  0.00  0.00    +0.000 A 
ATOM     19  C   UNL     1       1.940   8.743  18.091  0.00  0.00    +0.000 A 
ATOM     20  C   UNL     1       1.345   9.982  17.877  0.00  0.00    +0.000 A 
ATOM     21  C   UNL     1       0.680  10.582  18.934  0.00  0.00    +0.000 A 
ATOM     22  N   UNL     1       0.565  10.031  20.160  0.00  0.00    +0.000 NA
ATOM     23  C   UNL     1       1.157   8.828  20.341  0.00  0.00    +0.000 A 
ENDBRANCH  17  18
ENDBRANCH   3  17
TORSDOF 3
ENDMDL
MODEL 6
REMARK VINA RESULT:      -7.1      2.415      6.142
REMARK  Name = 
REMARK  3 active torsions:
REMARK  status: ('A' for Active; 'I' for Inactive)
REMARK    1  A    between atoms: C_2  and  C_3
REMARK    2  A    between atoms: N_5  and  C_6
REMARK    3  A    between atoms: C_6  and  C_7
REMARK                            x       y       z     vdW  Elec       q    Type
REMARK                         _______ _______ _______ _____ _____    ______ ____
ROOT
ATOM      1  C   UNL     1       3.675   5.845  19.342  0.00  0.00    +0.000 C 
ATOM      2  C   UNL     1       2.436   6.709  19.034  0.00  0.00    +0.000 C 
ATOM      3  N   UNL     1       1.469   6.843  20.146  0.00  0.00    +0.000 NA
ATOM      4  C   UNL     1       1.061   5.523  20.645  0.00  0.00    +0.000 C 
ATOM      5  C   UNL     1       2.221   4.575  21.017  0.00  0.00    +0.000 C 
ATOM      6  O   UNL     1       1.704   3.237  21.148  0.00  0.00    +0.000 OA
ATOM      7  C   UNL     1       1.988   2.515  19.936  0.00  0.00    +0.000 C 
ATOM      8  C   UNL     1       2.638   3.491  18.976  0.00  0.00    +0.000 C 
ATOM      9  C   UNL     1       3.284   4.485  19.933  0.00  0.00    +0.000 C 
ENDROOT
BRANCH   1  11
ATOM     10  O   UNL     1       4.024   5.670  16.950  0.00  0.00    +0.000 OA
ATOM     11  C   UNL     1       4.510   5.606  18.080  0.00  0.00    +0.000 C 
ATOM     12  N   UNL     1       5.790   5.155  18.296  0.00  0.00    +0.000 N 
ATOM     13  C   UNL     1       6.708   4.781  17.243  0.00  0.00    +0.000 C 
ATOM     14  C   UNL     1       7.990   4.534  17.983  0.00  0.00    +0.000 C 
ATOM     15  C   UNL     1       7.907   5.612  19.037  0.00  0.00    +0.000 C 
ATOM     16  O   UNL     1       6.514   5.678  19.401  0.00  0.00    +0.000 OA
ENDBRANCH   1  11
BRANCH   3  17
ATOM     17  C   UNL     1       1.912   7.723  21.236  0.00  0.00    +0.000 C 
BRANCH  17  18
ATOM     18  C   UNL     1       0.980   8.882  21.483  0.00  0.00    +0.000 A 
ATOM     19  C   UNL     1       0.361   9.572  20.436  0.00  0.00    +0.000 A 
ATOM     20  C   UNL     1      -0.482  10.641  20.717  0.00  0.00    +0.000 A 
ATOM     21  C   UNL     1      -0.687  10.983  22.044  0.00  0.00    +0.000 A 
ATOM     22  N   UNL     1      -0.125  10.333  23.084  0.00  0.00    +0.000 NA
ATOM     23  C   UNL     1       0.694   9.300  22.780  0.00  0.00    +0.000 A 
ENDBRANCH  17  18
ENDBRANCH   3  17
TORSDOF 3
ENDMDL
MODEL 7
REMARK VINA RESULT:      -7.0      2.249      5.386
REMARK  Name = 
REMARK  3 active torsions:
REMARK  status: ('A' for Active; 'I' for Inactive)
REMARK    1  A    between atoms: C_2  and  C_3
REMARK    2  A    between atoms: N_5  and  C_6
REMARK    3  A    between atoms: C_6  and  C_7
REMARK                            x       y       z     vdW  Elec       q    Type
REMARK                         _______ _______ _______ _____ _____    ______ ____
ROOT
ATOM      1  C   UNL     1       4.881   4.908  18.781  0.00  0.00    +0.000 C 
ATOM      2  C   UNL     1       3.942   5.803  17.947  0.00  0.00    +0.000 C 
ATOM      3  N   UNL     1       2.583   5.982  18.505  0.00  0.00    +0.000 NA
ATOM      4  C   UNL     1       1.951   4.682  18.767  0.00  0.00    +0.000 C 
ATOM      5  C   UNL     1       2.788   3.707  19.622  0.00  0.00    +0.000 C 
ATOM      6  O   UNL     1       2.223   2.386  19.507  0.00  0.00    +0.000 OA
ATOM      7  C   UNL     1       2.999   1.639  18.554  0.00  0.00    +0.000 C 
ATOM      8  C   UNL     1       4.043   2.580  17.989  0.00  0.00    +0.000 C 
ATOM      9  C   UNL     1       4.221   3.569  19.133  0.00  0.00    +0.000 C 
ENDROOT
BRANCH   1  11
ATOM     10  O   UNL     1       7.230   4.336  18.615  0.00  0.00    +0.000 OA
ATOM     11  C   UNL     1       6.186   4.625  18.030  0.00  0.00    +0.000 C 
ATOM     12  N   UNL     1       6.155   4.876  16.679  0.00  0.00    +0.000 N 
ATOM     13  C   UNL     1       7.303   4.764  15.807  0.00  0.00    +0.000 C 
ATOM     14  C   UNL     1       6.712   4.970  14.442  0.00  0.00    +0.000 C 
ATOM     15  C   UNL     1       5.387   4.266  14.611  0.00  0.00    +0.000 C 
ATOM     16  O   UNL     1       4.972   4.561  15.960  0.00  0.00    +0.000 OA
ENDBRANCH   1  11
BRANCH   3  17
ATOM     17  C   UNL     1       2.517   6.866  19.677  0.00  0.00    +0.000 C 
BRANCH  17  18
ATOM     18  C   UNL     1       1.829   8.178  19.397  0.00  0.00    +0.000 A 
ATOM     19  C   UNL     1       1.086   8.847  20.375  0.00  0.00    +0.000 A 
ATOM     20  C   UNL     1       0.461  10.050  20.064  0.00  0.00    +0.000 A 
ATOM     21  C   UNL     1       0.608  10.552  18.781  0.00  0.00    +0.000 A 
ATOM     22  N   UNL     1       1.331   9.948  17.815  0.00  0.00    +0.000 NA
ATOM     23  C   UNL     1       1.923   8.778  18.145  0.00  0.00    +0.000 A 
ENDBRANCH  17  18
ENDBRANCH   3  17
TORSDOF 3
ENDMDL
MODEL 8
REMARK VINA RESULT:      -6.9      2.380      6.101
REMARK  Name = 
REMARK  3 active torsions:
REMARK  status: ('A' for Active; 'I' for Inactive)
REMARK    1  A    between atoms: C_2  and  C_3
REMARK    2  A    between atoms: N_5  and  C_6
REMARK    3  A    between atoms: C_6  and  C_7
REMARK                            x       y       z     vdW  Elec       q    Type
REMARK                         _______ _______ _______ _____ _____    ______ ____
ROOT
ATOM      1  C   UNL     1       3.676   6.038  19.324  0.00  0.00    +0.000 C 
ATOM      2  C   UNL     1       2.403   6.856  19.030  0.00  0.00    +0.000 C 
ATOM      3  N   UNL     1       1.433   6.934  20.145  0.00  0.00    +0.000 NA
ATOM      4  C   UNL     1       1.079   5.590  20.623  0.00  0.00    +0.000 C 
ATOM      5  C   UNL     1       2.277   4.684  20.979  0.00  0.00    +0.000 C 
ATOM      6  O   UNL     1       1.814   3.324  21.089  0.00  0.00    +0.000 OA
ATOM      7  C   UNL     1       2.126   2.634  19.866  0.00  0.00    +0.000 C 
ATOM      8  C   UNL     1       2.734   3.650  18.921  0.00  0.00    +0.000 C 
ATOM      9  C   UNL     1       3.341   4.654  19.893  0.00  0.00    +0.000 C 
ENDROOT
BRANCH   1  11
ATOM     10  O   UNL     1       4.060   6.048  16.930  0.00  0.00    +0.000 OA
ATOM     11  C   UNL     1       4.518   5.852  18.057  0.00  0.00    +0.000 C 
ATOM     12  N   UNL     1       5.760   5.298  18.250  0.00  0.00    +0.000 N 
ATOM     13  C   UNL     1       6.672   4.955  17.181  0.00  0.00    +0.000 C 
ATOM     14  C   UNL     1       7.920   4.558  17.914  0.00  0.00    +0.000 C 
ATOM     15  C   UNL     1       7.888   5.543  19.058  0.00  0.00    +0.000 C 
ATOM     16  O   UNL     1       6.495   5.673  19.406  0.00  0.00    +0.000 OA
ENDBRANCH   1  11
BRANCH   3  17
ATOM     17  C   UNL     1       1.842   7.813  21.248  0.00  0.00    +0.000 C 
BRANCH  17  18
ATOM     18  C   UNL     1       0.890   8.958  21.484  0.00  0.00    +0.000 A 
ATOM     19  C   UNL     1       0.365   9.236  22.750  0.00  0.00    +0.000 A 
ATOM     20  C   UNL     1      -0.519  10.297  22.913  0.00  0.00    +0.000 A 
ATOM     21  C   UNL     1      -0.844  11.056  21.800  0.00  0.00    +0.000 A 
ATOM     22  N   UNL     1      -0.346  10.833  20.566  0.00  0.00    +0.000 NA
ATOM     23  C   UNL     1       0.507   9.791  20.437  0.00  0.00    +0.000 A 
ENDBRANCH  17  18
ENDBRANCH   3  17
TORSDOF 3
ENDMDL
MODEL 9
REMARK VINA RESULT:      -6.9      2.964      6.338
REMARK  Name = 
REMARK  3 active torsions:
REMARK  status: ('A' for Active; 'I' for Inactive)
REMARK    1  A    between atoms: C_2  and  C_3
REMARK    2  A    between atoms: N_5  and  C_6
REMARK    3  A    between atoms: C_6  and  C_7
REMARK                            x       y       z     vdW  Elec       q    Type
REMARK                         _______ _______ _______ _____ _____    ______ ____
ROOT
ATOM      1  C   UNL     1       5.671   4.512  16.851  0.00  0.00    +0.000 C 
ATOM      2  C   UNL     1       6.204   4.296  18.281  0.00  0.00    +0.000 C 
ATOM      3  N   UNL     1       5.168   4.038  19.306  0.00  0.00    +0.000 NA
ATOM      4  C   UNL     1       4.148   5.095  19.295  0.00  0.00    +0.000 C 
ATOM      5  C   UNL     1       3.518   5.382  17.915  0.00  0.00    +0.000 C 
ATOM      6  O   UNL     1       2.817   6.640  17.978  0.00  0.00    +0.000 OA
ATOM      7  C   UNL     1       3.652   7.659  17.400  0.00  0.00    +0.000 C 
ATOM      8  C   UNL     1       4.973   7.007  17.044  0.00  0.00    +0.000 C 
ATOM      9  C   UNL     1       4.553   5.560  16.816  0.00  0.00    +0.000 C 
ENDROOT
BRANCH   1  11
ATOM     10  O   UNL     1       7.765   5.604  16.303  0.00  0.00    +0.000 OA
ATOM     11  C   UNL     1       6.791   4.963  15.907  0.00  0.00    +0.000 C 
ATOM     12  N   UNL     1       6.557   4.748  14.569  0.00  0.00    +0.000 N 
ATOM     13  C   UNL     1       7.442   5.182  13.511  0.00  0.00    +0.000 C 
ATOM     14  C   UNL     1       6.832   4.564  12.286  0.00  0.00    +0.000 C 
ATOM     15  C   UNL     1       6.360   3.247  12.853  0.00  0.00    +0.000 C 
ATOM     16  O   UNL     1       5.895   3.553  14.182  0.00  0.00    +0.000 OA
ENDBRANCH   1  11
BRANCH   3  17
ATOM     17  C   UNL     1       4.566   2.700  19.241  0.00  0.00    +0.000 C 
BRANCH  17  18
ATOM     18  C   UNL     1       3.076   2.704  19.471  0.00  0.00    +0.000 A 
ATOM     19  C   UNL     1       2.519   3.015  20.716  0.00  0.00    +0.000 A 
ATOM     20  C   UNL     1       1.138   2.995  20.879  0.00  0.00    +0.000 A 
ATOM     21  C   UNL     1       0.353   2.670  19.784  0.00  0.00    +0.000 A 
ATOM     22  N   UNL     1       0.849   2.383  18.562  0.00  0.00    +0.000 NA
ATOM     23  C   UNL     1       2.195   2.406  18.435  0.00  0.00    +0.000 A 
ENDBRANCH  17  18
ENDBRANCH   3  17
TORSDOF 3
ENDMDL
