MODEL 1
REMARK VINA RESULT:      -7.8      0.000      0.000
REMARK  Name = 
REMARK  8 active torsions:
REMARK  status: ('A' for Active; 'I' for Inactive)
REMARK    1  A    between atoms: C_1  and  C_2
REMARK    2  A    between atoms: C_5  and  C_6
REMARK    3  A    between atoms: C_6  and  C_7
REMARK    4  A    between atoms: C_6  and  C_8
REMARK    5  A    between atoms: C_9  and  O_10
REMARK    6  A    between atoms: O_10  and  C_11
REMARK    7  A    between atoms: C_11  and  C_12
REMARK    8  A    between atoms: C_12  and  N_13
REMARK                            x       y       z     vdW  Elec       q    Type
REMARK                         _______ _______ _______ _____ _____    ______ ____
ROOT
ATOM      1  C   UNL     1       2.673   3.594  18.088  0.00  0.00    +0.000 C 
ENDROOT
BRANCH   1   2
ATOM      2  N   UNL     1       2.365   4.561  19.132  0.00  0.00    +0.000 N 
ATOM      3  C   UNL     1       2.176   4.310  20.511  0.00  0.00    +0.000 A 
ATOM      4  S   UNL     1       2.218   2.874  21.334  0.00  0.00    +0.000 S 
ATOM      5  N   UNL     1       1.926   5.547  21.120  0.00  0.00    +0.000 N 
ATOM      6  C   UNL     1       1.971   6.548  20.152  0.00  0.00    +0.000 A 
ATOM      7  C   UNL     1       1.783   7.910  20.279  0.00  0.00    +0.000 A 
ATOM      8 CL   UNL     1       1.428   8.634  21.791  0.00  0.00    +0.000 Cl
ATOM      9  C   UNL     1       1.886   8.686  19.124  0.00  0.00    +0.000 A 
ATOM     10  C   UNL     1       2.182   8.089  17.882  0.00  0.00    +0.000 A 
ATOM     11  C   UNL     1       2.372   6.704  17.772  0.00  0.00    +0.000 A 
ATOM     12  C   UNL     1       2.254   5.952  18.923  0.00  0.00    +0.000 A 
ATOM     13  H   UNL     1       1.749   5.688  22.106  0.00  0.00    +0.000 HD
ENDBRANCH   1   2
BRANCH   1  14
ATOM     14  C   UNL     1       4.167   3.266  17.993  0.00  0.00    +0.000 C 
BRANCH  14  15
ATOM     15  O   UNL     1       4.925   4.471  17.825  0.00  0.00    +0.000 OA
BRANCH  15  21
ATOM     16  C   UNL     1       5.661   3.398  13.051  0.00  0.00    +0.000 C 
ATOM     17  C   UNL     1       6.011   4.165  14.293  0.00  0.00    +0.000 A 
ATOM     18  C   UNL     1       7.072   5.068  14.303  0.00  0.00    +0.000 A 
ATOM     19  C   UNL     1       7.392   5.768  15.469  0.00  0.00    +0.000 A 
ATOM     20  C   UNL     1       6.663   5.580  16.657  0.00  0.00    +0.000 A 
ATOM     21  C   UNL     1       5.614   4.635  16.652  0.00  0.00    +0.000 A 
ATOM     22  C   UNL     1       5.278   3.964  15.470  0.00  0.00    +0.000 A 
BRANCH  20  23
ATOM     23  C   UNL     1       7.035   6.332  17.932  0.00  0.00    +0.000 C 
ATOM     24  C   UNL     1       7.919   5.458  18.826  0.00  0.00    +0.000 C 
ATOM     25  C   UNL     1       7.715   7.687  17.690  0.00  0.00    +0.000 C 
ENDBRANCH  20  23
ENDBRANCH  15  21
ENDBRANCH  14  15
ENDBRANCH   1  14
TORSDOF 5
ENDMDL
MODEL 2
REMARK VINA RESULT:      -7.4      3.456      6.969
REMARK  Name = 
REMARK  8 active torsions:
REMARK  status: ('A' for Active; 'I' for Inactive)
REMARK    1  A    between atoms: C_1  and  C_2
REMARK    2  A    between atoms: C_5  and  C_6
REMARK    3  A    between atoms: C_6  and  C_7
REMARK    4  A    between atoms: C_6  and  C_8
REMARK    5  A    between atoms: C_9  and  O_10
REMARK    6  A    between atoms: O_10  and  C_11
REMARK    7  A    between atoms: C_11  and  C_12
REMARK    8  A    between atoms: C_12  and  N_13
REMARK                            x       y       z     vdW  Elec       q    Type
REMARK                         _______ _______ _______ _____ _____    ______ ____
ROOT
ATOM      1  C   UNL     1       4.884   3.730  17.011  0.00  0.00    +0.000 C 
ENDROOT
BRANCH   1   2
ATOM      2  N   UNL     1       5.885   4.426  16.215  0.00  0.00    +0.000 N 
ATOM      3  C   UNL     1       6.827   5.382  16.659  0.00  0.00    +0.000 A 
ATOM      4  S   UNL     1       7.056   6.008  18.174  0.00  0.00    +0.000 S 
ATOM      5  N   UNL     1       7.591   5.751  15.543  0.00  0.00    +0.000 N 
ATOM      6  C   UNL     1       7.149   5.035  14.433  0.00  0.00    +0.000 A 
ATOM      7  C   UNL     1       7.593   5.067  13.126  0.00  0.00    +0.000 A 
ATOM      8 CL   UNL     1       8.872   6.095  12.633  0.00  0.00    +0.000 Cl
ATOM      9  C   UNL     1       6.957   4.230  12.207  0.00  0.00    +0.000 A 
ATOM     10  C   UNL     1       5.908   3.382  12.616  0.00  0.00    +0.000 A 
ATOM     11  C   UNL     1       5.471   3.361  13.948  0.00  0.00    +0.000 A 
ATOM     12  C   UNL     1       6.104   4.204  14.838  0.00  0.00    +0.000 A 
ATOM     13  H   UNL     1       8.346   6.423  15.548  0.00  0.00    +0.000 HD
ENDBRANCH   1   2
BRANCH   1  14
ATOM     14  C   UNL     1       3.454   3.942  16.501  0.00  0.00    +0.000 C 
BRANCH  14  15
ATOM     15  O   UNL     1       2.528   3.884  17.593  0.00  0.00    +0.000 OA
BRANCH  15  21
ATOM     16  C   UNL     1       2.424   8.803  18.110  0.00  0.00    +0.000 C 
ATOM     17  C   UNL     1       2.293   7.422  18.679  0.00  0.00    +0.000 A 
ATOM     18  C   UNL     1       2.031   7.225  20.034  0.00  0.00    +0.000 A 
ATOM     19  C   UNL     1       1.921   5.933  20.551  0.00  0.00    +0.000 A 
ATOM     20  C   UNL     1       2.075   4.801  19.729  0.00  0.00    +0.000 A 
ATOM     21  C   UNL     1       2.379   5.005  18.367  0.00  0.00    +0.000 A 
ATOM     22  C   UNL     1       2.453   6.305  17.849  0.00  0.00    +0.000 A 
BRANCH  20  23
ATOM     23  C   UNL     1       1.975   3.393  20.309  0.00  0.00    +0.000 C 
ATOM     24  C   UNL     1       2.171   3.428  21.827  0.00  0.00    +0.000 C 
ATOM     25  C   UNL     1       0.670   2.660  19.968  0.00  0.00    +0.000 C 
ENDBRANCH  20  23
ENDBRANCH  15  21
ENDBRANCH  14  15
ENDBRANCH   1  14
TORSDOF 5
ENDMDL
MODEL 3
REMARK VINA RESULT:      -7.4      1.971      3.070
REMARK  Name = 
REMARK  8 active torsions:
REMARK  status: ('A' for Active; 'I' for Inactive)
REMARK    1  A    between atoms: C_1  and  C_2
REMARK    2  A    between atoms: C_5  and  C_6
REMARK    3  A    between atoms: C_6  and  C_7
REMARK    4  A    between atoms: C_6  and  C_8
REMARK    5  A    between atoms: C_9  and  O_10
REMARK    6  A    between atoms: O_10  and  C_11
REMARK    7  A    between atoms: C_11  and  C_12
REMARK    8  A    between atoms: C_12  and  N_13
REMARK                            x       y       z     vdW  Elec       q    Type
REMARK                         _______ _______ _______ _____ _____    ______ ____
ROOT
ATOM      1  C   UNL     1       2.243   7.139  17.754  0.00  0.00    +0.000 C 
ENDROOT
BRANCH   1   2
ATOM      2  N   UNL     1       2.043   6.250  18.891  0.00  0.00    +0.000 N 
ATOM      3  C   UNL     1       1.817   6.611  20.239  0.00  0.00    +0.000 A 
ATOM      4  S   UNL     1       1.743   8.116  20.926  0.00  0.00    +0.000 S 
ATOM      5  N   UNL     1       1.659   5.420  20.960  0.00  0.00    +0.000 N 
ATOM      6  C   UNL     1       1.768   4.341  20.085  0.00  0.00    +0.000 A 
ATOM      7  C   UNL     1       1.687   2.986  20.337  0.00  0.00    +0.000 A 
ATOM      8 CL   UNL     1       1.418   2.378  21.917  0.00  0.00    +0.000 Cl
ATOM      9  C   UNL     1       1.836   2.118  19.255  0.00  0.00    +0.000 A 
ATOM     10  C   UNL     1       2.053   2.620  17.957  0.00  0.00    +0.000 A 
ATOM     11  C   UNL     1       2.131   4.000  17.717  0.00  0.00    +0.000 A 
ATOM     12  C   UNL     1       1.992   4.842  18.802  0.00  0.00    +0.000 A 
ATOM     13  H   UNL     1       1.486   5.357  21.954  0.00  0.00    +0.000 HD
ENDBRANCH   1   2
BRANCH   1  14
ATOM     14  C   UNL     1       3.722   7.407  17.454  0.00  0.00    +0.000 C 
BRANCH  14  15
ATOM     15  O   UNL     1       4.508   6.255  17.782  0.00  0.00    +0.000 OA
BRANCH  15  21
ATOM     16  C   UNL     1       5.266   3.830  13.537  0.00  0.00    +0.000 C 
ATOM     17  C   UNL     1       5.781   4.591  14.723  0.00  0.00    +0.000 A 
ATOM     18  C   UNL     1       7.147   4.805  14.901  0.00  0.00    +0.000 A 
ATOM     19  C   UNL     1       7.612   5.507  16.015  0.00  0.00    +0.000 A 
ATOM     20  C   UNL     1       6.725   6.010  16.984  0.00  0.00    +0.000 A 
ATOM     21  C   UNL     1       5.347   5.757  16.820  0.00  0.00    +0.000 A 
ATOM     22  C   UNL     1       4.886   5.082  15.682  0.00  0.00    +0.000 A 
BRANCH  20  23
ATOM     23  C   UNL     1       7.245   6.756  18.210  0.00  0.00    +0.000 C 
ATOM     24  C   UNL     1       8.035   5.806  19.114  0.00  0.00    +0.000 C 
ATOM     25  C   UNL     1       8.095   7.993  17.883  0.00  0.00    +0.000 C 
ENDBRANCH  20  23
ENDBRANCH  15  21
ENDBRANCH  14  15
ENDBRANCH   1  14
TORSDOF 5
ENDMDL
MODEL 4
REMARK VINA RESULT:      -7.2      3.762      7.351
REMARK  Name = 
REMARK  8 active torsions:
REMARK  status: ('A' for Active; 'I' for Inactive)
REMARK    1  A    between atoms: C_1  and  C_2
REMARK    2  A    between atoms: C_5  and  C_6
REMARK    3  A    between atoms: C_6  and  C_7
REMARK    4  A    between atoms: C_6  and  C_8
REMARK    5  A    between atoms: C_9  and  O_10
REMARK    6  A    between atoms: O_10  and  C_11
REMARK    7  A    between atoms: C_11  and  C_12
REMARK    8  A    between atoms: C_12  and  N_13
REMARK                            x       y       z     vdW  Elec       q    Type
REMARK                         _______ _______ _______ _____ _____    ______ ____
ROOT
ATOM      1  C   UNL     1       2.467   7.568  19.068  0.00  0.00    +0.000 C 
ENDROOT
BRANCH   1   2
ATOM      2  N   UNL     1       2.896   6.216  18.734  0.00  0.00    +0.000 N 
ATOM      3  C   UNL     1       3.905   5.832  17.821  0.00  0.00    +0.000 A 
ATOM      4  S   UNL     1       4.864   6.776  16.856  0.00  0.00    +0.000 S 
ATOM      5  N   UNL     1       3.975   4.433  17.854  0.00  0.00    +0.000 N 
ATOM      6  C   UNL     1       3.045   3.953  18.774  0.00  0.00    +0.000 A 
ATOM      7  C   UNL     1       2.751   2.654  19.140  0.00  0.00    +0.000 A 
ATOM      8 CL   UNL     1       3.565   1.317  18.444  0.00  0.00    +0.000 Cl
ATOM      9  C   UNL     1       1.757   2.463  20.100  0.00  0.00    +0.000 A 
ATOM     10  C   UNL     1       1.092   3.565  20.674  0.00  0.00    +0.000 A 
ATOM     11  C   UNL     1       1.404   4.878  20.293  0.00  0.00    +0.000 A 
ATOM     12  C   UNL     1       2.381   5.046  19.333  0.00  0.00    +0.000 A 
ATOM     13  H   UNL     1       4.605   3.866  17.304  0.00  0.00    +0.000 HD
ENDBRANCH   1   2
BRANCH   1  14
ATOM     14  C   UNL     1       1.871   8.321  17.874  0.00  0.00    +0.000 C 
BRANCH  14  15
ATOM     15  O   UNL     1       1.843   9.729  18.144  0.00  0.00    +0.000 OA
BRANCH  15  21
ATOM     16  C   UNL     1      -3.069   9.706  17.556  0.00  0.00    +0.000 C 
ATOM     17  C   UNL     1      -1.806  10.373  18.015  0.00  0.00    +0.000 A 
ATOM     18  C   UNL     1      -1.829  11.654  18.565  0.00  0.00    +0.000 A 
ATOM     19  C   UNL     1      -0.644  12.265  18.979  0.00  0.00    +0.000 A 
ATOM     20  C   UNL     1       0.597  11.615  18.852  0.00  0.00    +0.000 A 
ATOM     21  C   UNL     1       0.620  10.335  18.259  0.00  0.00    +0.000 A 
ATOM     22  C   UNL     1      -0.577   9.715  17.878  0.00  0.00    +0.000 A 
BRANCH  20  23
ATOM     23  C   UNL     1       1.889  12.301  19.286  0.00  0.00    +0.000 C 
ATOM     24  C   UNL     1       2.439  13.167  18.150  0.00  0.00    +0.000 C 
ATOM     25  C   UNL     1       1.760  13.141  20.566  0.00  0.00    +0.000 C 
ENDBRANCH  20  23
ENDBRANCH  15  21
ENDBRANCH  14  15
ENDBRANCH   1  14
TORSDOF 5
ENDMDL
MODEL 5
REMARK VINA RESULT:      -7.1      0.956      2.829
REMARK  Name = 
REMARK  8 active torsions:
REMARK  status: ('A' for Active; 'I' for Inactive)
REMARK    1  A    between atoms: C_1  and  C_2
REMARK    2  A    between atoms: C_5  and  C_6
REMARK    3  A    between atoms: C_6  and  C_7
REMARK    4  A    between atoms: C_6  and  C_8
REMARK    5  A    between atoms: C_9  and  O_10
REMARK    6  A    between atoms: O_10  and  C_11
REMARK    7  A    between atoms: C_11  and  C_12
REMARK    8  A    between atoms: C_12  and  N_13
REMARK                            x       y       z     vdW  Elec       q    Type
REMARK                         _______ _______ _______ _____ _____    ______ ____
ROOT
ATOM      1  C   UNL     1       2.780   3.172  18.511  0.00  0.00    +0.000 C 
ENDROOT
BRANCH   1   2
ATOM      2  N   UNL     1       2.420   4.257  19.413  0.00  0.00    +0.000 N 
ATOM      3  C   UNL     1       2.106   4.166  20.788  0.00  0.00    +0.000 A 
ATOM      4  S   UNL     1       2.027   2.830  21.763  0.00  0.00    +0.000 S 
ATOM      5  N   UNL     1       1.850   5.470  21.236  0.00  0.00    +0.000 N 
ATOM      6  C   UNL     1       2.013   6.355  20.173  0.00  0.00    +0.000 A 
ATOM      7  C   UNL     1       1.864   7.728  20.133  0.00  0.00    +0.000 A 
ATOM      8 CL   UNL     1       1.410   8.624  21.521  0.00  0.00    +0.000 Cl
ATOM      9  C   UNL     1       2.093   8.367  18.914  0.00  0.00    +0.000 A 
ATOM     10  C   UNL     1       2.471   7.628  17.776  0.00  0.00    +0.000 A 
ATOM     11  C   UNL     1       2.620   6.235  17.833  0.00  0.00    +0.000 A 
ATOM     12  C   UNL     1       2.377   5.619  19.045  0.00  0.00    +0.000 A 
ATOM     13  H   UNL     1       1.596   5.724  22.180  0.00  0.00    +0.000 HD
ENDBRANCH   1   2
BRANCH   1  14
ATOM     14  C   UNL     1       4.286   2.890  18.480  0.00  0.00    +0.000 C 
BRANCH  14  15
ATOM     15  O   UNL     1       4.896   3.589  17.387  0.00  0.00    +0.000 OA
BRANCH  15  21
ATOM     16  C   UNL     1       8.210   5.593  20.465  0.00  0.00    +0.000 C 
ATOM     17  C   UNL     1       7.497   5.560  19.146  0.00  0.00    +0.000 A 
ATOM     18  C   UNL     1       7.754   6.520  18.167  0.00  0.00    +0.000 A 
ATOM     19  C   UNL     1       7.076   6.482  16.947  0.00  0.00    +0.000 A 
ATOM     20  C   UNL     1       6.119   5.487  16.673  0.00  0.00    +0.000 A 
ATOM     21  C   UNL     1       5.835   4.542  17.681  0.00  0.00    +0.000 A 
ATOM     22  C   UNL     1       6.544   4.566  18.889  0.00  0.00    +0.000 A 
BRANCH  20  23
ATOM     23  C   UNL     1       5.367   5.468  15.345  0.00  0.00    +0.000 C 
ATOM     24  C   UNL     1       5.029   6.895  14.906  0.00  0.00    +0.000 C 
ATOM     25  C   UNL     1       6.101   4.734  14.213  0.00  0.00    +0.000 C 
ENDBRANCH  20  23
ENDBRANCH  15  21
ENDBRANCH  14  15
ENDBRANCH   1  14
TORSDOF 5
ENDMDL
MODEL 6
REMARK VINA RESULT:      -7.1      3.816      7.583
REMARK  Name = 
REMARK  8 active torsions:
REMARK  status: ('A' for Active; 'I' for Inactive)
REMARK    1  A    between atoms: C_1  and  C_2
REMARK    2  A    between atoms: C_5  and  C_6
REMARK    3  A    between atoms: C_6  and  C_7
REMARK    4  A    between atoms: C_6  and  C_8
REMARK    5  A    between atoms: C_9  and  O_10
REMARK    6  A    between atoms: O_10  and  C_11
REMARK    7  A    between atoms: C_11  and  C_12
REMARK    8  A    between atoms: C_12  and  N_13
REMARK                            x       y       z     vdW  Elec       q    Type
REMARK                         _______ _______ _______ _____ _____    ______ ____
ROOT
ATOM      1  C   UNL     1       2.414   7.540  19.463  0.00  0.00    +0.000 C 
ENDROOT
BRANCH   1   2
ATOM      2  N   UNL     1       2.833   6.226  18.993  0.00  0.00    +0.000 N 
ATOM      3  C   UNL     1       3.811   5.932  18.015  0.00  0.00    +0.000 A 
ATOM      4  S   UNL     1       4.734   6.964  17.108  0.00  0.00    +0.000 S 
ATOM      5  N   UNL     1       3.884   4.536  17.919  0.00  0.00    +0.000 N 
ATOM      6  C   UNL     1       2.987   3.970  18.822  0.00  0.00    +0.000 A 
ATOM      7  C   UNL     1       2.708   2.642  19.078  0.00  0.00    +0.000 A 
ATOM      8 CL   UNL     1       3.500   1.377  18.236  0.00  0.00    +0.000 Cl
ATOM      9  C   UNL     1       1.748   2.359  20.051  0.00  0.00    +0.000 A 
ATOM     10  C   UNL     1       1.101   3.401  20.744  0.00  0.00    +0.000 A 
ATOM     11  C   UNL     1       1.398   4.745  20.474  0.00  0.00    +0.000 A 
ATOM     12  C   UNL     1       2.341   5.004  19.500  0.00  0.00    +0.000 A 
ATOM     13  H   UNL     1       4.496   4.024  17.298  0.00  0.00    +0.000 HD
ENDBRANCH   1   2
BRANCH   1  14
ATOM     14  C   UNL     1       1.668   8.350  18.397  0.00  0.00    +0.000 C 
BRANCH  14  15
ATOM     15  O   UNL     1       1.336   9.648  18.907  0.00  0.00    +0.000 OA
BRANCH  15  21
ATOM     16  C   UNL     1      -2.701   9.975  16.066  0.00  0.00    +0.000 C 
ATOM     17  C   UNL     1      -1.950  10.307  17.322  0.00  0.00    +0.000 A 
ATOM     18  C   UNL     1      -2.507  11.137  18.293  0.00  0.00    +0.000 A 
ATOM     19  C   UNL     1      -1.793  11.444  19.453  0.00  0.00    +0.000 A 
ATOM     20  C   UNL     1      -0.500  10.934  19.672  0.00  0.00    +0.000 A 
ATOM     21  C   UNL     1       0.075  10.126  18.668  0.00  0.00    +0.000 A 
ATOM     22  C   UNL     1      -0.662   9.794  17.523  0.00  0.00    +0.000 A 
BRANCH  20  23
ATOM     23  C   UNL     1       0.282  11.295  20.932  0.00  0.00    +0.000 C 
ATOM     24  C   UNL     1      -0.028  12.733  21.356  0.00  0.00    +0.000 C 
ATOM     25  C   UNL     1       0.051  10.341  22.113  0.00  0.00    +0.000 C 
ENDBRANCH  20  23
ENDBRANCH  15  21
ENDBRANCH  14  15
ENDBRANCH   1  14
TORSDOF 5
ENDMDL
MODEL 7
REMARK VINA RESULT:      -7.0      3.562      5.343
REMARK  Name = 
REMARK  8 active torsions:
REMARK  status: ('A' for Active; 'I' for Inactive)
REMARK    1  A    between atoms: C_1  and  C_2
REMARK    2  A    between atoms: C_5  and  C_6
REMARK    3  A    between atoms: C_6  and  C_7
REMARK    4  A    between atoms: C_6  and  C_8
REMARK    5  A    between atoms: C_9  and  O_10
REMARK    6  A    between atoms: O_10  and  C_11
REMARK    7  A    between atoms: C_11  and  C_12
REMARK    8  A    between atoms: C_12  and  N_13
REMARK                            x       y       z     vdW  Elec       q    Type
REMARK                         _______ _______ _______ _____ _____    ______ ____
ROOT
ATOM      1  C   UNL     1       1.786   8.241  21.187  0.00  0.00    +0.000 C 
ENDROOT
BRANCH   1   2
ATOM      2  N   UNL     1       0.982   9.339  20.667  0.00  0.00    +0.000 N 
ATOM      3  C   UNL     1       0.941   9.823  19.339  0.00  0.00    +0.000 A 
ATOM      4  S   UNL     1       1.794   9.324  18.010  0.00  0.00    +0.000 S 
ATOM      5  N   UNL     1       0.006  10.868  19.315  0.00  0.00    +0.000 N 
ATOM      6  C   UNL     1      -0.535  11.023  20.589  0.00  0.00    +0.000 A 
ATOM      7  C   UNL     1      -1.481  11.920  21.045  0.00  0.00    +0.000 A 
ATOM      8 CL   UNL     1      -2.190  13.086  20.009  0.00  0.00    +0.000 Cl
ATOM      9  C   UNL     1      -1.840  11.850  22.392  0.00  0.00    +0.000 A 
ATOM     10  C   UNL     1      -1.258  10.888  23.241  0.00  0.00    +0.000 A 
ATOM     11  C   UNL     1      -0.301   9.983  22.761  0.00  0.00    +0.000 A 
ATOM     12  C   UNL     1       0.051  10.076  21.429  0.00  0.00    +0.000 A 
ATOM     13  H   UNL     1      -0.240  11.413  18.500  0.00  0.00    +0.000 HD
ENDBRANCH   1   2
BRANCH   1  14
ATOM     14  C   UNL     1       1.547   6.919  20.450  0.00  0.00    +0.000 C 
BRANCH  14  15
ATOM     15  O   UNL     1       2.713   6.555  19.700  0.00  0.00    +0.000 OA
BRANCH  15  21
ATOM     16  C   UNL     1       0.660   2.157  18.739  0.00  0.00    +0.000 C 
ATOM     17  C   UNL     1       1.713   3.196  18.489  0.00  0.00    +0.000 A 
ATOM     18  C   UNL     1       2.729   2.979  17.559  0.00  0.00    +0.000 A 
ATOM     19  C   UNL     1       3.707   3.952  17.343  0.00  0.00    +0.000 A 
ATOM     20  C   UNL     1       3.699   5.166  18.054  0.00  0.00    +0.000 A 
ATOM     21  C   UNL     1       2.692   5.365  19.021  0.00  0.00    +0.000 A 
ATOM     22  C   UNL     1       1.694   4.399  19.207  0.00  0.00    +0.000 A 
BRANCH  20  23
ATOM     23  C   UNL     1       4.787   6.214  17.827  0.00  0.00    +0.000 C 
ATOM     24  C   UNL     1       6.139   5.690  18.319  0.00  0.00    +0.000 C 
ATOM     25  C   UNL     1       4.909   6.692  16.373  0.00  0.00    +0.000 C 
ENDBRANCH  20  23
ENDBRANCH  15  21
ENDBRANCH  14  15
ENDBRANCH   1  14
TORSDOF 5
ENDMDL
MODEL 8
REMARK VINA RESULT:      -7.0      4.258      5.946
REMARK  Name = 
REMARK  8 active torsions:
REMARK  status: ('A' for Active; 'I' for Inactive)
REMARK    1  A    between atoms: C_1  and  C_2
REMARK    2  A    between atoms: C_5  and  C_6
REMARK    3  A    between atoms: C_6  and  C_7
REMARK    4  A    between atoms: C_6  and  C_8
REMARK    5  A    between atoms: C_9  and  O_10
REMARK    6  A    between atoms: O_10  and  C_11
REMARK    7  A    between atoms: C_11  and  C_12
REMARK    8  A    between atoms: C_12  and  N_13
REMARK                            x       y       z     vdW  Elec       q    Type
REMARK                         _______ _______ _______ _____ _____    ______ ____
ROOT
ATOM      1  C   UNL     1       1.350   9.912  17.950  0.00  0.00    +0.000 C 
ENDROOT
BRANCH   1   2
ATOM      2  N   UNL     1       0.206  10.610  18.521  0.00  0.00    +0.000 N 
ATOM      3  C   UNL     1       0.207  11.533  19.592  0.00  0.00    +0.000 A 
ATOM      4  S   UNL     1       1.470  12.067  20.520  0.00  0.00    +0.000 S 
ATOM      5  N   UNL     1      -1.118  11.955  19.768  0.00  0.00    +0.000 N 
ATOM      6  C   UNL     1      -1.925  11.325  18.823  0.00  0.00    +0.000 A 
ATOM      7  C   UNL     1      -3.286  11.425  18.615  0.00  0.00    +0.000 A 
ATOM      8 CL   UNL     1      -4.275  12.433  19.586  0.00  0.00    +0.000 Cl
ATOM      9  C   UNL     1      -3.838  10.667  17.581  0.00  0.00    +0.000 A 
ATOM     10  C   UNL     1      -3.023   9.842  16.781  0.00  0.00    +0.000 A 
ATOM     11  C   UNL     1      -1.641   9.754  17.005  0.00  0.00    +0.000 A 
ATOM     12  C   UNL     1      -1.116  10.502  18.039  0.00  0.00    +0.000 A 
ATOM     13  H   UNL     1      -1.433  12.617  20.464  0.00  0.00    +0.000 HD
ENDBRANCH   1   2
BRANCH   1  14
ATOM     14  C   UNL     1       1.774   8.685  18.763  0.00  0.00    +0.000 C 
BRANCH  14  15
ATOM     15  O   UNL     1       2.690   7.883  18.005  0.00  0.00    +0.000 OA
BRANCH  15  21
ATOM     16  C   UNL     1       1.990   4.110  21.128  0.00  0.00    +0.000 C 
ATOM     17  C   UNL     1       2.764   4.778  20.030  0.00  0.00    +0.000 A 
ATOM     18  C   UNL     1       3.919   4.197  19.510  0.00  0.00    +0.000 A 
ATOM     19  C   UNL     1       4.634   4.834  18.494  0.00  0.00    +0.000 A 
ATOM     20  C   UNL     1       4.217   6.073  17.973  0.00  0.00    +0.000 A 
ATOM     21  C   UNL     1       3.069   6.676  18.530  0.00  0.00    +0.000 A 
ATOM     22  C   UNL     1       2.338   6.013  19.524  0.00  0.00    +0.000 A 
BRANCH  20  23
ATOM     23  C   UNL     1       5.018   6.773  16.879  0.00  0.00    +0.000 C 
ATOM     24  C   UNL     1       6.388   7.197  17.413  0.00  0.00    +0.000 C 
ATOM     25  C   UNL     1       5.191   5.946  15.596  0.00  0.00    +0.000 C 
ENDBRANCH  20  23
ENDBRANCH  15  21
ENDBRANCH  14  15
ENDBRANCH   1  14
TORSDOF 5
ENDMDL
MODEL 9
REMARK VINA RESULT:      -6.9      2.089      4.163
REMARK  Name = 
REMARK  8 active torsions:
REMARK  status: ('A' for Active; 'I' for Inactive)
REMARK    1  A    between atoms: C_1  and  C_2
REMARK    2  A    between atoms: C_5  and  C_6
REMARK    3  A    between atoms: C_6  and  C_7
REMARK    4  A    between atoms: C_6  and  C_8
REMARK    5  A    between atoms: C_9  and  O_10
REMARK    6  A    between atoms: O_10  and  C_11
REMARK    7  A    between atoms: C_11  and  C_12
REMARK    8  A    between atoms: C_12  and  N_13
REMARK                            x       y       z     vdW  Elec       q    Type
REMARK                         _______ _______ _______ _____ _____    ______ ____
ROOT
ATOM      1  C   UNL     1       2.524   7.212  17.622  0.00  0.00    +0.000 C 
ENDROOT
BRANCH   1   2
ATOM      2  N   UNL     1       2.335   6.307  18.747  0.00  0.00    +0.000 N 
ATOM      3  C   UNL     1       1.961   6.642  20.069  0.00  0.00    +0.000 A 
ATOM      4  S   UNL     1       1.658   8.128  20.732  0.00  0.00    +0.000 S 
ATOM      5  N   UNL     1       1.882   5.440  20.787  0.00  0.00    +0.000 N 
ATOM      6  C   UNL     1       2.185   4.381  19.935  0.00  0.00    +0.000 A 
ATOM      7  C   UNL     1       2.239   3.025  20.194  0.00  0.00    +0.000 A 
ATOM      8 CL   UNL     1       1.915   2.392  21.753  0.00  0.00    +0.000 Cl
ATOM      9  C   UNL     1       2.575   2.179  19.136  0.00  0.00    +0.000 A 
ATOM     10  C   UNL     1       2.838   2.702  17.854  0.00  0.00    +0.000 A 
ATOM     11  C   UNL     1       2.776   4.081  17.608  0.00  0.00    +0.000 A 
ATOM     12  C   UNL     1       2.454   4.903  18.669  0.00  0.00    +0.000 A 
ATOM     13  H   UNL     1       1.637   5.359  21.764  0.00  0.00    +0.000 HD
ENDBRANCH   1   2
BRANCH   1  14
ATOM     14  C   UNL     1       3.983   7.643  17.434  0.00  0.00    +0.000 C 
BRANCH  14  15
ATOM     15  O   UNL     1       4.645   6.759  16.521  0.00  0.00    +0.000 OA
BRANCH  15  21
ATOM     16  C   UNL     1       7.834   5.591  20.119  0.00  0.00    +0.000 C 
ATOM     17  C   UNL     1       7.319   5.431  18.719  0.00  0.00    +0.000 A 
ATOM     18  C   UNL     1       7.947   4.572  17.817  0.00  0.00    +0.000 A 
ATOM     19  C   UNL     1       7.462   4.440  16.514  0.00  0.00    +0.000 A 
ATOM     20  C   UNL     1       6.340   5.166  16.075  0.00  0.00    +0.000 A 
ATOM     21  C   UNL     1       5.732   6.063  16.979  0.00  0.00    +0.000 A 
ATOM     22  C   UNL     1       6.203   6.163  18.294  0.00  0.00    +0.000 A 
BRANCH  20  23
ATOM     23  C   UNL     1       5.832   5.032  14.642  0.00  0.00    +0.000 C 
ATOM     24  C   UNL     1       7.008   5.001  13.662  0.00  0.00    +0.000 C 
ATOM     25  C   UNL     1       4.923   3.817  14.405  0.00  0.00    +0.000 C 
ENDBRANCH  20  23
ENDBRANCH  15  21
ENDBRANCH  14  15
ENDBRANCH   1  14
TORSDOF 5
ENDMDL
