MODEL 1
REMARK VINA RESULT:      -8.4      0.000      0.000
REMARK  Name = 
REMARK  9 active torsions:
REMARK  status: ('A' for Active; 'I' for Inactive)
REMARK    1  A    between atoms: C_2  and  C_4
REMARK    2  A    between atoms: C_4  and  C_5
REMARK    3  A    between atoms: C_4  and  N_9
REMARK    4  A    between atoms: C_5  and  C_6
REMARK    5  A    between atoms: C_10  and  C_12
REMARK    6  A    between atoms: C_15  and  C_16
REMARK    7  A    between atoms: C_21  and  O_22
REMARK    8  A    between atoms: O_22  and  C_23
REMARK    9  A    between atoms: C_23  and  C_24
REMARK                            x       y       z     vdW  Elec       q    Type
REMARK                         _______ _______ _______ _____ _____    ______ ____
ROOT
ATOM      1  C   UNL     1       3.592   6.881  17.813  0.00  0.00    +0.000 A 
ATOM      2  C   UNL     1       3.090   8.155  17.650  0.00  0.00    +0.000 A 
ATOM      3  C   UNL     1       2.198   8.622  18.606  0.00  0.00    +0.000 A 
ATOM      4  C   UNL     1       1.821   7.832  19.711  0.00  0.00    +0.000 A 
ATOM      5  C   UNL     1       2.408   6.562  19.795  0.00  0.00    +0.000 A 
ATOM      6  N   UNL     1       3.273   6.082  18.859  0.00  0.00    +0.000 NA
ENDROOT
BRANCH   4   7
ATOM      7  C   UNL     1       0.851   8.463  20.677  0.00  0.00    +0.000 C 
ATOM      8  C   UNL     1       1.373   8.852  22.059  0.00  0.00    +0.000 C 
ATOM      9  C   UNL     1       0.170   9.574  22.669  0.00  0.00    +0.000 C 
ATOM     10  C   UNL     1      -0.561  10.231  21.494  0.00  0.00    +0.000 C 
ATOM     11  C   UNL     1       0.134   9.733  20.223  0.00  0.00    +0.000 C 
ENDBRANCH   4   7
BRANCH   1  13
ATOM     12  N   UNL     1       4.817   4.976  16.922  0.00  0.00    +0.000 N 
ATOM     13  C   UNL     1       4.536   6.318  16.796  0.00  0.00    +0.000 C 
ATOM     14  O   UNL     1       5.011   7.034  15.918  0.00  0.00    +0.000 OA
ATOM     15  H   UNL     1       4.394   4.475  17.695  0.00  0.00    +0.000 HD
BRANCH  12  16
ATOM     16  C   UNL     1       5.740   4.279  16.012  0.00  0.00    +0.000 C 
BRANCH  16  18
ATOM     17  N   UNL     1       7.607   5.805  15.444  0.00  0.00    +0.000 N 
ATOM     18  C   UNL     1       7.194   4.747  16.213  0.00  0.00    +0.000 C 
ATOM     19  O   UNL     1       7.989   4.198  16.978  0.00  0.00    +0.000 OA
ATOM     20  H   UNL     1       8.524   6.178  15.651  0.00  0.00    +0.000 HD
ATOM     21  H   UNL     1       6.914   6.420  15.048  0.00  0.00    +0.000 HD
ENDBRANCH  16  18
BRANCH  16  22
ATOM     22  C   UNL     1       5.354   4.485  14.537  0.00  0.00    +0.000 C 
BRANCH  22  23
ATOM     23  C   UNL     1       6.027   3.513  13.604  0.00  0.00    +0.000 C 
ATOM     24  C   UNL     1       5.439   3.283  12.236  0.00  0.00    +0.000 C 
ATOM     25  C   UNL     1       6.754   3.998  12.375  0.00  0.00    +0.000 C 
ENDBRANCH  22  23
ENDBRANCH  16  22
ENDBRANCH  12  16
ENDBRANCH   1  13
BRANCH   5  26
ATOM     26  O   UNL     1       2.107   5.718  20.855  0.00  0.00    +0.000 OA
BRANCH  26  27
ATOM     27  C   UNL     1       2.435   4.354  20.525  0.00  0.00    +0.000 C 
BRANCH  27  28
ATOM     28  C   UNL     1       1.248   3.581  20.025  0.00  0.00    +0.000 C 
ATOM     29  C   UNL     1       1.049   3.212  18.577  0.00  0.00    +0.000 C 
ATOM     30  C   UNL     1       1.499   2.163  19.552  0.00  0.00    +0.000 C 
ENDBRANCH  27  28
ENDBRANCH  26  27
ENDBRANCH   5  26
TORSDOF 9
ENDMDL
MODEL 2
REMARK VINA RESULT:      -8.2      1.835      2.989
REMARK  Name = 
REMARK  9 active torsions:
REMARK  status: ('A' for Active; 'I' for Inactive)
REMARK    1  A    between atoms: C_2  and  C_4
REMARK    2  A    between atoms: C_4  and  C_5
REMARK    3  A    between atoms: C_4  and  N_9
REMARK    4  A    between atoms: C_5  and  C_6
REMARK    5  A    between atoms: C_10  and  C_12
REMARK    6  A    between atoms: C_15  and  C_16
REMARK    7  A    between atoms: C_21  and  O_22
REMARK    8  A    between atoms: O_22  and  C_23
REMARK    9  A    between atoms: C_23  and  C_24
REMARK                            x       y       z     vdW  Elec       q    Type
REMARK                         _______ _______ _______ _____ _____    ______ ____
ROOT
ATOM      1  C   UNL     1       5.182   5.297  16.279  0.00  0.00    +0.000 A 
ATOM      2  C   UNL     1       5.181   6.653  16.528  0.00  0.00    +0.000 A 
ATOM      3  C   UNL     1       4.188   7.154  17.359  0.00  0.00    +0.000 A 
ATOM      4  C   UNL     1       3.217   6.312  17.938  0.00  0.00    +0.000 A 
ATOM      5  C   UNL     1       3.322   4.946  17.639  0.00  0.00    +0.000 A 
ATOM      6  N   UNL     1       4.280   4.439  16.815  0.00  0.00    +0.000 NA
ENDROOT
BRANCH   4   7
ATOM      7  C   UNL     1       2.201   6.984  18.825  0.00  0.00    +0.000 C 
ATOM      8  C   UNL     1       2.344   6.806  20.335  0.00  0.00    +0.000 C 
ATOM      9  C   UNL     1       1.253   7.731  20.877  0.00  0.00    +0.000 C 
ATOM     10  C   UNL     1       1.137   8.875  19.864  0.00  0.00    +0.000 C 
ATOM     11  C   UNL     1       2.035   8.496  18.683  0.00  0.00    +0.000 C 
ENDBRANCH   4   7
BRANCH   1  13
ATOM     12  N   UNL     1       5.798   4.461  14.078  0.00  0.00    +0.000 N 
ATOM     13  C   UNL     1       6.214   4.708  15.367  0.00  0.00    +0.000 C 
ATOM     14  O   UNL     1       7.348   4.474  15.774  0.00  0.00    +0.000 OA
ATOM     15  H   UNL     1       4.833   4.666  13.845  0.00  0.00    +0.000 HD
BRANCH  12  16
ATOM     16  C   UNL     1       6.688   3.868  13.067  0.00  0.00    +0.000 C 
BRANCH  16  18
ATOM     17  N   UNL     1       8.379   5.678  13.130  0.00  0.00    +0.000 N 
ATOM     18  C   UNL     1       7.523   4.944  12.348  0.00  0.00    +0.000 C 
ATOM     19  O   UNL     1       7.424   5.196  11.145  0.00  0.00    +0.000 OA
ATOM     20  H   UNL     1       9.002   6.309  12.643  0.00  0.00    +0.000 HD
ATOM     21  H   UNL     1       8.671   5.301  14.018  0.00  0.00    +0.000 HD
ENDBRANCH  16  18
BRANCH  16  22
ATOM     22  C   UNL     1       5.904   3.066  12.013  0.00  0.00    +0.000 C 
BRANCH  22  23
ATOM     23  C   UNL     1       4.471   3.511  11.871  0.00  0.00    +0.000 C 
ATOM     24  C   UNL     1       3.989   4.013  10.535  0.00  0.00    +0.000 C 
ATOM     25  C   UNL     1       3.487   2.701  11.067  0.00  0.00    +0.000 C 
ENDBRANCH  22  23
ENDBRANCH  16  22
ENDBRANCH  12  16
ENDBRANCH   1  13
BRANCH   5  26
ATOM     26  O   UNL     1       2.417   4.039  18.174  0.00  0.00    +0.000 OA
BRANCH  26  27
ATOM     27  C   UNL     1       3.049   3.232  19.187  0.00  0.00    +0.000 C 
BRANCH  27  28
ATOM     28  C   UNL     1       2.057   2.594  20.117  0.00  0.00    +0.000 C 
ATOM     29  C   UNL     1       1.924   2.970  21.572  0.00  0.00    +0.000 C 
ATOM     30  C   UNL     1       0.900   3.455  20.586  0.00  0.00    +0.000 C 
ENDBRANCH  27  28
ENDBRANCH  26  27
ENDBRANCH   5  26
TORSDOF 9
ENDMDL
MODEL 3
REMARK VINA RESULT:      -7.9      1.707      2.976
REMARK  Name = 
REMARK  9 active torsions:
REMARK  status: ('A' for Active; 'I' for Inactive)
REMARK    1  A    between atoms: C_2  and  C_4
REMARK    2  A    between atoms: C_4  and  C_5
REMARK    3  A    between atoms: C_4  and  N_9
REMARK    4  A    between atoms: C_5  and  C_6
REMARK    5  A    between atoms: C_10  and  C_12
REMARK    6  A    between atoms: C_15  and  C_16
REMARK    7  A    between atoms: C_21  and  O_22
REMARK    8  A    between atoms: O_22  and  C_23
REMARK    9  A    between atoms: C_23  and  C_24
REMARK                            x       y       z     vdW  Elec       q    Type
REMARK                         _______ _______ _______ _____ _____    ______ ____
ROOT
ATOM      1  C   UNL     1       5.652   5.399  16.424  0.00  0.00    +0.000 A 
ATOM      2  C   UNL     1       5.121   6.659  16.248  0.00  0.00    +0.000 A 
ATOM      3  C   UNL     1       4.077   7.039  17.080  0.00  0.00    +0.000 A 
ATOM      4  C   UNL     1       3.578   6.177  18.077  0.00  0.00    +0.000 A 
ATOM      5  C   UNL     1       4.205   4.927  18.188  0.00  0.00    +0.000 A 
ATOM      6  N   UNL     1       5.219   4.532  17.371  0.00  0.00    +0.000 NA
ENDROOT
BRANCH   4   7
ATOM      7  C   UNL     1       2.448   6.716  18.916  0.00  0.00    +0.000 C 
ATOM      8  C   UNL     1       2.501   6.476  20.424  0.00  0.00    +0.000 C 
ATOM      9  C   UNL     1       1.298   7.279  20.924  0.00  0.00    +0.000 C 
ATOM     10  C   UNL     1       1.154   8.458  19.955  0.00  0.00    +0.000 C 
ATOM     11  C   UNL     1       2.162   8.215  18.828  0.00  0.00    +0.000 C 
ENDBRANCH   4   7
BRANCH   1  13
ATOM     12  N   UNL     1       6.560   5.111  14.184  0.00  0.00    +0.000 N 
ATOM     13  C   UNL     1       6.761   4.928  15.534  0.00  0.00    +0.000 C 
ATOM     14  O   UNL     1       7.771   4.416  16.009  0.00  0.00    +0.000 OA
ATOM     15  H   UNL     1       5.681   5.521  13.888  0.00  0.00    +0.000 HD
BRANCH  12  16
ATOM     16  C   UNL     1       7.547   4.685  13.179  0.00  0.00    +0.000 C 
BRANCH  16  18
ATOM     17  N   UNL     1       9.503   6.187  13.424  0.00  0.00    +0.000 N 
ATOM     18  C   UNL     1       8.394   5.872  12.680  0.00  0.00    +0.000 C 
ATOM     19  O   UNL     1       8.100   6.556  11.697  0.00  0.00    +0.000 OA
ATOM     20  H   UNL     1      10.114   6.894  13.039  0.00  0.00    +0.000 HD
ATOM     21  H   UNL     1       9.897   5.486  14.031  0.00  0.00    +0.000 HD
ENDBRANCH  16  18
BRANCH  16  22
ATOM     22  C   UNL     1       6.877   4.013  11.968  0.00  0.00    +0.000 C 
BRANCH  22  23
ATOM     23  C   UNL     1       5.684   3.170  12.339  0.00  0.00    +0.000 C 
ATOM     24  C   UNL     1       4.428   3.275  11.514  0.00  0.00    +0.000 C 
ATOM     25  C   UNL     1       5.251   2.018  11.468  0.00  0.00    +0.000 C 
ENDBRANCH  22  23
ENDBRANCH  16  22
ENDBRANCH  12  16
ENDBRANCH   1  13
BRANCH   5  26
ATOM     26  O   UNL     1       3.790   4.016  19.150  0.00  0.00    +0.000 OA
BRANCH  26  27
ATOM     27  C   UNL     1       3.298   2.813  18.528  0.00  0.00    +0.000 C 
BRANCH  27  28
ATOM     28  C   UNL     1       2.101   2.246  19.235  0.00  0.00    +0.000 C 
ATOM     29  C   UNL     1       1.231   3.051  20.169  0.00  0.00    +0.000 C 
ATOM     30  C   UNL     1       0.738   2.736  18.786  0.00  0.00    +0.000 C 
ENDBRANCH  27  28
ENDBRANCH  26  27
ENDBRANCH   5  26
TORSDOF 9
ENDMDL
MODEL 4
REMARK VINA RESULT:      -7.9      3.608      8.267
REMARK  Name = 
REMARK  9 active torsions:
REMARK  status: ('A' for Active; 'I' for Inactive)
REMARK    1  A    between atoms: C_2  and  C_4
REMARK    2  A    between atoms: C_4  and  C_5
REMARK    3  A    between atoms: C_4  and  N_9
REMARK    4  A    between atoms: C_5  and  C_6
REMARK    5  A    between atoms: C_10  and  C_12
REMARK    6  A    between atoms: C_15  and  C_16
REMARK    7  A    between atoms: C_21  and  O_22
REMARK    8  A    between atoms: O_22  and  C_23
REMARK    9  A    between atoms: C_23  and  C_24
REMARK                            x       y       z     vdW  Elec       q    Type
REMARK                         _______ _______ _______ _____ _____    ______ ____
ROOT
ATOM      1  C   UNL     1       1.560   8.869  19.106  0.00  0.00    +0.000 A 
ATOM      2  C   UNL     1       2.172   8.958  17.873  0.00  0.00    +0.000 A 
ATOM      3  C   UNL     1       2.986   7.904  17.481  0.00  0.00    +0.000 A 
ATOM      4  C   UNL     1       3.177   6.775  18.304  0.00  0.00    +0.000 A 
ATOM      5  C   UNL     1       2.490   6.774  19.527  0.00  0.00    +0.000 A 
ATOM      6  N   UNL     1       1.700   7.806  19.934  0.00  0.00    +0.000 NA
ENDROOT
BRANCH   4   7
ATOM      7  C   UNL     1       4.079   5.699  17.755  0.00  0.00    +0.000 C 
ATOM      8  C   UNL     1       3.445   4.363  17.374  0.00  0.00    +0.000 C 
ATOM      9  C   UNL     1       4.618   3.616  16.738  0.00  0.00    +0.000 C 
ATOM     10  C   UNL     1       5.497   4.693  16.093  0.00  0.00    +0.000 C 
ATOM     11  C   UNL     1       4.905   6.041  16.516  0.00  0.00    +0.000 C 
ENDBRANCH   4   7
BRANCH   1  13
ATOM     12  N   UNL     1       0.443  10.987  18.671  0.00  0.00    +0.000 N 
ATOM     13  C   UNL     1       0.695   9.993  19.589  0.00  0.00    +0.000 C 
ATOM     14  O   UNL     1       0.255   9.995  20.736  0.00  0.00    +0.000 OA
ATOM     15  H   UNL     1       0.871  10.907  17.757  0.00  0.00    +0.000 HD
BRANCH  12  16
ATOM     16  C   UNL     1      -0.374  12.167  18.999  0.00  0.00    +0.000 C 
BRANCH  16  18
ATOM     17  N   UNL     1      -1.859  12.034  17.019  0.00  0.00    +0.000 N 
ATOM     18  C   UNL     1      -1.785  12.065  18.389  0.00  0.00    +0.000 C 
ATOM     19  O   UNL     1      -2.820  12.056  19.059  0.00  0.00    +0.000 OA
ATOM     20  H   UNL     1      -2.773  11.861  16.623  0.00  0.00    +0.000 HD
ATOM     21  H   UNL     1      -1.045  11.757  16.494  0.00  0.00    +0.000 HD
ENDBRANCH  16  18
BRANCH  16  22
ATOM     22  C   UNL     1       0.282  13.471  18.510  0.00  0.00    +0.000 C 
BRANCH  22  23
ATOM     23  C   UNL     1      -0.380  14.710  19.054  0.00  0.00    +0.000 C 
ATOM     24  C   UNL     1       0.372  15.572  20.035  0.00  0.00    +0.000 C 
ATOM     25  C   UNL     1       0.096  16.081  18.648  0.00  0.00    +0.000 C 
ENDBRANCH  22  23
ENDBRANCH  16  22
ENDBRANCH  12  16
ENDBRANCH   1  13
BRANCH   5  26
ATOM     26  O   UNL     1       2.607   5.700  20.398  0.00  0.00    +0.000 OA
BRANCH  26  27
ATOM     27  C   UNL     1       1.334   5.046  20.570  0.00  0.00    +0.000 C 
BRANCH  27  28
ATOM     28  C   UNL     1       1.420   3.559  20.383  0.00  0.00    +0.000 C 
ATOM     29  C   UNL     1       2.675   2.762  20.638  0.00  0.00    +0.000 C 
ATOM     30  C   UNL     1       1.553   2.714  21.635  0.00  0.00    +0.000 C 
ENDBRANCH  27  28
ENDBRANCH  26  27
ENDBRANCH   5  26
TORSDOF 9
ENDMDL
MODEL 5
REMARK VINA RESULT:      -7.8      1.268      1.422
REMARK  Name = 
REMARK  9 active torsions:
REMARK  status: ('A' for Active; 'I' for Inactive)
REMARK    1  A    between atoms: C_2  and  C_4
REMARK    2  A    between atoms: C_4  and  C_5
REMARK    3  A    between atoms: C_4  and  N_9
REMARK    4  A    between atoms: C_5  and  C_6
REMARK    5  A    between atoms: C_10  and  C_12
REMARK    6  A    between atoms: C_15  and  C_16
REMARK    7  A    between atoms: C_21  and  O_22
REMARK    8  A    between atoms: O_22  and  C_23
REMARK    9  A    between atoms: C_23  and  C_24
REMARK                            x       y       z     vdW  Elec       q    Type
REMARK                         _______ _______ _______ _____ _____    ______ ____
ROOT
ATOM      1  C   UNL     1       3.709   6.120  17.942  0.00  0.00    +0.000 A 
ATOM      2  C   UNL     1       3.606   7.399  17.437  0.00  0.00    +0.000 A 
ATOM      3  C   UNL     1       2.746   8.278  18.080  0.00  0.00    +0.000 A 
ATOM      4  C   UNL     1       2.006   7.887  19.215  0.00  0.00    +0.000 A 
ATOM      5  C   UNL     1       2.203   6.572  19.662  0.00  0.00    +0.000 A 
ATOM      6  N   UNL     1       3.031   5.693  19.034  0.00  0.00    +0.000 NA
ENDROOT
BRANCH   4   7
ATOM      7  C   UNL     1       1.115   8.941  19.822  0.00  0.00    +0.000 C 
ATOM      8  C   UNL     1       1.298   9.263  21.303  0.00  0.00    +0.000 C 
ATOM      9  C   UNL     1       0.349  10.446  21.498  0.00  0.00    +0.000 C 
ATOM     10  C   UNL     1       0.329  11.189  20.158  0.00  0.00    +0.000 C 
ATOM     11  C   UNL     1       1.126  10.325  19.176  0.00  0.00    +0.000 C 
ENDBRANCH   4   7
BRANCH   1  13
ATOM     12  N   UNL     1       4.951   5.420  15.969  0.00  0.00    +0.000 N 
ATOM     13  C   UNL     1       4.602   5.124  17.268  0.00  0.00    +0.000 C 
ATOM     14  O   UNL     1       4.980   4.119  17.863  0.00  0.00    +0.000 OA
ATOM     15  H   UNL     1       4.568   6.262  15.557  0.00  0.00    +0.000 HD
BRANCH  12  16
ATOM     16  C   UNL     1       5.806   4.532  15.165  0.00  0.00    +0.000 C 
BRANCH  16  18
ATOM     17  N   UNL     1       7.938   5.484  14.334  0.00  0.00    +0.000 N 
ATOM     18  C   UNL     1       7.300   4.849  15.370  0.00  0.00    +0.000 C 
ATOM     19  O   UNL     1       7.937   4.525  16.374  0.00  0.00    +0.000 OA
ATOM     20  H   UNL     1       8.887   5.786  14.510  0.00  0.00    +0.000 HD
ATOM     21  H   UNL     1       7.386   5.993  13.661  0.00  0.00    +0.000 HD
ENDBRANCH  16  18
BRANCH  16  22
ATOM     22  C   UNL     1       5.482   4.629  13.665  0.00  0.00    +0.000 C 
BRANCH  22  23
ATOM     23  C   UNL     1       5.290   3.286  13.009  0.00  0.00    +0.000 C 
ATOM     24  C   UNL     1       4.671   3.222  11.637  0.00  0.00    +0.000 C 
ATOM     25  C   UNL     1       6.123   2.881  11.820  0.00  0.00    +0.000 C 
ENDBRANCH  22  23
ENDBRANCH  16  22
ENDBRANCH  12  16
ENDBRANCH   1  13
BRANCH   5  26
ATOM     26  O   UNL     1       1.528   6.102  20.780  0.00  0.00    +0.000 OA
BRANCH  26  27
ATOM     27  C   UNL     1       1.150   4.723  20.600  0.00  0.00    +0.000 C 
BRANCH  27  28
ATOM     28  C   UNL     1       2.007   3.781  21.395  0.00  0.00    +0.000 C 
ATOM     29  C   UNL     1       1.540   2.424  21.857  0.00  0.00    +0.000 C 
ATOM     30  C   UNL     1       2.485   2.525  20.695  0.00  0.00    +0.000 C 
ENDBRANCH  27  28
ENDBRANCH  26  27
ENDBRANCH   5  26
TORSDOF 9
ENDMDL
MODEL 6
REMARK VINA RESULT:      -7.7      3.068      7.644
REMARK  Name = 
REMARK  9 active torsions:
REMARK  status: ('A' for Active; 'I' for Inactive)
REMARK    1  A    between atoms: C_2  and  C_4
REMARK    2  A    between atoms: C_4  and  C_5
REMARK    3  A    between atoms: C_4  and  N_9
REMARK    4  A    between atoms: C_5  and  C_6
REMARK    5  A    between atoms: C_10  and  C_12
REMARK    6  A    between atoms: C_15  and  C_16
REMARK    7  A    between atoms: C_21  and  O_22
REMARK    8  A    between atoms: O_22  and  C_23
REMARK    9  A    between atoms: C_23  and  C_24
REMARK                            x       y       z     vdW  Elec       q    Type
REMARK                         _______ _______ _______ _____ _____    ______ ____
ROOT
ATOM      1  C   UNL     1       2.052   8.179  19.011  0.00  0.00    +0.000 A 
ATOM      2  C   UNL     1       2.714   8.413  17.824  0.00  0.00    +0.000 A 
ATOM      3  C   UNL     1       3.636   7.463  17.404  0.00  0.00    +0.000 A 
ATOM      4  C   UNL     1       3.885   6.296  18.154  0.00  0.00    +0.000 A 
ATOM      5  C   UNL     1       3.141   6.144  19.333  0.00  0.00    +0.000 A 
ATOM      6  N   UNL     1       2.245   7.072  19.768  0.00  0.00    +0.000 NA
ENDROOT
BRANCH   4   7
ATOM      7  C   UNL     1       4.904   5.344  17.581  0.00  0.00    +0.000 C 
ATOM      8  C   UNL     1       5.181   5.415  16.080  0.00  0.00    +0.000 C 
ATOM      9  C   UNL     1       6.342   4.432  15.917  0.00  0.00    +0.000 C 
ATOM     10  C   UNL     1       7.127   4.494  17.232  0.00  0.00    +0.000 C 
ATOM     11  C   UNL     1       6.309   5.376  18.180  0.00  0.00    +0.000 C 
ENDBRANCH   4   7
BRANCH   1  13
ATOM     12  N   UNL     1       0.689  10.159  18.627  0.00  0.00    +0.000 N 
ATOM     13  C   UNL     1       1.069   9.186  19.525  0.00  0.00    +0.000 C 
ATOM     14  O   UNL     1       0.648   9.119  20.676  0.00  0.00    +0.000 OA
ATOM     15  H   UNL     1       1.112  10.143  17.706  0.00  0.00    +0.000 HD
BRANCH  12  16
ATOM     16  C   UNL     1      -0.255  11.230  18.985  0.00  0.00    +0.000 C 
BRANCH  16  18
ATOM     17  N   UNL     1      -1.554  10.414  17.039  0.00  0.00    +0.000 N 
ATOM     18  C   UNL     1      -1.595  11.073  18.242  0.00  0.00    +0.000 C 
ATOM     19  O   UNL     1      -2.661  11.541  18.648  0.00  0.00    +0.000 OA
ATOM     20  H   UNL     1      -2.446  10.219  16.604  0.00  0.00    +0.000 HD
ATOM     21  H   UNL     1      -0.779   9.799  16.847  0.00  0.00    +0.000 HD
ENDBRANCH  16  18
BRANCH  16  22
ATOM     22  C   UNL     1       0.319  12.624  18.680  0.00  0.00    +0.000 C 
BRANCH  22  23
ATOM     23  C   UNL     1       1.824  12.650  18.627  0.00  0.00    +0.000 C 
ATOM     24  C   UNL     1       2.519  13.896  18.142  0.00  0.00    +0.000 C 
ATOM     25  C   UNL     1       2.617  13.498  19.588  0.00  0.00    +0.000 C 
ENDBRANCH  22  23
ENDBRANCH  16  22
ENDBRANCH  12  16
ENDBRANCH   1  13
BRANCH   5  26
ATOM     26  O   UNL     1       3.310   5.021  20.130  0.00  0.00    +0.000 OA
BRANCH  26  27
ATOM     27  C   UNL     1       2.220   4.895  21.065  0.00  0.00    +0.000 C 
BRANCH  27  28
ATOM     28  C   UNL     1       1.300   3.757  20.729  0.00  0.00    +0.000 C 
ATOM     29  C   UNL     1       1.774   2.459  20.122  0.00  0.00    +0.000 C 
ATOM     30  C   UNL     1       1.411   2.507  21.579  0.00  0.00    +0.000 C 
ENDBRANCH  27  28
ENDBRANCH  26  27
ENDBRANCH   5  26
TORSDOF 9
ENDMDL
MODEL 7
REMARK VINA RESULT:      -7.7      3.016      7.833
REMARK  Name = 
REMARK  9 active torsions:
REMARK  status: ('A' for Active; 'I' for Inactive)
REMARK    1  A    between atoms: C_2  and  C_4
REMARK    2  A    between atoms: C_4  and  C_5
REMARK    3  A    between atoms: C_4  and  N_9
REMARK    4  A    between atoms: C_5  and  C_6
REMARK    5  A    between atoms: C_10  and  C_12
REMARK    6  A    between atoms: C_15  and  C_16
REMARK    7  A    between atoms: C_21  and  O_22
REMARK    8  A    between atoms: O_22  and  C_23
REMARK    9  A    between atoms: C_23  and  C_24
REMARK                            x       y       z     vdW  Elec       q    Type
REMARK                         _______ _______ _______ _____ _____    ______ ____
ROOT
ATOM      1  C   UNL     1       2.136   8.086  18.977  0.00  0.00    +0.000 A 
ATOM      2  C   UNL     1       2.855   8.330  17.825  0.00  0.00    +0.000 A 
ATOM      3  C   UNL     1       3.772   7.368  17.423  0.00  0.00    +0.000 A 
ATOM      4  C   UNL     1       3.962   6.179  18.156  0.00  0.00    +0.000 A 
ATOM      5  C   UNL     1       3.163   6.019  19.298  0.00  0.00    +0.000 A 
ATOM      6  N   UNL     1       2.270   6.958  19.715  0.00  0.00    +0.000 NA
ENDROOT
BRANCH   4   7
ATOM      7  C   UNL     1       4.983   5.216  17.605  0.00  0.00    +0.000 C 
ATOM      8  C   UNL     1       4.989   4.969  16.098  0.00  0.00    +0.000 C 
ATOM      9  C   UNL     1       6.223   4.081  15.920  0.00  0.00    +0.000 C 
ATOM     10  C   UNL     1       7.205   4.510  17.015  0.00  0.00    +0.000 C 
ATOM     11  C   UNL     1       6.453   5.508  17.901  0.00  0.00    +0.000 C 
ENDBRANCH   4   7
BRANCH   1  13
ATOM     12  N   UNL     1       0.781  10.063  18.556  0.00  0.00    +0.000 N 
ATOM     13  C   UNL     1       1.154   9.104  19.470  0.00  0.00    +0.000 C 
ATOM     14  O   UNL     1       0.730   9.058  20.622  0.00  0.00    +0.000 OA
ATOM     15  H   UNL     1       1.206  10.031  17.637  0.00  0.00    +0.000 HD
BRANCH  12  16
ATOM     16  C   UNL     1      -0.161  11.143  18.893  0.00  0.00    +0.000 C 
BRANCH  16  18
ATOM     17  N   UNL     1      -1.734  12.120  17.246  0.00  0.00    +0.000 N 
ATOM     18  C   UNL     1      -1.451  11.049  18.056  0.00  0.00    +0.000 C 
ATOM     19  O   UNL     1      -2.238  10.102  18.116  0.00  0.00    +0.000 OA
ATOM     20  H   UNL     1      -2.521  12.014  16.620  0.00  0.00    +0.000 HD
ATOM     21  H   UNL     1      -0.986  12.740  16.979  0.00  0.00    +0.000 HD
ENDBRANCH  16  18
BRANCH  16  22
ATOM     22  C   UNL     1       0.463  12.533  18.684  0.00  0.00    +0.000 C 
BRANCH  22  23
ATOM     23  C   UNL     1       0.860  13.207  19.972  0.00  0.00    +0.000 C 
ATOM     24  C   UNL     1       2.323  13.389  20.283  0.00  0.00    +0.000 C 
ATOM     25  C   UNL     1       1.470  14.585  19.966  0.00  0.00    +0.000 C 
ENDBRANCH  22  23
ENDBRANCH  16  22
ENDBRANCH  12  16
ENDBRANCH   1  13
BRANCH   5  26
ATOM     26  O   UNL     1       3.270   4.874  20.075  0.00  0.00    +0.000 OA
BRANCH  26  27
ATOM     27  C   UNL     1       1.987   4.232  20.212  0.00  0.00    +0.000 C 
BRANCH  27  28
ATOM     28  C   UNL     1       1.420   3.791  18.893  0.00  0.00    +0.000 C 
ATOM     29  C   UNL     1       2.102   2.796  17.988  0.00  0.00    +0.000 C 
ATOM     30  C   UNL     1       0.917   2.364  18.803  0.00  0.00    +0.000 C 
ENDBRANCH  27  28
ENDBRANCH  26  27
ENDBRANCH   5  26
TORSDOF 9
ENDMDL
MODEL 8
REMARK VINA RESULT:      -7.7      2.823      7.591
REMARK  Name = 
REMARK  9 active torsions:
REMARK  status: ('A' for Active; 'I' for Inactive)
REMARK    1  A    between atoms: C_2  and  C_4
REMARK    2  A    between atoms: C_4  and  C_5
REMARK    3  A    between atoms: C_4  and  N_9
REMARK    4  A    between atoms: C_5  and  C_6
REMARK    5  A    between atoms: C_10  and  C_12
REMARK    6  A    between atoms: C_15  and  C_16
REMARK    7  A    between atoms: C_21  and  O_22
REMARK    8  A    between atoms: O_22  and  C_23
REMARK    9  A    between atoms: C_23  and  C_24
REMARK                            x       y       z     vdW  Elec       q    Type
REMARK                         _______ _______ _______ _____ _____    ______ ____
ROOT
ATOM      1  C   UNL     1       2.081   8.189  19.042  0.00  0.00    +0.000 A 
ATOM      2  C   UNL     1       2.745   8.477  17.868  0.00  0.00    +0.000 A 
ATOM      3  C   UNL     1       3.639   7.531  17.385  0.00  0.00    +0.000 A 
ATOM      4  C   UNL     1       3.860   6.314  18.060  0.00  0.00    +0.000 A 
ATOM      5  C   UNL     1       3.117   6.110  19.232  0.00  0.00    +0.000 A 
ATOM      6  N   UNL     1       2.247   7.032  19.728  0.00  0.00    +0.000 NA
ENDROOT
BRANCH   4   7
ATOM      7  C   UNL     1       4.851   5.373  17.424  0.00  0.00    +0.000 C 
ATOM      8  C   UNL     1       5.121   5.526  15.929  0.00  0.00    +0.000 C 
ATOM      9  C   UNL     1       6.256   4.526  15.699  0.00  0.00    +0.000 C 
ATOM     10  C   UNL     1       7.049   4.489  17.009  0.00  0.00    +0.000 C 
ATOM     11  C   UNL     1       6.260   5.333  18.014  0.00  0.00    +0.000 C 
ENDBRANCH   4   7
BRANCH   1  13
ATOM     12  N   UNL     1       1.050  10.392  18.958  0.00  0.00    +0.000 N 
ATOM     13  C   UNL     1       1.127   9.188  19.621  0.00  0.00    +0.000 C 
ATOM     14  O   UNL     1       0.472   8.918  20.624  0.00  0.00    +0.000 OA
ATOM     15  H   UNL     1       1.650  10.528  18.153  0.00  0.00    +0.000 HD
BRANCH  12  16
ATOM     16  C   UNL     1       0.173  11.483  19.413  0.00  0.00    +0.000 C 
BRANCH  16  18
ATOM     17  N   UNL     1      -0.529  11.617  21.786  0.00  0.00    +0.000 N 
ATOM     18  C   UNL     1       0.465  11.871  20.875  0.00  0.00    +0.000 C 
ATOM     19  O   UNL     1       1.505  12.424  21.241  0.00  0.00    +0.000 OA
ATOM     20  H   UNL     1      -0.297  11.773  22.758  0.00  0.00    +0.000 HD
ATOM     21  H   UNL     1      -1.231  10.930  21.561  0.00  0.00    +0.000 HD
ENDBRANCH  16  18
BRANCH  16  22
ATOM     22  C   UNL     1      -1.315  11.111  19.289  0.00  0.00    +0.000 C 
BRANCH  22  23
ATOM     23  C   UNL     1      -1.826  11.169  17.873  0.00  0.00    +0.000 C 
ATOM     24  C   UNL     1      -1.945   9.890  17.085  0.00  0.00    +0.000 C 
ATOM     25  C   UNL     1      -3.185  10.620  17.519  0.00  0.00    +0.000 C 
ENDBRANCH  22  23
ENDBRANCH  16  22
ENDBRANCH  12  16
ENDBRANCH   1  13
BRANCH   5  26
ATOM     26  O   UNL     1       3.258   4.935  19.957  0.00  0.00    +0.000 OA
BRANCH  26  27
ATOM     27  C   UNL     1       1.983   4.282  20.117  0.00  0.00    +0.000 C 
BRANCH  27  28
ATOM     28  C   UNL     1       1.443   3.749  18.821  0.00  0.00    +0.000 C 
ATOM     29  C   UNL     1       2.187   2.764  17.955  0.00  0.00    +0.000 C 
ATOM     30  C   UNL     1       1.035   2.289  18.793  0.00  0.00    +0.000 C 
ENDBRANCH  27  28
ENDBRANCH  26  27
ENDBRANCH   5  26
TORSDOF 9
ENDMDL
MODEL 9
REMARK VINA RESULT:      -7.7      1.139      1.176
REMARK  Name = 
REMARK  9 active torsions:
REMARK  status: ('A' for Active; 'I' for Inactive)
REMARK    1  A    between atoms: C_2  and  C_4
REMARK    2  A    between atoms: C_4  and  C_5
REMARK    3  A    between atoms: C_4  and  N_9
REMARK    4  A    between atoms: C_5  and  C_6
REMARK    5  A    between atoms: C_10  and  C_12
REMARK    6  A    between atoms: C_15  and  C_16
REMARK    7  A    between atoms: C_21  and  O_22
REMARK    8  A    between atoms: O_22  and  C_23
REMARK    9  A    between atoms: C_23  and  C_24
REMARK                            x       y       z     vdW  Elec       q    Type
REMARK                         _______ _______ _______ _____ _____    ______ ____
ROOT
ATOM      1  C   UNL     1       3.824   6.089  18.218  0.00  0.00    +0.000 A 
ATOM      2  C   UNL     1       3.553   7.381  17.820  0.00  0.00    +0.000 A 
ATOM      3  C   UNL     1       2.596   8.087  18.536  0.00  0.00    +0.000 A 
ATOM      4  C   UNL     1       1.926   7.514  19.635  0.00  0.00    +0.000 A 
ATOM      5  C   UNL     1       2.293   6.203  19.972  0.00  0.00    +0.000 A 
ATOM      6  N   UNL     1       3.219   5.491  19.272  0.00  0.00    +0.000 NA
ENDROOT
BRANCH   4   7
ATOM      7  C   UNL     1       0.915   8.392  20.328  0.00  0.00    +0.000 C 
ATOM      8  C   UNL     1       1.213   8.829  21.761  0.00  0.00    +0.000 C 
ATOM      9  C   UNL     1       0.065   9.798  22.051  0.00  0.00    +0.000 C 
ATOM     10  C   UNL     1      -0.284  10.443  20.705  0.00  0.00    +0.000 C 
ATOM     11  C   UNL     1       0.548   9.710  19.648  0.00  0.00    +0.000 C 
ENDBRANCH   4   7
BRANCH   1  13
ATOM     12  N   UNL     1       4.946   5.566  16.123  0.00  0.00    +0.000 N 
ATOM     13  C   UNL     1       4.829   5.274  17.463  0.00  0.00    +0.000 C 
ATOM     14  O   UNL     1       5.488   4.408  18.032  0.00  0.00    +0.000 OA
ATOM     15  H   UNL     1       4.339   6.281  15.740  0.00  0.00    +0.000 HD
BRANCH  12  16
ATOM     16  C   UNL     1       5.875   4.841  15.240  0.00  0.00    +0.000 C 
BRANCH  16  18
ATOM     17  N   UNL     1       7.610   6.234  16.330  0.00  0.00    +0.000 N 
ATOM     18  C   UNL     1       7.268   5.498  15.224  0.00  0.00    +0.000 C 
ATOM     19  O   UNL     1       8.045   5.429  14.269  0.00  0.00    +0.000 OA
ATOM     20  H   UNL     1       8.562   6.575  16.365  0.00  0.00    +0.000 HD
ATOM     21  H   UNL     1       7.127   6.063  17.198  0.00  0.00    +0.000 HD
ENDBRANCH  16  18
BRANCH  16  22
ATOM     22  C   UNL     1       5.349   4.762  13.797  0.00  0.00    +0.000 C 
BRANCH  22  23
ATOM     23  C   UNL     1       5.543   3.407  13.166  0.00  0.00    +0.000 C 
ATOM     24  C   UNL     1       4.969   3.148  11.797  0.00  0.00    +0.000 C 
ATOM     25  C   UNL     1       6.458   3.231  11.981  0.00  0.00    +0.000 C 
ENDBRANCH  22  23
ENDBRANCH  16  22
ENDBRANCH  12  16
ENDBRANCH   1  13
BRANCH   5  26
ATOM     26  O   UNL     1       1.697   5.560  21.048  0.00  0.00    +0.000 OA
BRANCH  26  27
ATOM     27  C   UNL     1       2.302   4.271  21.266  0.00  0.00    +0.000 C 
BRANCH  27  28
ATOM     28  C   UNL     1       1.366   3.136  20.967  0.00  0.00    +0.000 C 
ATOM     29  C   UNL     1       0.573   3.030  19.688  0.00  0.00    +0.000 C 
ATOM     30  C   UNL     1       1.784   2.164  19.882  0.00  0.00    +0.000 C 
ENDBRANCH  27  28
ENDBRANCH  26  27
ENDBRANCH   5  26
TORSDOF 9
ENDMDL
