MODEL 1
REMARK VINA RESULT:      -8.0      0.000      0.000
REMARK  Name = 
REMARK  8 active torsions:
REMARK  status: ('A' for Active; 'I' for Inactive)
REMARK    1  A    between atoms: C_1  and  C_2
REMARK    2  A    between atoms: N_4  and  C_5
REMARK    3  A    between atoms: C_8  and  O_9
REMARK    4  A    between atoms: O_9  and  C_10
REMARK    5  A    between atoms: C_10  and  C_11
REMARK    6  A    between atoms: C_14  and  S_15
REMARK    7  A    between atoms: S_15  and  C_16
REMARK    8  A    between atoms: C_16  and  C_17
REMARK                            x       y       z     vdW  Elec       q    Type
REMARK                         _______ _______ _______ _____ _____    ______ ____
ROOT
ATOM      1  C   UNL     1       7.751   7.390  18.071  0.00  0.00    +0.000 A 
ATOM      2  N   UNL     1       8.174   6.464  18.906  0.00  0.00    +0.000 NA
ATOM      3  N   UNL     1       7.359   5.371  18.716  0.00  0.00    +0.000 NA
ATOM      4  C   UNL     1       6.489   5.687  17.777  0.00  0.00    +0.000 A 
ATOM      5  O   UNL     1       6.678   6.970  17.313  0.00  0.00    +0.000 OA
ENDROOT
BRANCH   1   6
ATOM      6  C   UNL     1       8.217   8.798  17.936  0.00  0.00    +0.000 C 
BRANCH   6   7
ATOM      7  O   UNL     1       8.804   9.190  19.180  0.00  0.00    +0.000 OA
BRANCH   7  11
ATOM      8  C   UNL     1      10.547  12.997  18.945  0.00  0.00    +0.000 A 
ATOM      9  C   UNL     1      10.069  12.320  17.823  0.00  0.00    +0.000 A 
ATOM     10  C   UNL     1       9.503  11.045  17.940  0.00  0.00    +0.000 A 
ATOM     11  C   UNL     1       9.415  10.416  19.181  0.00  0.00    +0.000 A 
ATOM     12  C   UNL     1       9.893  11.082  20.309  0.00  0.00    +0.000 A 
ATOM     13  C   UNL     1      10.469  12.358  20.189  0.00  0.00    +0.000 A 
BRANCH   8  17
ATOM     14  C   UNL     1      11.311  16.686  18.726  0.00  0.00    +0.000 C 
ATOM     15  C   UNL     1      10.413  15.484  18.871  0.00  0.00    +0.000 C 
ATOM     16  O   UNL     1       9.198  15.624  18.953  0.00  0.00    +0.000 OA
ATOM     17  N   UNL     1      11.114  14.288  18.891  0.00  0.00    +0.000 N 
ATOM     18  H   UNL     1      12.121  14.346  18.968  0.00  0.00    +0.000 HD
ENDBRANCH   8  17
ENDBRANCH   7  11
ENDBRANCH   6   7
ENDBRANCH   1   6
BRANCH   4  19
ATOM     19  S   UNL     1       5.214   4.605  17.295  0.00  0.00    +0.000 S 
BRANCH  19  20
ATOM     20  C   UNL     1       3.720   5.604  17.513  0.00  0.00    +0.000 C 
BRANCH  20  21
ATOM     21  C   UNL     1       2.732   4.950  18.455  0.00  0.00    +0.000 A 
ATOM     22  C   UNL     1       2.496   5.469  19.739  0.00  0.00    +0.000 A 
ATOM     23  C   UNL     1       1.591   4.847  20.608  0.00  0.00    +0.000 A 
ATOM     24  C   UNL     1       0.904   3.702  20.201  0.00  0.00    +0.000 A 
ATOM     25  C   UNL     1       1.116   3.184  18.925  0.00  0.00    +0.000 A 
ATOM     26  C   UNL     1       2.019   3.807  18.068  0.00  0.00    +0.000 A 
ATOM     27  F   UNL     1       2.209   3.285  16.846  0.00  0.00    +0.000 F 
ENDBRANCH  20  21
ENDBRANCH  19  20
ENDBRANCH   4  19
TORSDOF 7
ENDMDL
MODEL 2
REMARK VINA RESULT:      -8.0      0.503      1.045
REMARK  Name = 
REMARK  8 active torsions:
REMARK  status: ('A' for Active; 'I' for Inactive)
REMARK    1  A    between atoms: C_1  and  C_2
REMARK    2  A    between atoms: N_4  and  C_5
REMARK    3  A    between atoms: C_8  and  O_9
REMARK    4  A    between atoms: O_9  and  C_10
REMARK    5  A    between atoms: C_10  and  C_11
REMARK    6  A    between atoms: C_14  and  S_15
REMARK    7  A    between atoms: S_15  and  C_16
REMARK    8  A    between atoms: C_16  and  C_17
REMARK                            x       y       z     vdW  Elec       q    Type
REMARK                         _______ _______ _______ _____ _____    ______ ____
ROOT
ATOM      1  C   UNL     1       7.654   7.208  18.017  0.00  0.00    +0.000 A 
ATOM      2  N   UNL     1       8.059   6.356  18.934  0.00  0.00    +0.000 NA
ATOM      3  N   UNL     1       7.263   5.240  18.803  0.00  0.00    +0.000 NA
ATOM      4  C   UNL     1       6.422   5.471  17.815  0.00  0.00    +0.000 A 
ATOM      5  O   UNL     1       6.612   6.717  17.259  0.00  0.00    +0.000 OA
ENDROOT
BRANCH   1   6
ATOM      6  C   UNL     1       8.108   8.608  17.789  0.00  0.00    +0.000 C 
BRANCH   6   7
ATOM      7  O   UNL     1       8.809   9.042  18.957  0.00  0.00    +0.000 OA
BRANCH   7  11
ATOM      8  C   UNL     1      10.195  12.995  19.138  0.00  0.00    +0.000 A 
ATOM      9  C   UNL     1      10.402  12.080  20.170  0.00  0.00    +0.000 A 
ATOM     10  C   UNL     1       9.915  10.771  20.078  0.00  0.00    +0.000 A 
ATOM     11  C   UNL     1       9.199  10.355  18.956  0.00  0.00    +0.000 A 
ATOM     12  C   UNL     1       8.983  11.263  17.920  0.00  0.00    +0.000 A 
ATOM     13  C   UNL     1       9.465  12.579  18.018  0.00  0.00    +0.000 A 
BRANCH   8  17
ATOM     14  C   UNL     1      10.746  16.712  19.485  0.00  0.00    +0.000 C 
ATOM     15  C   UNL     1       9.996  15.420  19.679  0.00  0.00    +0.000 C 
ATOM     16  O   UNL     1       8.903  15.414  20.234  0.00  0.00    +0.000 OA
ATOM     17  N   UNL     1      10.674  14.322  19.169  0.00  0.00    +0.000 N 
ATOM     18  H   UNL     1      11.631  14.467  18.879  0.00  0.00    +0.000 HD
ENDBRANCH   8  17
ENDBRANCH   7  11
ENDBRANCH   6   7
ENDBRANCH   1   6
BRANCH   4  19
ATOM     19  S   UNL     1       5.175   4.337  17.377  0.00  0.00    +0.000 S 
BRANCH  19  20
ATOM     20  C   UNL     1       3.657   5.306  17.550  0.00  0.00    +0.000 C 
BRANCH  20  21
ATOM     21  C   UNL     1       2.654   4.633  18.462  0.00  0.00    +0.000 A 
ATOM     22  C   UNL     1       2.311   5.190  19.705  0.00  0.00    +0.000 A 
ATOM     23  C   UNL     1       1.392   4.550  20.548  0.00  0.00    +0.000 A 
ATOM     24  C   UNL     1       0.800   3.349  20.154  0.00  0.00    +0.000 A 
ATOM     25  C   UNL     1       1.119   2.793  18.918  0.00  0.00    +0.000 A 
ATOM     26  C   UNL     1       2.033   3.434  18.087  0.00  0.00    +0.000 A 
ATOM     27  F   UNL     1       2.328   2.874  16.902  0.00  0.00    +0.000 F 
ENDBRANCH  20  21
ENDBRANCH  19  20
ENDBRANCH   4  19
TORSDOF 7
ENDMDL
MODEL 3
REMARK VINA RESULT:      -7.9      1.265      1.354
REMARK  Name = 
REMARK  8 active torsions:
REMARK  status: ('A' for Active; 'I' for Inactive)
REMARK    1  A    between atoms: C_1  and  C_2
REMARK    2  A    between atoms: N_4  and  C_5
REMARK    3  A    between atoms: C_8  and  O_9
REMARK    4  A    between atoms: O_9  and  C_10
REMARK    5  A    between atoms: C_10  and  C_11
REMARK    6  A    between atoms: C_14  and  S_15
REMARK    7  A    between atoms: S_15  and  C_16
REMARK    8  A    between atoms: C_16  and  C_17
REMARK                            x       y       z     vdW  Elec       q    Type
REMARK                         _______ _______ _______ _____ _____    ______ ____
ROOT
ATOM      1  C   UNL     1       7.682   7.191  17.875  0.00  0.00    +0.000 A 
ATOM      2  N   UNL     1       7.912   6.337  18.849  0.00  0.00    +0.000 NA
ATOM      3  N   UNL     1       7.316   5.154  18.475  0.00  0.00    +0.000 NA
ATOM      4  C   UNL     1       6.759   5.350  17.296  0.00  0.00    +0.000 A 
ATOM      5  O   UNL     1       6.952   6.637  16.845  0.00  0.00    +0.000 OA
ENDROOT
BRANCH   1   6
ATOM      6  C   UNL     1       8.017   8.641  17.816  0.00  0.00    +0.000 C 
BRANCH   6   7
ATOM      7  O   UNL     1       8.756   8.972  18.995  0.00  0.00    +0.000 OA
BRANCH   7  11
ATOM      8  C   UNL     1       9.754  13.043  19.106  0.00  0.00    +0.000 A 
ATOM      9  C   UNL     1       9.298  12.414  17.948  0.00  0.00    +0.000 A 
ATOM     10  C   UNL     1       8.984  11.051  17.947  0.00  0.00    +0.000 A 
ATOM     11  C   UNL     1       9.133  10.285  19.103  0.00  0.00    +0.000 A 
ATOM     12  C   UNL     1       9.593  10.902  20.266  0.00  0.00    +0.000 A 
ATOM     13  C   UNL     1       9.915  12.270  20.262  0.00  0.00    +0.000 A 
BRANCH   8  17
ATOM     14  C   UNL     1      11.331  16.472  19.068  0.00  0.00    +0.000 C 
ATOM     15  C   UNL     1      11.279  14.990  18.797  0.00  0.00    +0.000 C 
ATOM     16  O   UNL     1      12.241  14.416  18.300  0.00  0.00    +0.000 OA
ATOM     17  N   UNL     1      10.073  14.417  19.171  0.00  0.00    +0.000 N 
ATOM     18  H   UNL     1       9.324  15.046  19.424  0.00  0.00    +0.000 HD
ENDBRANCH   8  17
ENDBRANCH   7  11
ENDBRANCH   6   7
ENDBRANCH   1   6
BRANCH   4  19
ATOM     19  S   UNL     1       5.819   4.119  16.501  0.00  0.00    +0.000 S 
BRANCH  19  20
ATOM     20  C   UNL     1       4.114   4.658  16.778  0.00  0.00    +0.000 C 
BRANCH  20  21
ATOM     21  C   UNL     1       3.479   3.948  17.954  0.00  0.00    +0.000 A 
ATOM     22  C   UNL     1       4.246   3.167  18.835  0.00  0.00    +0.000 A 
ATOM     23  C   UNL     1       3.645   2.502  19.912  0.00  0.00    +0.000 A 
ATOM     24  C   UNL     1       2.270   2.616  20.125  0.00  0.00    +0.000 A 
ATOM     25  C   UNL     1       1.499   3.398  19.269  0.00  0.00    +0.000 A 
ATOM     26  C   UNL     1       2.103   4.055  18.200  0.00  0.00    +0.000 A 
ATOM     27  F   UNL     1       1.337   4.798  17.386  0.00  0.00    +0.000 F 
ENDBRANCH  20  21
ENDBRANCH  19  20
ENDBRANCH   4  19
TORSDOF 7
ENDMDL
MODEL 4
REMARK VINA RESULT:      -7.8      1.855      2.101
REMARK  Name = 
REMARK  8 active torsions:
REMARK  status: ('A' for Active; 'I' for Inactive)
REMARK    1  A    between atoms: C_1  and  C_2
REMARK    2  A    between atoms: N_4  and  C_5
REMARK    3  A    between atoms: C_8  and  O_9
REMARK    4  A    between atoms: O_9  and  C_10
REMARK    5  A    between atoms: C_10  and  C_11
REMARK    6  A    between atoms: C_14  and  S_15
REMARK    7  A    between atoms: S_15  and  C_16
REMARK    8  A    between atoms: C_16  and  C_17
REMARK                            x       y       z     vdW  Elec       q    Type
REMARK                         _______ _______ _______ _____ _____    ______ ____
ROOT
ATOM      1  C   UNL     1       7.405   6.932  17.533  0.00  0.00    +0.000 A 
ATOM      2  N   UNL     1       7.645   6.594  16.284  0.00  0.00    +0.000 NA
ATOM      3  N   UNL     1       6.757   5.588  15.978  0.00  0.00    +0.000 NA
ATOM      4  C   UNL     1       6.024   5.370  17.052  0.00  0.00    +0.000 A 
ATOM      5  O   UNL     1       6.382   6.197  18.094  0.00  0.00    +0.000 OA
ENDROOT
BRANCH   1   6
ATOM      6  C   UNL     1       8.145   7.899  18.390  0.00  0.00    +0.000 C 
BRANCH   6   7
ATOM      7  O   UNL     1       8.219   9.144  17.690  0.00  0.00    +0.000 OA
BRANCH   7  11
ATOM      8  C   UNL     1       9.735  12.494  19.704  0.00  0.00    +0.000 A 
ATOM      9  C   UNL     1       9.131  12.583  18.451  0.00  0.00    +0.000 A 
ATOM     10  C   UNL     1       8.646  11.440  17.805  0.00  0.00    +0.000 A 
ATOM     11  C   UNL     1       8.767  10.183  18.395  0.00  0.00    +0.000 A 
ATOM     12  C   UNL     1       9.374  10.082  19.647  0.00  0.00    +0.000 A 
ATOM     13  C   UNL     1       9.868  11.229  20.290  0.00  0.00    +0.000 A 
BRANCH   8  17
ATOM     14  C   UNL     1      10.385  15.416  22.003  0.00  0.00    +0.000 C 
ATOM     15  C   UNL     1       9.658  14.181  21.538  0.00  0.00    +0.000 C 
ATOM     16  O   UNL     1       8.669  13.779  22.140  0.00  0.00    +0.000 OA
ATOM     17  N   UNL     1      10.230  13.612  20.409  0.00  0.00    +0.000 N 
ATOM     18  H   UNL     1      11.130  13.970  20.120  0.00  0.00    +0.000 HD
ENDBRANCH   8  17
ENDBRANCH   7  11
ENDBRANCH   6   7
ENDBRANCH   1   6
BRANCH   4  19
ATOM     19  S   UNL     1       4.829   4.105  17.116  0.00  0.00    +0.000 S 
BRANCH  19  20
ATOM     20  C   UNL     1       3.296   5.003  17.461  0.00  0.00    +0.000 C 
BRANCH  20  21
ATOM     21  C   UNL     1       2.539   4.406  18.627  0.00  0.00    +0.000 A 
ATOM     22  C   UNL     1       1.517   3.463  18.427  0.00  0.00    +0.000 A 
ATOM     23  C   UNL     1       0.812   2.928  19.513  0.00  0.00    +0.000 A 
ATOM     24  C   UNL     1       1.126   3.324  20.814  0.00  0.00    +0.000 A 
ATOM     25  C   UNL     1       2.147   4.247  21.030  0.00  0.00    +0.000 A 
ATOM     26  C   UNL     1       2.841   4.775  19.945  0.00  0.00    +0.000 A 
ATOM     27  F   UNL     1       3.817   5.667  20.180  0.00  0.00    +0.000 F 
ENDBRANCH  20  21
ENDBRANCH  19  20
ENDBRANCH   4  19
TORSDOF 7
ENDMDL
MODEL 5
REMARK VINA RESULT:      -7.7      1.298      1.600
REMARK  Name = 
REMARK  8 active torsions:
REMARK  status: ('A' for Active; 'I' for Inactive)
REMARK    1  A    between atoms: C_1  and  C_2
REMARK    2  A    between atoms: N_4  and  C_5
REMARK    3  A    between atoms: C_8  and  O_9
REMARK    4  A    between atoms: O_9  and  C_10
REMARK    5  A    between atoms: C_10  and  C_11
REMARK    6  A    between atoms: C_14  and  S_15
REMARK    7  A    between atoms: S_15  and  C_16
REMARK    8  A    between atoms: C_16  and  C_17
REMARK                            x       y       z     vdW  Elec       q    Type
REMARK                         _______ _______ _______ _____ _____    ______ ____
ROOT
ATOM      1  C   UNL     1       7.253   7.754  17.292  0.00  0.00    +0.000 A 
ATOM      2  N   UNL     1       8.043   6.785  16.881  0.00  0.00    +0.000 NA
ATOM      3  N   UNL     1       7.234   5.692  16.666  0.00  0.00    +0.000 NA
ATOM      4  C   UNL     1       5.999   6.054  16.954  0.00  0.00    +0.000 A 
ATOM      5  O   UNL     1       5.931   7.367  17.363  0.00  0.00    +0.000 OA
ENDROOT
BRANCH   1   6
ATOM      6  C   UNL     1       7.626   9.118  17.759  0.00  0.00    +0.000 C 
BRANCH   6   7
ATOM      7  O   UNL     1       8.642   8.981  18.756  0.00  0.00    +0.000 OA
BRANCH   7  11
ATOM      8  C   UNL     1      10.596  12.612  19.517  0.00  0.00    +0.000 A 
ATOM      9  C   UNL     1      10.346  12.151  18.225  0.00  0.00    +0.000 A 
ATOM     10  C   UNL     1       9.700  10.928  18.010  0.00  0.00    +0.000 A 
ATOM     11  C   UNL     1       9.303  10.135  19.086  0.00  0.00    +0.000 A 
ATOM     12  C   UNL     1       9.551  10.584  20.383  0.00  0.00    +0.000 A 
ATOM     13  C   UNL     1      10.208  11.808  20.595  0.00  0.00    +0.000 A 
BRANCH   8  17
ATOM     14  C   UNL     1      11.569  16.205  20.139  0.00  0.00    +0.000 C 
ATOM     15  C   UNL     1      10.600  15.071  19.926  0.00  0.00    +0.000 C 
ATOM     16  O   UNL     1       9.394  15.285  19.880  0.00  0.00    +0.000 OA
ATOM     17  N   UNL     1      11.230  13.842  19.794  0.00  0.00    +0.000 N 
ATOM     18  H   UNL     1      12.218  13.807  20.008  0.00  0.00    +0.000 HD
ENDBRANCH   8  17
ENDBRANCH   7  11
ENDBRANCH   6   7
ENDBRANCH   1   6
BRANCH   4  19
ATOM     19  S   UNL     1       4.670   4.931  16.898  0.00  0.00    +0.000 S 
BRANCH  19  20
ATOM     20  C   UNL     1       3.369   5.787  17.820  0.00  0.00    +0.000 C 
BRANCH  20  21
ATOM     21  C   UNL     1       2.446   4.819  18.529  0.00  0.00    +0.000 A 
ATOM     22  C   UNL     1       1.982   3.655  17.894  0.00  0.00    +0.000 A 
ATOM     23  C   UNL     1       1.116   2.774  18.554  0.00  0.00    +0.000 A 
ATOM     24  C   UNL     1       0.708   3.043  19.862  0.00  0.00    +0.000 A 
ATOM     25  C   UNL     1       1.172   4.185  20.511  0.00  0.00    +0.000 A 
ATOM     26  C   UNL     1       2.031   5.056  19.847  0.00  0.00    +0.000 A 
ATOM     27  F   UNL     1       2.459   6.153  20.493  0.00  0.00    +0.000 F 
ENDBRANCH  20  21
ENDBRANCH  19  20
ENDBRANCH   4  19
TORSDOF 7
ENDMDL
MODEL 6
REMARK VINA RESULT:      -7.7      3.801     10.205
REMARK  Name = 
REMARK  8 active torsions:
REMARK  status: ('A' for Active; 'I' for Inactive)
REMARK    1  A    between atoms: C_1  and  C_2
REMARK    2  A    between atoms: N_4  and  C_5
REMARK    3  A    between atoms: C_8  and  O_9
REMARK    4  A    between atoms: O_9  and  C_10
REMARK    5  A    between atoms: C_10  and  C_11
REMARK    6  A    between atoms: C_14  and  S_15
REMARK    7  A    between atoms: S_15  and  C_16
REMARK    8  A    between atoms: C_16  and  C_17
REMARK                            x       y       z     vdW  Elec       q    Type
REMARK                         _______ _______ _______ _____ _____    ______ ____
ROOT
ATOM      1  C   UNL     1       7.293   6.329  17.068  0.00  0.00    +0.000 A 
ATOM      2  N   UNL     1       7.838   6.085  18.241  0.00  0.00    +0.000 NA
ATOM      3  N   UNL     1       8.239   7.304  18.742  0.00  0.00    +0.000 NA
ATOM      4  C   UNL     1       7.915   8.221  17.852  0.00  0.00    +0.000 A 
ATOM      5  O   UNL     1       7.302   7.671  16.748  0.00  0.00    +0.000 OA
ENDROOT
BRANCH   1   6
ATOM      6  C   UNL     1       6.788   5.355  16.061  0.00  0.00    +0.000 C 
BRANCH   6   7
ATOM      7  O   UNL     1       5.380   5.560  15.916  0.00  0.00    +0.000 OA
BRANCH   7  11
ATOM      8  C   UNL     1       2.889   4.185  18.995  0.00  0.00    +0.000 A 
ATOM      9  C   UNL     1       3.234   5.528  18.853  0.00  0.00    +0.000 A 
ATOM     10  C   UNL     1       4.077   5.948  17.818  0.00  0.00    +0.000 A 
ATOM     11  C   UNL     1       4.603   5.029  16.911  0.00  0.00    +0.000 A 
ATOM     12  C   UNL     1       4.268   3.682  17.046  0.00  0.00    +0.000 A 
ATOM     13  C   UNL     1       3.428   3.261  18.091  0.00  0.00    +0.000 A 
BRANCH   8  17
ATOM     14  C   UNL     1       1.242   2.496  21.940  0.00  0.00    +0.000 C 
ATOM     15  C   UNL     1       2.408   2.906  21.080  0.00  0.00    +0.000 C 
ATOM     16  O   UNL     1       3.543   2.532  21.354  0.00  0.00    +0.000 OA
ATOM     17  N   UNL     1       2.033   3.705  20.010  0.00  0.00    +0.000 N 
ATOM     18  H   UNL     1       1.084   4.052  20.006  0.00  0.00    +0.000 HD
ENDBRANCH   8  17
ENDBRANCH   7  11
ENDBRANCH   6   7
ENDBRANCH   1   6
BRANCH   4  19
ATOM     19  S   UNL     1       8.328   9.899  18.060  0.00  0.00    +0.000 S 
BRANCH  19  20
ATOM     20  C   UNL     1       9.411   9.880  19.510  0.00  0.00    +0.000 C 
BRANCH  20  21
ATOM     21  C   UNL     1       9.891  11.268  19.878  0.00  0.00    +0.000 A 
ATOM     22  C   UNL     1       9.395  11.934  21.011  0.00  0.00    +0.000 A 
ATOM     23  C   UNL     1       9.836  13.224  21.334  0.00  0.00    +0.000 A 
ATOM     24  C   UNL     1      10.784  13.861  20.532  0.00  0.00    +0.000 A 
ATOM     25  C   UNL     1      11.296  13.207  19.413  0.00  0.00    +0.000 A 
ATOM     26  C   UNL     1      10.851  11.926  19.099  0.00  0.00    +0.000 A 
ATOM     27  F   UNL     1      11.357  11.319  18.012  0.00  0.00    +0.000 F 
ENDBRANCH  20  21
ENDBRANCH  19  20
ENDBRANCH   4  19
TORSDOF 7
ENDMDL
MODEL 7
REMARK VINA RESULT:      -7.6      1.328      1.328
REMARK  Name = 
REMARK  8 active torsions:
REMARK  status: ('A' for Active; 'I' for Inactive)
REMARK    1  A    between atoms: C_1  and  C_2
REMARK    2  A    between atoms: N_4  and  C_5
REMARK    3  A    between atoms: C_8  and  O_9
REMARK    4  A    between atoms: O_9  and  C_10
REMARK    5  A    between atoms: C_10  and  C_11
REMARK    6  A    between atoms: C_14  and  S_15
REMARK    7  A    between atoms: S_15  and  C_16
REMARK    8  A    between atoms: C_16  and  C_17
REMARK                            x       y       z     vdW  Elec       q    Type
REMARK                         _______ _______ _______ _____ _____    ______ ____
ROOT
ATOM      1  C   UNL     1       7.239   7.620  17.277  0.00  0.00    +0.000 A 
ATOM      2  N   UNL     1       8.004   6.816  16.569  0.00  0.00    +0.000 NA
ATOM      3  N   UNL     1       7.320   5.625  16.465  0.00  0.00    +0.000 NA
ATOM      4  C   UNL     1       6.179   5.769  17.110  0.00  0.00    +0.000 A 
ATOM      5  O   UNL     1       6.054   7.026  17.659  0.00  0.00    +0.000 OA
ENDROOT
BRANCH   1   6
ATOM      6  C   UNL     1       7.543   8.993  17.768  0.00  0.00    +0.000 C 
BRANCH   6   7
ATOM      7  O   UNL     1       8.705   8.918  18.598  0.00  0.00    +0.000 OA
BRANCH   7  11
ATOM      8  C   UNL     1      10.273  12.710  19.458  0.00  0.00    +0.000 A 
ATOM      9  C   UNL     1       9.948  12.310  18.163  0.00  0.00    +0.000 A 
ATOM     10  C   UNL     1       9.436  11.031  17.913  0.00  0.00    +0.000 A 
ATOM     11  C   UNL     1       9.252  10.122  18.954  0.00  0.00    +0.000 A 
ATOM     12  C   UNL     1       9.577  10.511  20.254  0.00  0.00    +0.000 A 
ATOM     13  C   UNL     1      10.099  11.792  20.501  0.00  0.00    +0.000 A 
BRANCH   8  17
ATOM     14  C   UNL     1      10.896  16.376  20.103  0.00  0.00    +0.000 C 
ATOM     15  C   UNL     1      10.045  15.166  19.819  0.00  0.00    +0.000 C 
ATOM     16  O   UNL     1       8.836  15.283  19.654  0.00  0.00    +0.000 OA
ATOM     17  N   UNL     1      10.779  13.990  19.772  0.00  0.00    +0.000 N 
ATOM     18  H   UNL     1      11.741  14.036  20.080  0.00  0.00    +0.000 HD
ENDBRANCH   8  17
ENDBRANCH   7  11
ENDBRANCH   6   7
ENDBRANCH   1   6
BRANCH   4  19
ATOM     19  S   UNL     1       5.050   4.456  17.295  0.00  0.00    +0.000 S 
BRANCH  19  20
ATOM     20  C   UNL     1       5.012   4.195  19.086  0.00  0.00    +0.000 C 
BRANCH  20  21
ATOM     21  C   UNL     1       3.611   3.925  19.590  0.00  0.00    +0.000 A 
ATOM     22  C   UNL     1       2.850   4.934  20.203  0.00  0.00    +0.000 A 
ATOM     23  C   UNL     1       1.560   4.670  20.680  0.00  0.00    +0.000 A 
ATOM     24  C   UNL     1       1.011   3.393  20.543  0.00  0.00    +0.000 A 
ATOM     25  C   UNL     1       1.748   2.386  19.924  0.00  0.00    +0.000 A 
ATOM     26  C   UNL     1       3.030   2.657  19.454  0.00  0.00    +0.000 A 
ATOM     27  F   UNL     1       3.721   1.668  18.865  0.00  0.00    +0.000 F 
ENDBRANCH  20  21
ENDBRANCH  19  20
ENDBRANCH   4  19
TORSDOF 7
ENDMDL
MODEL 8
REMARK VINA RESULT:      -7.5      6.233      9.379
REMARK  Name = 
REMARK  8 active torsions:
REMARK  status: ('A' for Active; 'I' for Inactive)
REMARK    1  A    between atoms: C_1  and  C_2
REMARK    2  A    between atoms: N_4  and  C_5
REMARK    3  A    between atoms: C_8  and  O_9
REMARK    4  A    between atoms: O_9  and  C_10
REMARK    5  A    between atoms: C_10  and  C_11
REMARK    6  A    between atoms: C_14  and  S_15
REMARK    7  A    between atoms: S_15  and  C_16
REMARK    8  A    between atoms: C_16  and  C_17
REMARK                            x       y       z     vdW  Elec       q    Type
REMARK                         _______ _______ _______ _____ _____    ______ ____
ROOT
ATOM      1  C   UNL     1       2.195   7.674  18.852  0.00  0.00    +0.000 A 
ATOM      2  N   UNL     1       1.952   7.270  20.081  0.00  0.00    +0.000 NA
ATOM      3  N   UNL     1       2.491   6.008  20.187  0.00  0.00    +0.000 NA
ATOM      4  C   UNL     1       3.035   5.713  19.023  0.00  0.00    +0.000 A 
ATOM      5  O   UNL     1       2.885   6.736  18.113  0.00  0.00    +0.000 OA
ENDROOT
BRANCH   1   6
ATOM      6  C   UNL     1       1.742   8.923  18.181  0.00  0.00    +0.000 C 
BRANCH   6   7
ATOM      7  O   UNL     1       1.173   9.778  19.176  0.00  0.00    +0.000 OA
BRANCH   7  11
ATOM      8  C   UNL     1      -2.433  11.526  17.939  0.00  0.00    +0.000 A 
ATOM      9  C   UNL     1      -1.921  10.369  17.354  0.00  0.00    +0.000 A 
ATOM     10  C   UNL     1      -0.709   9.820  17.787  0.00  0.00    +0.000 A 
ATOM     11  C   UNL     1       0.024  10.427  18.806  0.00  0.00    +0.000 A 
ATOM     12  C   UNL     1      -0.476  11.588  19.397  0.00  0.00    +0.000 A 
ATOM     13  C   UNL     1      -1.690  12.141  18.955  0.00  0.00    +0.000 A 
BRANCH   8  17
ATOM     14  C   UNL     1      -6.015  12.418  17.154  0.00  0.00    +0.000 C 
ATOM     15  C   UNL     1      -4.918  11.579  17.757  0.00  0.00    +0.000 C 
ATOM     16  O   UNL     1      -5.186  10.539  18.348  0.00  0.00    +0.000 OA
ATOM     17  N   UNL     1      -3.655  12.117  17.555  0.00  0.00    +0.000 N 
ATOM     18  H   UNL     1      -3.610  13.056  17.184  0.00  0.00    +0.000 HD
ENDBRANCH   8  17
ENDBRANCH   7  11
ENDBRANCH   6   7
ENDBRANCH   1   6
BRANCH   4  19
ATOM     19  S   UNL     1       3.754   4.160  18.705  0.00  0.00    +0.000 S 
BRANCH  19  20
ATOM     20  C   UNL     1       4.849   4.492  17.303  0.00  0.00    +0.000 C 
BRANCH  20  21
ATOM     21  C   UNL     1       5.975   5.434  17.672  0.00  0.00    +0.000 A 
ATOM     22  C   UNL     1       6.889   5.114  18.690  0.00  0.00    +0.000 A 
ATOM     23  C   UNL     1       7.918   5.999  19.034  0.00  0.00    +0.000 A 
ATOM     24  C   UNL     1       8.051   7.214  18.358  0.00  0.00    +0.000 A 
ATOM     25  C   UNL     1       7.162   7.539  17.336  0.00  0.00    +0.000 A 
ATOM     26  C   UNL     1       6.141   6.653  17.002  0.00  0.00    +0.000 A 
ATOM     27  F   UNL     1       5.294   6.992  16.017  0.00  0.00    +0.000 F 
ENDBRANCH  20  21
ENDBRANCH  19  20
ENDBRANCH   4  19
TORSDOF 7
ENDMDL
MODEL 9
REMARK VINA RESULT:      -7.5      6.626      9.840
REMARK  Name = 
REMARK  8 active torsions:
REMARK  status: ('A' for Active; 'I' for Inactive)
REMARK    1  A    between atoms: C_1  and  C_2
REMARK    2  A    between atoms: N_4  and  C_5
REMARK    3  A    between atoms: C_8  and  O_9
REMARK    4  A    between atoms: O_9  and  C_10
REMARK    5  A    between atoms: C_10  and  C_11
REMARK    6  A    between atoms: C_14  and  S_15
REMARK    7  A    between atoms: S_15  and  C_16
REMARK    8  A    between atoms: C_16  and  C_17
REMARK                            x       y       z     vdW  Elec       q    Type
REMARK                         _______ _______ _______ _____ _____    ______ ____
ROOT
ATOM      1  C   UNL     1       1.771   8.307  19.153  0.00  0.00    +0.000 A 
ATOM      2  N   UNL     1       1.521   7.940  20.392  0.00  0.00    +0.000 NA
ATOM      3  N   UNL     1       1.983   6.648  20.512  0.00  0.00    +0.000 NA
ATOM      4  C   UNL     1       2.490   6.301  19.346  0.00  0.00    +0.000 A 
ATOM      5  O   UNL     1       2.391   7.316  18.421  0.00  0.00    +0.000 OA
ENDROOT
BRANCH   1   6
ATOM      6  C   UNL     1       1.386   9.571  18.466  0.00  0.00    +0.000 C 
BRANCH   6   7
ATOM      7  O   UNL     1       0.656  10.375  19.396  0.00  0.00    +0.000 OA
BRANCH   7  11
ATOM      8  C   UNL     1      -3.185  11.681  18.335  0.00  0.00    +0.000 A 
ATOM      9  C   UNL     1      -2.506  12.174  19.449  0.00  0.00    +0.000 A 
ATOM     10  C   UNL     1      -1.229  11.706  19.778  0.00  0.00    +0.000 A 
ATOM     11  C   UNL     1      -0.610  10.725  19.005  0.00  0.00    +0.000 A 
ATOM     12  C   UNL     1      -1.281  10.222  17.890  0.00  0.00    +0.000 A 
ATOM     13  C   UNL     1      -2.566  10.687  17.567  0.00  0.00    +0.000 A 
BRANCH   8  17
ATOM     14  C   UNL     1      -6.841  12.141  17.520  0.00  0.00    +0.000 C 
ATOM     15  C   UNL     1      -5.655  11.430  18.119  0.00  0.00    +0.000 C 
ATOM     16  O   UNL     1      -5.798  10.351  18.683  0.00  0.00    +0.000 OA
ATOM     17  N   UNL     1      -4.467  12.125  17.946  0.00  0.00    +0.000 N 
ATOM     18  H   UNL     1      -4.535  13.071  17.597  0.00  0.00    +0.000 HD
ENDBRANCH   8  17
ENDBRANCH   7  11
ENDBRANCH   6   7
ENDBRANCH   1   6
BRANCH   4  19
ATOM     19  S   UNL     1       3.107   4.701  19.045  0.00  0.00    +0.000 S 
BRANCH  19  20
ATOM     20  C   UNL     1       4.099   4.917  17.547  0.00  0.00    +0.000 C 
BRANCH  20  21
ATOM     21  C   UNL     1       5.436   5.564  17.840  0.00  0.00    +0.000 A 
ATOM     22  C   UNL     1       6.227   5.144  18.922  0.00  0.00    +0.000 A 
ATOM     23  C   UNL     1       7.456   5.760  19.193  0.00  0.00    +0.000 A 
ATOM     24  C   UNL     1       7.913   6.799  18.380  0.00  0.00    +0.000 A 
ATOM     25  C   UNL     1       7.146   7.216  17.294  0.00  0.00    +0.000 A 
ATOM     26  C   UNL     1       5.926   6.600  17.033  0.00  0.00    +0.000 A 
ATOM     27  F   UNL     1       5.204   7.024  15.983  0.00  0.00    +0.000 F 
ENDBRANCH  20  21
ENDBRANCH  19  20
ENDBRANCH   4  19
TORSDOF 7
ENDMDL
