MODEL 1
REMARK VINA RESULT:      -6.7      0.000      0.000
REMARK  Name = 
REMARK  6 active torsions:
REMARK  status: ('A' for Active; 'I' for Inactive)
REMARK    1  A    between atoms: C_1  and  O_2
REMARK    2  A    between atoms: O_2  and  C_3
REMARK    3  A    between atoms: C_6  and  N_7
REMARK    4  A    between atoms: N_10  and  C_11
REMARK    5  A    between atoms: C_16  and  O_17
REMARK    6  A    between atoms: O_17  and  C_18
REMARK                            x       y       z     vdW  Elec       q    Type
REMARK                         _______ _______ _______ _____ _____    ______ ____
ROOT
ATOM      1  N   UNL     1       1.807   8.272  19.548  0.00  0.00    +0.000 N 
ATOM      2  C   UNL     1       2.048   6.911  19.622  0.00  0.00    +0.000 C 
ATOM      3  O   UNL     1       1.623   6.171  20.504  0.00  0.00    +0.000 OA
ATOM      4  N   UNL     1       2.841   6.470  18.573  0.00  0.00    +0.000 N 
ATOM      5  H   UNL     1       1.867   8.673  18.627  0.00  0.00    +0.000 HD
ATOM      6  H   UNL     1       3.540   7.124  18.256  0.00  0.00    +0.000 HD
ENDROOT
BRANCH   1  10
ATOM      7  C   UNL     1      -0.375  10.483  22.420  0.00  0.00    +0.000 A 
ATOM      8  C   UNL     1       0.529   9.511  22.838  0.00  0.00    +0.000 A 
ATOM      9  C   UNL     1       1.280   8.793  21.903  0.00  0.00    +0.000 A 
ATOM     10  C   UNL     1       1.115   9.013  20.535  0.00  0.00    +0.000 A 
ATOM     11  C   UNL     1       0.224  10.002  20.117  0.00  0.00    +0.000 A 
ATOM     12  C   UNL     1      -0.527  10.731  21.056  0.00  0.00    +0.000 A 
BRANCH   7  14
ATOM     13  C   UNL     1      -1.864  12.205  23.057  0.00  0.00    +0.000 C 
ATOM     14  O   UNL     1      -1.076  11.082  23.428  0.00  0.00    +0.000 OA
ENDBRANCH   7  14
ENDBRANCH   1  10
BRANCH   4  15
ATOM     15  C   UNL     1       3.161   5.097  18.463  0.00  0.00    +0.000 A 
ATOM     16  C   UNL     1       2.301   4.268  17.724  0.00  0.00    +0.000 A 
ATOM     17  C   UNL     1       2.563   2.908  17.577  0.00  0.00    +0.000 A 
ATOM     18  C   UNL     1       3.690   2.357  18.171  0.00  0.00    +0.000 A 
ATOM     19  C   UNL     1       4.568   3.175  18.889  0.00  0.00    +0.000 A 
ATOM     20  C   UNL     1       4.318   4.547  19.037  0.00  0.00    +0.000 A 
BRANCH  20  21
ATOM     21  O   UNL     1       5.283   5.248  19.712  0.00  0.00    +0.000 OA
ATOM     22  C   UNL     1       6.498   5.469  19.000  0.00  0.00    +0.000 C 
ENDBRANCH  20  21
ENDBRANCH   4  15
TORSDOF 4
ENDMDL
MODEL 2
REMARK VINA RESULT:      -6.7      5.959      8.072
REMARK  Name = 
REMARK  6 active torsions:
REMARK  status: ('A' for Active; 'I' for Inactive)
REMARK    1  A    between atoms: C_1  and  O_2
REMARK    2  A    between atoms: O_2  and  C_3
REMARK    3  A    between atoms: C_6  and  N_7
REMARK    4  A    between atoms: N_10  and  C_11
REMARK    5  A    between atoms: C_16  and  O_17
REMARK    6  A    between atoms: O_17  and  C_18
REMARK                            x       y       z     vdW  Elec       q    Type
REMARK                         _______ _______ _______ _____ _____    ______ ____
ROOT
ATOM      1  N   UNL     1       7.953   9.588  17.715  0.00  0.00    +0.000 N 
ATOM      2  C   UNL     1       7.721   8.231  17.853  0.00  0.00    +0.000 C 
ATOM      3  O   UNL     1       8.365   7.480  18.578  0.00  0.00    +0.000 OA
ATOM      4  N   UNL     1       6.664   7.806  17.063  0.00  0.00    +0.000 N 
ATOM      5  H   UNL     1       7.161  10.135  17.421  0.00  0.00    +0.000 HD
ATOM      6  H   UNL     1       6.568   8.282  16.178  0.00  0.00    +0.000 HD
ENDROOT
BRANCH   1  10
ATOM      7  C   UNL     1      11.159  11.747  19.435  0.00  0.00    +0.000 A 
ATOM      8  C   UNL     1      10.241  11.102  20.257  0.00  0.00    +0.000 A 
ATOM      9  C   UNL     1       9.194  10.360  19.706  0.00  0.00    +0.000 A 
ATOM     10  C   UNL     1       9.030  10.278  18.322  0.00  0.00    +0.000 A 
ATOM     11  C   UNL     1       9.963  10.906  17.497  0.00  0.00    +0.000 A 
ATOM     12  C   UNL     1      11.021  11.648  18.050  0.00  0.00    +0.000 A 
BRANCH   7  14
ATOM     13  C   UNL     1      12.333  13.791  19.615  0.00  0.00    +0.000 C 
ATOM     14  O   UNL     1      12.109  12.473  20.096  0.00  0.00    +0.000 OA
ENDBRANCH   7  14
ENDBRANCH   1  10
BRANCH   4  15
ATOM     15  C   UNL     1       6.255   6.452  17.102  0.00  0.00    +0.000 A 
ATOM     16  C   UNL     1       5.323   6.063  18.077  0.00  0.00    +0.000 A 
ATOM     17  C   UNL     1       4.881   4.746  18.165  0.00  0.00    +0.000 A 
ATOM     18  C   UNL     1       5.370   3.796  17.278  0.00  0.00    +0.000 A 
ATOM     19  C   UNL     1       6.281   4.174  16.287  0.00  0.00    +0.000 A 
ATOM     20  C   UNL     1       6.727   5.500  16.184  0.00  0.00    +0.000 A 
BRANCH  20  21
ATOM     21  O   UNL     1       7.571   5.753  15.135  0.00  0.00    +0.000 OA
ATOM     22  C   UNL     1       7.332   4.994  13.952  0.00  0.00    +0.000 C 
ENDBRANCH  20  21
ENDBRANCH   4  15
TORSDOF 4
ENDMDL
MODEL 3
REMARK VINA RESULT:      -6.7      5.405      7.544
REMARK  Name = 
REMARK  6 active torsions:
REMARK  status: ('A' for Active; 'I' for Inactive)
REMARK    1  A    between atoms: C_1  and  O_2
REMARK    2  A    between atoms: O_2  and  C_3
REMARK    3  A    between atoms: C_6  and  N_7
REMARK    4  A    between atoms: N_10  and  C_11
REMARK    5  A    between atoms: C_16  and  O_17
REMARK    6  A    between atoms: O_17  and  C_18
REMARK                            x       y       z     vdW  Elec       q    Type
REMARK                         _______ _______ _______ _____ _____    ______ ____
ROOT
ATOM      1  N   UNL     1       8.800   8.467  18.908  0.00  0.00    +0.000 N 
ATOM      2  C   UNL     1       7.869   7.833  18.105  0.00  0.00    +0.000 C 
ATOM      3  O   UNL     1       7.172   8.392  17.264  0.00  0.00    +0.000 OA
ATOM      4  N   UNL     1       7.806   6.472  18.365  0.00  0.00    +0.000 N 
ATOM      5  H   UNL     1       9.544   7.884  19.253  0.00  0.00    +0.000 HD
ATOM      6  H   UNL     1       7.955   6.210  19.327  0.00  0.00    +0.000 HD
ENDROOT
BRANCH   1  10
ATOM      7  C   UNL     1       9.528  12.632  19.068  0.00  0.00    +0.000 A 
ATOM      8  C   UNL     1       9.132  12.046  17.870  0.00  0.00    +0.000 A 
ATOM      9  C   UNL     1       8.858  10.677  17.807  0.00  0.00    +0.000 A 
ATOM     10  C   UNL     1       9.007   9.868  18.934  0.00  0.00    +0.000 A 
ATOM     11  C   UNL     1       9.384  10.459  20.141  0.00  0.00    +0.000 A 
ATOM     12  C   UNL     1       9.653  11.838  20.207  0.00  0.00    +0.000 A 
BRANCH   7  14
ATOM     13  C   UNL     1      10.884  14.330  18.136  0.00  0.00    +0.000 C 
ATOM     14  O   UNL     1       9.806  13.967  18.987  0.00  0.00    +0.000 OA
ENDBRANCH   7  14
ENDBRANCH   1  10
BRANCH   4  15
ATOM     15  C   UNL     1       6.934   5.652  17.611  0.00  0.00    +0.000 A 
ATOM     16  C   UNL     1       7.360   5.205  16.350  0.00  0.00    +0.000 A 
ATOM     17  C   UNL     1       6.549   4.393  15.562  0.00  0.00    +0.000 A 
ATOM     18  C   UNL     1       5.295   4.019  16.025  0.00  0.00    +0.000 A 
ATOM     19  C   UNL     1       4.867   4.437  17.289  0.00  0.00    +0.000 A 
ATOM     20  C   UNL     1       5.680   5.248  18.095  0.00  0.00    +0.000 A 
BRANCH  20  21
ATOM     21  O   UNL     1       5.171   5.539  19.333  0.00  0.00    +0.000 OA
ATOM     22  C   UNL     1       3.803   5.192  19.536  0.00  0.00    +0.000 C 
ENDBRANCH  20  21
ENDBRANCH   4  15
TORSDOF 4
ENDMDL
MODEL 4
REMARK VINA RESULT:      -6.5      0.171      1.088
REMARK  Name = 
REMARK  6 active torsions:
REMARK  status: ('A' for Active; 'I' for Inactive)
REMARK    1  A    between atoms: C_1  and  O_2
REMARK    2  A    between atoms: O_2  and  C_3
REMARK    3  A    between atoms: C_6  and  N_7
REMARK    4  A    between atoms: N_10  and  C_11
REMARK    5  A    between atoms: C_16  and  O_17
REMARK    6  A    between atoms: O_17  and  C_18
REMARK                            x       y       z     vdW  Elec       q    Type
REMARK                         _______ _______ _______ _____ _____    ______ ____
ROOT
ATOM      1  N   UNL     1       1.864   8.314  19.643  0.00  0.00    +0.000 N 
ATOM      2  C   UNL     1       2.039   6.941  19.657  0.00  0.00    +0.000 C 
ATOM      3  O   UNL     1       1.483   6.172  20.434  0.00  0.00    +0.000 OA
ATOM      4  N   UNL     1       2.932   6.525  18.681  0.00  0.00    +0.000 N 
ATOM      5  H   UNL     1       2.049   8.765  18.762  0.00  0.00    +0.000 HD
ATOM      6  H   UNL     1       3.690   7.163  18.490  0.00  0.00    +0.000 HD
ENDROOT
BRANCH   1  10
ATOM      7  C   UNL     1      -0.339  10.455  22.552  0.00  0.00    +0.000 A 
ATOM      8  C   UNL     1      -0.535  10.724  21.201  0.00  0.00    +0.000 A 
ATOM      9  C   UNL     1       0.162  10.005  20.226  0.00  0.00    +0.000 A 
ATOM     10  C   UNL     1       1.090   9.028  20.589  0.00  0.00    +0.000 A 
ATOM     11  C   UNL     1       1.271   8.743  21.943  0.00  0.00    +0.000 A 
ATOM     12  C   UNL     1       0.565   9.461  22.924  0.00  0.00    +0.000 A 
BRANCH   7  14
ATOM     13  C   UNL     1      -1.384  12.545  22.913  0.00  0.00    +0.000 C 
ATOM     14  O   UNL     1      -1.047  11.255  23.403  0.00  0.00    +0.000 OA
ENDBRANCH   7  14
ENDBRANCH   1  10
BRANCH   4  15
ATOM     15  C   UNL     1       3.207   5.147  18.520  0.00  0.00    +0.000 A 
ATOM     16  C   UNL     1       2.315   4.372  17.762  0.00  0.00    +0.000 A 
ATOM     17  C   UNL     1       2.531   3.010  17.566  0.00  0.00    +0.000 A 
ATOM     18  C   UNL     1       3.645   2.404  18.130  0.00  0.00    +0.000 A 
ATOM     19  C   UNL     1       4.555   3.168  18.868  0.00  0.00    +0.000 A 
ATOM     20  C   UNL     1       4.350   4.542  19.065  0.00  0.00    +0.000 A 
BRANCH  20  21
ATOM     21  O   UNL     1       5.343   5.187  19.754  0.00  0.00    +0.000 OA
ATOM     22  C   UNL     1       6.519   5.488  19.008  0.00  0.00    +0.000 C 
ENDBRANCH  20  21
ENDBRANCH   4  15
TORSDOF 4
ENDMDL
MODEL 5
REMARK VINA RESULT:      -6.5      5.440      7.464
REMARK  Name = 
REMARK  6 active torsions:
REMARK  status: ('A' for Active; 'I' for Inactive)
REMARK    1  A    between atoms: C_1  and  O_2
REMARK    2  A    between atoms: O_2  and  C_3
REMARK    3  A    between atoms: C_6  and  N_7
REMARK    4  A    between atoms: N_10  and  C_11
REMARK    5  A    between atoms: C_16  and  O_17
REMARK    6  A    between atoms: O_17  and  C_18
REMARK                            x       y       z     vdW  Elec       q    Type
REMARK                         _______ _______ _______ _____ _____    ______ ____
ROOT
ATOM      1  N   UNL     1       8.845   8.460  18.944  0.00  0.00    +0.000 N 
ATOM      2  C   UNL     1       7.894   7.899  18.110  0.00  0.00    +0.000 C 
ATOM      3  O   UNL     1       7.218   8.522  17.299  0.00  0.00    +0.000 OA
ATOM      4  N   UNL     1       7.785   6.530  18.300  0.00  0.00    +0.000 N 
ATOM      5  H   UNL     1       9.569   7.835  19.258  0.00  0.00    +0.000 HD
ATOM      6  H   UNL     1       7.925   6.213  19.248  0.00  0.00    +0.000 HD
ENDROOT
BRANCH   1  10
ATOM      7  C   UNL     1       9.517  12.633  19.129  0.00  0.00    +0.000 A 
ATOM      8  C   UNL     1       9.439  11.893  20.305  0.00  0.00    +0.000 A 
ATOM      9  C   UNL     1       9.248  10.510  20.261  0.00  0.00    +0.000 A 
ATOM     10  C   UNL     1       9.100   9.849  19.040  0.00  0.00    +0.000 A 
ATOM     11  C   UNL     1       9.199  10.587  17.860  0.00  0.00    +0.000 A 
ATOM     12  C   UNL     1       9.398  11.979  17.903  0.00  0.00    +0.000 A 
BRANCH   7  14
ATOM     13  C   UNL     1      10.650  14.613  18.507  0.00  0.00    +0.000 C 
ATOM     14  O   UNL     1       9.663  13.979  19.309  0.00  0.00    +0.000 OA
ENDBRANCH   7  14
ENDBRANCH   1  10
BRANCH   4  15
ATOM     15  C   UNL     1       6.887   5.778  17.507  0.00  0.00    +0.000 A 
ATOM     16  C   UNL     1       7.294   5.394  16.220  0.00  0.00    +0.000 A 
ATOM     17  C   UNL     1       6.456   4.651  15.391  0.00  0.00    +0.000 A 
ATOM     18  C   UNL     1       5.195   4.285  15.840  0.00  0.00    +0.000 A 
ATOM     19  C   UNL     1       4.785   4.641  17.129  0.00  0.00    +0.000 A 
ATOM     20  C   UNL     1       5.624   5.381  17.975  0.00  0.00    +0.000 A 
BRANCH  20  21
ATOM     21  O   UNL     1       5.130   5.614  19.231  0.00  0.00    +0.000 OA
ATOM     22  C   UNL     1       3.860   5.031  19.514  0.00  0.00    +0.000 C 
ENDBRANCH  20  21
ENDBRANCH   4  15
TORSDOF 4
ENDMDL
MODEL 6
REMARK VINA RESULT:      -6.5      2.976      8.296
REMARK  Name = 
REMARK  6 active torsions:
REMARK  status: ('A' for Active; 'I' for Inactive)
REMARK    1  A    between atoms: C_1  and  O_2
REMARK    2  A    between atoms: O_2  and  C_3
REMARK    3  A    between atoms: C_6  and  N_7
REMARK    4  A    between atoms: N_10  and  C_11
REMARK    5  A    between atoms: C_16  and  O_17
REMARK    6  A    between atoms: O_17  and  C_18
REMARK                            x       y       z     vdW  Elec       q    Type
REMARK                         _______ _______ _______ _____ _____    ______ ____
ROOT
ATOM      1  N   UNL     1       2.206   7.592  18.911  0.00  0.00    +0.000 N 
ATOM      2  C   UNL     1       1.801   8.815  18.407  0.00  0.00    +0.000 C 
ATOM      3  O   UNL     1       2.009   9.206  17.263  0.00  0.00    +0.000 OA
ATOM      4  N   UNL     1       1.127   9.566  19.358  0.00  0.00    +0.000 N 
ATOM      5  H   UNL     1       1.666   7.242  19.684  0.00  0.00    +0.000 HD
ATOM      6  H   UNL     1       1.453   9.455  20.306  0.00  0.00    +0.000 HD
ENDROOT
BRANCH   1  10
ATOM      7  C   UNL     1       4.465   4.749  16.739  0.00  0.00    +0.000 A 
ATOM      8  C   UNL     1       4.876   6.078  16.772  0.00  0.00    +0.000 A 
ATOM      9  C   UNL     1       4.158   7.024  17.510  0.00  0.00    +0.000 A 
ATOM     10  C   UNL     1       3.000   6.661  18.199  0.00  0.00    +0.000 A 
ATOM     11  C   UNL     1       2.600   5.324  18.184  0.00  0.00    +0.000 A 
ATOM     12  C   UNL     1       3.325   4.370  17.448  0.00  0.00    +0.000 A 
BRANCH   7  14
ATOM     13  C   UNL     1       5.784   4.534  14.789  0.00  0.00    +0.000 C 
ATOM     14  O   UNL     1       5.226   3.934  15.950  0.00  0.00    +0.000 OA
ENDBRANCH   7  14
ENDBRANCH   1  10
BRANCH   4  15
ATOM     15  C   UNL     1       0.604  10.835  19.012  0.00  0.00    +0.000 A 
ATOM     16  C   UNL     1       1.454  11.950  19.087  0.00  0.00    +0.000 A 
ATOM     17  C   UNL     1       0.999  13.225  18.757  0.00  0.00    +0.000 A 
ATOM     18  C   UNL     1      -0.317  13.400  18.351  0.00  0.00    +0.000 A 
ATOM     19  C   UNL     1      -1.167  12.295  18.250  0.00  0.00    +0.000 A 
ATOM     20  C   UNL     1      -0.717  11.006  18.571  0.00  0.00    +0.000 A 
BRANCH  20  21
ATOM     21  O   UNL     1      -1.629  10.003  18.374  0.00  0.00    +0.000 OA
ATOM     22  C   UNL     1      -2.155   9.897  17.053  0.00  0.00    +0.000 C 
ENDBRANCH  20  21
ENDBRANCH   4  15
TORSDOF 4
ENDMDL
MODEL 7
REMARK VINA RESULT:      -6.5      2.975      8.294
REMARK  Name = 
REMARK  6 active torsions:
REMARK  status: ('A' for Active; 'I' for Inactive)
REMARK    1  A    between atoms: C_1  and  O_2
REMARK    2  A    between atoms: O_2  and  C_3
REMARK    3  A    between atoms: C_6  and  N_7
REMARK    4  A    between atoms: N_10  and  C_11
REMARK    5  A    between atoms: C_16  and  O_17
REMARK    6  A    between atoms: O_17  and  C_18
REMARK                            x       y       z     vdW  Elec       q    Type
REMARK                         _______ _______ _______ _____ _____    ______ ____
ROOT
ATOM      1  N   UNL     1       2.253   7.648  18.916  0.00  0.00    +0.000 N 
ATOM      2  C   UNL     1       1.813   8.853  18.398  0.00  0.00    +0.000 C 
ATOM      3  O   UNL     1       1.928   9.197  17.226  0.00  0.00    +0.000 OA
ATOM      4  N   UNL     1       1.219   9.645  19.369  0.00  0.00    +0.000 N 
ATOM      5  H   UNL     1       1.776   7.332  19.744  0.00  0.00    +0.000 HD
ATOM      6  H   UNL     1       1.620   9.570  20.292  0.00  0.00    +0.000 HD
ENDROOT
BRANCH   1  10
ATOM      7  C   UNL     1       4.557   4.822  16.770  0.00  0.00    +0.000 A 
ATOM      8  C   UNL     1       3.352   4.435  17.347  0.00  0.00    +0.000 A 
ATOM      9  C   UNL     1       2.563   5.363  18.033  0.00  0.00    +0.000 A 
ATOM     10  C   UNL     1       2.985   6.685  18.181  0.00  0.00    +0.000 A 
ATOM     11  C   UNL     1       4.183   7.079  17.585  0.00  0.00    +0.000 A 
ATOM     12  C   UNL     1       4.974   6.148  16.888  0.00  0.00    +0.000 A 
BRANCH   7  14
ATOM     13  C   UNL     1       5.867   4.135  14.926  0.00  0.00    +0.000 C 
ATOM     14  O   UNL     1       5.252   3.813  16.165  0.00  0.00    +0.000 OA
ENDBRANCH   7  14
ENDBRANCH   1  10
BRANCH   4  15
ATOM     15  C   UNL     1       0.673  10.902  19.016  0.00  0.00    +0.000 A 
ATOM     16  C   UNL     1       1.502  12.033  19.087  0.00  0.00    +0.000 A 
ATOM     17  C   UNL     1       1.024  13.297  18.750  0.00  0.00    +0.000 A 
ATOM     18  C   UNL     1      -0.294  13.446  18.340  0.00  0.00    +0.000 A 
ATOM     19  C   UNL     1      -1.123  12.325  18.242  0.00  0.00    +0.000 A 
ATOM     20  C   UNL     1      -0.650  11.046  18.570  0.00  0.00    +0.000 A 
BRANCH  20  21
ATOM     21  O   UNL     1      -1.542  10.025  18.376  0.00  0.00    +0.000 OA
ATOM     22  C   UNL     1      -2.074   9.911  17.058  0.00  0.00    +0.000 C 
ENDBRANCH  20  21
ENDBRANCH   4  15
TORSDOF 4
ENDMDL
MODEL 8
REMARK VINA RESULT:      -6.5      1.584      2.573
REMARK  Name = 
REMARK  6 active torsions:
REMARK  status: ('A' for Active; 'I' for Inactive)
REMARK    1  A    between atoms: C_1  and  O_2
REMARK    2  A    between atoms: O_2  and  C_3
REMARK    3  A    between atoms: C_6  and  N_7
REMARK    4  A    between atoms: N_10  and  C_11
REMARK    5  A    between atoms: C_16  and  O_17
REMARK    6  A    between atoms: O_17  and  C_18
REMARK                            x       y       z     vdW  Elec       q    Type
REMARK                         _______ _______ _______ _____ _____    ______ ____
ROOT
ATOM      1  N   UNL     1       1.528   7.528  21.225  0.00  0.00    +0.000 N 
ATOM      2  C   UNL     1       2.179   7.099  20.082  0.00  0.00    +0.000 C 
ATOM      3  O   UNL     1       2.277   7.747  19.045  0.00  0.00    +0.000 OA
ATOM      4  N   UNL     1       2.715   5.830  20.240  0.00  0.00    +0.000 N 
ATOM      5  H   UNL     1       1.838   7.107  22.084  0.00  0.00    +0.000 HD
ATOM      6  H   UNL     1       2.178   5.204  20.821  0.00  0.00    +0.000 HD
ENDROOT
BRANCH   1  10
ATOM      7  C   UNL     1      -0.581  11.174  21.628  0.00  0.00    +0.000 A 
ATOM      8  C   UNL     1      -0.116  10.780  20.377  0.00  0.00    +0.000 A 
ATOM      9  C   UNL     1       0.556   9.564  20.221  0.00  0.00    +0.000 A 
ATOM     10  C   UNL     1       0.801   8.739  21.319  0.00  0.00    +0.000 A 
ATOM     11  C   UNL     1       0.315   9.124  22.570  0.00  0.00    +0.000 A 
ATOM     12  C   UNL     1      -0.367  10.343  22.727  0.00  0.00    +0.000 A 
BRANCH   7  14
ATOM     13  C   UNL     1      -1.234  13.043  22.920  0.00  0.00    +0.000 C 
ATOM     14  O   UNL     1      -1.183  12.400  21.654  0.00  0.00    +0.000 OA
ENDBRANCH   7  14
ENDBRANCH   1  10
BRANCH   4  15
ATOM     15  C   UNL     1       3.452   5.241  19.186  0.00  0.00    +0.000 A 
ATOM     16  C   UNL     1       4.848   5.395  19.179  0.00  0.00    +0.000 A 
ATOM     17  C   UNL     1       5.629   4.837  18.170  0.00  0.00    +0.000 A 
ATOM     18  C   UNL     1       5.022   4.118  17.150  0.00  0.00    +0.000 A 
ATOM     19  C   UNL     1       3.635   3.935  17.157  0.00  0.00    +0.000 A 
ATOM     20  C   UNL     1       2.840   4.486  18.173  0.00  0.00    +0.000 A 
BRANCH  20  21
ATOM     21  O   UNL     1       1.505   4.186  18.098  0.00  0.00    +0.000 OA
ATOM     22  C   UNL     1       1.115   2.950  18.692  0.00  0.00    +0.000 C 
ENDBRANCH  20  21
ENDBRANCH   4  15
TORSDOF 4
ENDMDL
MODEL 9
REMARK VINA RESULT:      -6.4      1.564      2.378
REMARK  Name = 
REMARK  6 active torsions:
REMARK  status: ('A' for Active; 'I' for Inactive)
REMARK    1  A    between atoms: C_1  and  O_2
REMARK    2  A    between atoms: O_2  and  C_3
REMARK    3  A    between atoms: C_6  and  N_7
REMARK    4  A    between atoms: N_10  and  C_11
REMARK    5  A    between atoms: C_16  and  O_17
REMARK    6  A    between atoms: O_17  and  C_18
REMARK                            x       y       z     vdW  Elec       q    Type
REMARK                         _______ _______ _______ _____ _____    ______ ____
ROOT
ATOM      1  N   UNL     1       1.644   7.576  21.304  0.00  0.00    +0.000 N 
ATOM      2  C   UNL     1       2.170   7.106  20.114  0.00  0.00    +0.000 C 
ATOM      3  O   UNL     1       2.106   7.692  19.038  0.00  0.00    +0.000 OA
ATOM      4  N   UNL     1       2.785   5.873  20.274  0.00  0.00    +0.000 N 
ATOM      5  H   UNL     1       2.079   7.223  22.140  0.00  0.00    +0.000 HD
ATOM      6  H   UNL     1       2.357   5.262  20.953  0.00  0.00    +0.000 HD
ENDROOT
BRANCH   1  10
ATOM      7  C   UNL     1      -0.725  11.074  21.540  0.00  0.00    +0.000 A 
ATOM      8  C   UNL     1      -0.410  10.373  22.700  0.00  0.00    +0.000 A 
ATOM      9  C   UNL     1       0.396   9.233  22.644  0.00  0.00    +0.000 A 
ATOM     10  C   UNL     1       0.874   8.758  21.421  0.00  0.00    +0.000 A 
ATOM     11  C   UNL     1       0.577   9.473  20.260  0.00  0.00    +0.000 A 
ATOM     12  C   UNL     1      -0.228  10.625  20.317  0.00  0.00    +0.000 A 
BRANCH   7  14
ATOM     13  C   UNL     1      -2.314  12.144  22.925  0.00  0.00    +0.000 C 
ATOM     14  O   UNL     1      -1.553  12.144  21.725  0.00  0.00    +0.000 OA
ENDBRANCH   7  14
ENDBRANCH   1  10
BRANCH   4  15
ATOM     15  C   UNL     1       3.415   5.252  19.170  0.00  0.00    +0.000 A 
ATOM     16  C   UNL     1       4.796   5.437  18.998  0.00  0.00    +0.000 A 
ATOM     17  C   UNL     1       5.474   4.850  17.933  0.00  0.00    +0.000 A 
ATOM     18  C   UNL     1       4.776   4.071  17.021  0.00  0.00    +0.000 A 
ATOM     19  C   UNL     1       3.405   3.858  17.192  0.00  0.00    +0.000 A 
ATOM     20  C   UNL     1       2.714   4.438  18.267  0.00  0.00    +0.000 A 
BRANCH  20  21
ATOM     21  O   UNL     1       1.388   4.105  18.357  0.00  0.00    +0.000 OA
ATOM     22  C   UNL     1       1.112   2.741  18.664  0.00  0.00    +0.000 C 
ENDBRANCH  20  21
ENDBRANCH   4  15
TORSDOF 4
ENDMDL
