MODEL 1
REMARK VINA RESULT:      -7.1      0.000      0.000
REMARK  Name = 
REMARK  7 active torsions:
REMARK  status: ('A' for Active; 'I' for Inactive)
REMARK    1  A    between atoms: C_1  and  C_2
REMARK    2  A    between atoms: C_2  and  N_3
REMARK    3  A    between atoms: C_9  and  O_10
REMARK    4  A    between atoms: O_10  and  C_11
REMARK    5  A    between atoms: N_12  and  C_13
REMARK    6  A    between atoms: C_13  and  C_14
REMARK    7  A    between atoms: C_17  and  O_18
REMARK                            x       y       z     vdW  Elec       q    Type
REMARK                         _______ _______ _______ _____ _____    ______ ____
ROOT
ATOM      1  N   UNL     1       2.847   5.374  20.185  0.00  0.00    +0.000 N 
ATOM      2  C   UNL     1       2.029   6.500  20.324  0.00  0.00    +0.000 C 
ATOM      3  O   UNL     1       1.161   6.596  21.182  0.00  0.00    +0.000 OA
ATOM      4  C   UNL     1       2.237   7.480  19.302  0.00  0.00    +0.000 A 
ATOM      5  C   UNL     1       3.159   7.346  18.294  0.00  0.00    +0.000 A 
ATOM      6  N   UNL     1       3.134   8.406  17.439  0.00  0.00    +0.000 NA
ATOM      7  C   UNL     1       2.179   9.182  17.915  0.00  0.00    +0.000 A 
ATOM      8  N   UNL     1       1.521   8.604  18.979  0.00  0.00    +0.000 N 
ATOM      9  N   UNL     1       3.992   6.294  18.261  0.00  0.00    +0.000 N 
ATOM     10  C   UNL     1       3.886   5.351  19.264  0.00  0.00    +0.000 C 
ATOM     11  N   UNL     1       4.736   4.348  19.186  0.00  0.00    +0.000 NA
ATOM     12  C   UNL     1       5.361   4.555  17.836  0.00  0.00    +0.000 C 
ATOM     13  C   UNL     1       6.715   5.279  17.834  0.00  0.00    +0.000 C 
ATOM     14  C   UNL     1       6.651   6.282  16.668  0.00  0.00    +0.000 C 
ATOM     15  C   UNL     1       5.266   6.155  16.050  0.00  0.00    +0.000 C 
ATOM     16  C   UNL     1       4.409   5.526  17.107  0.00  0.00    +0.000 C 
ENDROOT
BRANCH   1  18
ATOM     17  C   UNL     1       1.203   3.632  19.440  0.00  0.00    +0.000 C 
ATOM     18  C   UNL     1       2.185   4.110  20.483  0.00  0.00    +0.000 C 
ENDBRANCH   1  18
BRANCH   7  19
ATOM     19  O   UNL     1       1.816  10.370  17.435  0.00  0.00    +0.000 OA
ATOM     20  C   UNL     1       2.521  11.473  17.993  0.00  0.00    +0.000 C 
ENDBRANCH   7  19
BRANCH   8  21
ATOM     21  C   UNL     1       0.145   8.899  19.359  0.00  0.00    +0.000 C 
BRANCH  21  22
ATOM     22  C   UNL     1      -0.047   9.922  20.448  0.00  0.00    +0.000 A 
ATOM     23  C   UNL     1      -0.119   9.530  21.797  0.00  0.00    +0.000 A 
ATOM     24  C   UNL     1      -0.474  10.434  22.796  0.00  0.00    +0.000 A 
ATOM     25  C   UNL     1      -0.736  11.759  22.468  0.00  0.00    +0.000 A 
ATOM     26  C   UNL     1      -0.609  12.189  21.142  0.00  0.00    +0.000 A 
ATOM     27 CL   UNL     1      -0.919  13.823  20.694  0.00  0.00    +0.000 Cl
ATOM     28  C   UNL     1      -0.252  11.279  20.144  0.00  0.00    +0.000 A 
BRANCH  25  29
ATOM     29  O   UNL     1      -1.153  12.626  23.438  0.00  0.00    +0.000 OA
ATOM     30  H   UNL     1      -0.418  12.782  24.053  0.00  0.00    +0.000 HD
ENDBRANCH  25  29
ENDBRANCH  21  22
ENDBRANCH   8  21
TORSDOF 5
ENDMDL
MODEL 2
REMARK VINA RESULT:      -7.0      1.922      3.936
REMARK  Name = 
REMARK  7 active torsions:
REMARK  status: ('A' for Active; 'I' for Inactive)
REMARK    1  A    between atoms: C_1  and  C_2
REMARK    2  A    between atoms: C_2  and  N_3
REMARK    3  A    between atoms: C_9  and  O_10
REMARK    4  A    between atoms: O_10  and  C_11
REMARK    5  A    between atoms: N_12  and  C_13
REMARK    6  A    between atoms: C_13  and  C_14
REMARK    7  A    between atoms: C_17  and  O_18
REMARK                            x       y       z     vdW  Elec       q    Type
REMARK                         _______ _______ _______ _____ _____    ______ ____
ROOT
ATOM      1  N   UNL     1       3.483   6.388  17.791  0.00  0.00    +0.000 N 
ATOM      2  C   UNL     1       2.810   7.595  18.008  0.00  0.00    +0.000 C 
ATOM      3  O   UNL     1       2.971   8.585  17.307  0.00  0.00    +0.000 OA
ATOM      4  C   UNL     1       1.999   7.586  19.187  0.00  0.00    +0.000 A 
ATOM      5  C   UNL     1       1.871   6.501  20.016  0.00  0.00    +0.000 A 
ATOM      6  N   UNL     1       1.064   6.767  21.080  0.00  0.00    +0.000 NA
ATOM      7  C   UNL     1       0.712   8.027  20.911  0.00  0.00    +0.000 A 
ATOM      8  N   UNL     1       1.352   8.606  19.837  0.00  0.00    +0.000 N 
ATOM      9  N   UNL     1       2.456   5.331  19.712  0.00  0.00    +0.000 N 
ATOM     10  C   UNL     1       3.194   5.259  18.547  0.00  0.00    +0.000 C 
ATOM     11  N   UNL     1       3.734   4.085  18.295  0.00  0.00    +0.000 NA
ATOM     12  C   UNL     1       3.482   3.329  19.569  0.00  0.00    +0.000 C 
ATOM     13  C   UNL     1       2.255   2.405  19.561  0.00  0.00    +0.000 C 
ATOM     14  C   UNL     1       1.561   2.620  20.918  0.00  0.00    +0.000 C 
ATOM     15  C   UNL     1       2.361   3.680  21.661  0.00  0.00    +0.000 C 
ATOM     16  C   UNL     1       3.133   4.415  20.607  0.00  0.00    +0.000 C 
ENDROOT
BRANCH   1  18
ATOM     17  C   UNL     1       5.050   6.254  15.838  0.00  0.00    +0.000 C 
ATOM     18  C   UNL     1       4.849   6.539  17.307  0.00  0.00    +0.000 C 
ENDBRANCH   1  18
BRANCH   7  19
ATOM     19  O   UNL     1      -0.120   8.724  21.683  0.00  0.00    +0.000 OA
ATOM     20  C   UNL     1       0.471   9.244  22.868  0.00  0.00    +0.000 C 
ENDBRANCH   7  19
BRANCH   8  21
ATOM     21  C   UNL     1       1.624  10.032  19.706  0.00  0.00    +0.000 C 
BRANCH  21  22
ATOM     22  C   UNL     1       0.428  10.930  19.523  0.00  0.00    +0.000 A 
ATOM     23  C   UNL     1       0.249  12.062  20.338  0.00  0.00    +0.000 A 
ATOM     24  C   UNL     1      -0.933  12.799  20.305  0.00  0.00    +0.000 A 
ATOM     25  C   UNL     1      -1.951  12.434  19.433  0.00  0.00    +0.000 A 
ATOM     26  C   UNL     1      -1.773  11.348  18.566  0.00  0.00    +0.000 A 
ATOM     27 CL   UNL     1      -3.007  10.866  17.466  0.00  0.00    +0.000 Cl
ATOM     28  C   UNL     1      -0.585  10.614  18.602  0.00  0.00    +0.000 A 
BRANCH  25  29
ATOM     29  O   UNL     1      -3.136  13.113  19.454  0.00  0.00    +0.000 OA
ATOM     30  H   UNL     1      -3.337  13.416  18.553  0.00  0.00    +0.000 HD
ENDBRANCH  25  29
ENDBRANCH  21  22
ENDBRANCH   8  21
TORSDOF 5
ENDMDL
MODEL 3
REMARK VINA RESULT:      -6.8      4.949      8.971
REMARK  Name = 
REMARK  7 active torsions:
REMARK  status: ('A' for Active; 'I' for Inactive)
REMARK    1  A    between atoms: C_1  and  C_2
REMARK    2  A    between atoms: C_2  and  N_3
REMARK    3  A    between atoms: C_9  and  O_10
REMARK    4  A    between atoms: O_10  and  C_11
REMARK    5  A    between atoms: N_12  and  C_13
REMARK    6  A    between atoms: C_13  and  C_14
REMARK    7  A    between atoms: C_17  and  O_18
REMARK                            x       y       z     vdW  Elec       q    Type
REMARK                         _______ _______ _______ _____ _____    ______ ____
ROOT
ATOM      1  N   UNL     1      -3.298  11.565  17.489  0.00  0.00    +0.000 N 
ATOM      2  C   UNL     1      -2.156  12.034  18.145  0.00  0.00    +0.000 C 
ATOM      3  O   UNL     1      -1.035  11.983  17.657  0.00  0.00    +0.000 OA
ATOM      4  C   UNL     1      -2.414  12.482  19.480  0.00  0.00    +0.000 A 
ATOM      5  C   UNL     1      -3.658  12.474  20.059  0.00  0.00    +0.000 A 
ATOM      6  N   UNL     1      -3.622  12.924  21.344  0.00  0.00    +0.000 NA
ATOM      7  C   UNL     1      -2.347  13.189  21.558  0.00  0.00    +0.000 A 
ATOM      8  N   UNL     1      -1.555  12.822  20.493  0.00  0.00    +0.000 N 
ATOM      9  N   UNL     1      -4.741  12.110  19.355  0.00  0.00    +0.000 N 
ATOM     10  C   UNL     1      -4.563  11.737  18.037  0.00  0.00    +0.000 C 
ATOM     11  N   UNL     1      -5.662  11.401  17.394  0.00  0.00    +0.000 NA
ATOM     12  C   UNL     1      -6.684  11.358  18.494  0.00  0.00    +0.000 C 
ATOM     13  C   UNL     1      -7.546  12.619  18.649  0.00  0.00    +0.000 C 
ATOM     14  C   UNL     1      -7.631  12.884  20.163  0.00  0.00    +0.000 C 
ATOM     15  C   UNL     1      -6.795  11.813  20.847  0.00  0.00    +0.000 C 
ATOM     16  C   UNL     1      -5.858  11.300  19.795  0.00  0.00    +0.000 C 
ENDROOT
BRANCH   1  18
ATOM     17  C   UNL     1      -2.975  10.631  15.184  0.00  0.00    +0.000 C 
ATOM     18  C   UNL     1      -3.077  10.380  16.669  0.00  0.00    +0.000 C 
ENDBRANCH   1  18
BRANCH   7  19
ATOM     19  O   UNL     1      -1.825  13.703  22.670  0.00  0.00    +0.000 OA
ATOM     20  C   UNL     1      -2.759  13.899  23.725  0.00  0.00    +0.000 C 
ENDBRANCH   7  19
BRANCH   8  21
ATOM     21  C   UNL     1      -0.145  12.465  20.595  0.00  0.00    +0.000 C 
BRANCH  21  22
ATOM     22  C   UNL     1       0.170  10.996  20.713  0.00  0.00    +0.000 A 
ATOM     23  C   UNL     1      -0.088  10.301  21.908  0.00  0.00    +0.000 A 
ATOM     24  C   UNL     1       0.358   8.994  22.097  0.00  0.00    +0.000 A 
ATOM     25  C   UNL     1       1.049   8.346  21.079  0.00  0.00    +0.000 A 
ATOM     26  C   UNL     1       1.263   8.994  19.857  0.00  0.00    +0.000 A 
ATOM     27 CL   UNL     1       2.109   8.225  18.569  0.00  0.00    +0.000 Cl
ATOM     28  C   UNL     1       0.812  10.303  19.673  0.00  0.00    +0.000 A 
BRANCH  25  29
ATOM     29  O   UNL     1       1.548   7.092  21.293  0.00  0.00    +0.000 OA
ATOM     30  H   UNL     1       2.078   7.103  22.106  0.00  0.00    +0.000 HD
ENDBRANCH  25  29
ENDBRANCH  21  22
ENDBRANCH   8  21
TORSDOF 5
ENDMDL
MODEL 4
REMARK VINA RESULT:      -6.7      4.141      8.700
REMARK  Name = 
REMARK  7 active torsions:
REMARK  status: ('A' for Active; 'I' for Inactive)
REMARK    1  A    between atoms: C_1  and  C_2
REMARK    2  A    between atoms: C_2  and  N_3
REMARK    3  A    between atoms: C_9  and  O_10
REMARK    4  A    between atoms: O_10  and  C_11
REMARK    5  A    between atoms: N_12  and  C_13
REMARK    6  A    between atoms: C_13  and  C_14
REMARK    7  A    between atoms: C_17  and  O_18
REMARK                            x       y       z     vdW  Elec       q    Type
REMARK                         _______ _______ _______ _____ _____    ______ ____
ROOT
ATOM      1  N   UNL     1      -3.484  12.128  19.066  0.00  0.00    +0.000 N 
ATOM      2  C   UNL     1      -2.163  12.007  18.620  0.00  0.00    +0.000 C 
ATOM      3  O   UNL     1      -1.869  11.632  17.493  0.00  0.00    +0.000 OA
ATOM      4  C   UNL     1      -1.196  12.266  19.643  0.00  0.00    +0.000 A 
ATOM      5  C   UNL     1      -1.521  12.616  20.929  0.00  0.00    +0.000 A 
ATOM      6  N   UNL     1      -0.415  12.776  21.707  0.00  0.00    +0.000 NA
ATOM      7  C   UNL     1       0.591  12.502  20.898  0.00  0.00    +0.000 A 
ATOM      8  N   UNL     1       0.161  12.068  19.663  0.00  0.00    +0.000 N 
ATOM      9  N   UNL     1      -2.800  12.818  21.283  0.00  0.00    +0.000 N 
ATOM     10  C   UNL     1      -3.774  12.655  20.318  0.00  0.00    +0.000 C 
ATOM     11  N   UNL     1      -5.008  12.878  20.719  0.00  0.00    +0.000 NA
ATOM     12  C   UNL     1      -4.847  13.018  22.206  0.00  0.00    +0.000 C 
ATOM     13  C   UNL     1      -4.759  14.458  22.732  0.00  0.00    +0.000 C 
ATOM     14  C   UNL     1      -3.633  14.453  23.781  0.00  0.00    +0.000 C 
ATOM     15  C   UNL     1      -3.067  13.041  23.815  0.00  0.00    +0.000 C 
ATOM     16  C   UNL     1      -3.458  12.418  22.509  0.00  0.00    +0.000 C 
ENDROOT
BRANCH   1  18
ATOM     17  C   UNL     1      -5.322  11.594  17.445  0.00  0.00    +0.000 C 
ATOM     18  C   UNL     1      -4.392  11.118  18.536  0.00  0.00    +0.000 C 
ENDBRANCH   1  18
BRANCH   7  19
ATOM     19  O   UNL     1       1.886  12.570  21.200  0.00  0.00    +0.000 OA
ATOM     20  C   UNL     1       2.535  13.754  20.751  0.00  0.00    +0.000 C 
ENDBRANCH   7  19
BRANCH   8  21
ATOM     21  C   UNL     1       0.927  11.199  18.779  0.00  0.00    +0.000 C 
BRANCH  21  22
ATOM     22  C   UNL     1       1.146   9.785  19.250  0.00  0.00    +0.000 A 
ATOM     23  C   UNL     1       0.727   9.383  20.531  0.00  0.00    +0.000 A 
ATOM     24  C   UNL     1       1.078   8.138  21.051  0.00  0.00    +0.000 A 
ATOM     25  C   UNL     1       1.833   7.258  20.286  0.00  0.00    +0.000 A 
ATOM     26  C   UNL     1       2.208   7.609  18.983  0.00  0.00    +0.000 A 
ATOM     27 CL   UNL     1       3.138   6.544  17.999  0.00  0.00    +0.000 Cl
ATOM     28  C   UNL     1       1.852   8.857  18.467  0.00  0.00    +0.000 A 
BRANCH  25  29
ATOM     29  O   UNL     1       2.236   6.068  20.824  0.00  0.00    +0.000 OA
ATOM     30  H   UNL     1       3.202   6.083  20.921  0.00  0.00    +0.000 HD
ENDBRANCH  25  29
ENDBRANCH  21  22
ENDBRANCH   8  21
TORSDOF 5
ENDMDL
MODEL 5
REMARK VINA RESULT:      -6.7      4.288      9.140
REMARK  Name = 
REMARK  7 active torsions:
REMARK  status: ('A' for Active; 'I' for Inactive)
REMARK    1  A    between atoms: C_1  and  C_2
REMARK    2  A    between atoms: C_2  and  N_3
REMARK    3  A    between atoms: C_9  and  O_10
REMARK    4  A    between atoms: O_10  and  C_11
REMARK    5  A    between atoms: N_12  and  C_13
REMARK    6  A    between atoms: C_13  and  C_14
REMARK    7  A    between atoms: C_17  and  O_18
REMARK                            x       y       z     vdW  Elec       q    Type
REMARK                         _______ _______ _______ _____ _____    ______ ____
ROOT
ATOM      1  N   UNL     1      -2.156  12.818  22.796  0.00  0.00    +0.000 N 
ATOM      2  C   UNL     1      -1.283  12.048  22.020  0.00  0.00    +0.000 C 
ATOM      3  O   UNL     1      -0.180  11.689  22.411  0.00  0.00    +0.000 OA
ATOM      4  C   UNL     1      -1.764  11.813  20.693  0.00  0.00    +0.000 A 
ATOM      5  C   UNL     1      -2.968  12.275  20.225  0.00  0.00    +0.000 A 
ATOM      6  N   UNL     1      -3.171  11.937  18.921  0.00  0.00    +0.000 NA
ATOM      7  C   UNL     1      -2.076  11.283  18.584  0.00  0.00    +0.000 A 
ATOM      8  N   UNL     1      -1.137  11.285  19.593  0.00  0.00    +0.000 N 
ATOM      9  N   UNL     1      -3.817  12.924  21.038  0.00  0.00    +0.000 N 
ATOM     10  C   UNL     1      -3.438  13.116  22.352  0.00  0.00    +0.000 C 
ATOM     11  N   UNL     1      -4.315  13.747  23.105  0.00  0.00    +0.000 NA
ATOM     12  C   UNL     1      -5.334  14.208  22.102  0.00  0.00    +0.000 C 
ATOM     13  C   UNL     1      -6.578  13.319  21.961  0.00  0.00    +0.000 C 
ATOM     14  C   UNL     1      -6.847  13.212  20.449  0.00  0.00    +0.000 C 
ATOM     15  C   UNL     1      -5.746  13.995  19.747  0.00  0.00    +0.000 C 
ATOM     16  C   UNL     1      -4.624  14.088  20.737  0.00  0.00    +0.000 C 
ENDROOT
BRANCH   1  18
ATOM     17  C   UNL     1      -0.980  15.028  22.943  0.00  0.00    +0.000 C 
ATOM     18  C   UNL     1      -1.497  13.798  23.650  0.00  0.00    +0.000 C 
ENDBRANCH   1  18
BRANCH   7  19
ATOM     19  O   UNL     1      -1.831  10.710  17.408  0.00  0.00    +0.000 OA
ATOM     20  C   UNL     1      -2.820   9.778  16.987  0.00  0.00    +0.000 C 
ENDBRANCH   7  19
BRANCH   8  21
ATOM     21  C   UNL     1       0.301  11.163  19.386  0.00  0.00    +0.000 C 
BRANCH  21  22
ATOM     22  C   UNL     1       0.879   9.775  19.487  0.00  0.00    +0.000 A 
ATOM     23  C   UNL     1       0.749   9.028  20.671  0.00  0.00    +0.000 A 
ATOM     24  C   UNL     1       1.427   7.823  20.846  0.00  0.00    +0.000 A 
ATOM     25  C   UNL     1       2.227   7.326  19.824  0.00  0.00    +0.000 A 
ATOM     26  C   UNL     1       2.323   8.019  18.611  0.00  0.00    +0.000 A 
ATOM     27 CL   UNL     1       3.298   7.435  17.317  0.00  0.00    +0.000 Cl
ATOM     28  C   UNL     1       1.640   9.226  18.441  0.00  0.00    +0.000 A 
BRANCH  25  29
ATOM     29  O   UNL     1       2.947   6.182  20.024  0.00  0.00    +0.000 OA
ATOM     30  H   UNL     1       3.386   6.238  20.888  0.00  0.00    +0.000 HD
ENDBRANCH  25  29
ENDBRANCH  21  22
ENDBRANCH   8  21
TORSDOF 5
ENDMDL
MODEL 6
REMARK VINA RESULT:      -6.6      3.117      7.858
REMARK  Name = 
REMARK  7 active torsions:
REMARK  status: ('A' for Active; 'I' for Inactive)
REMARK    1  A    between atoms: C_1  and  C_2
REMARK    2  A    between atoms: C_2  and  N_3
REMARK    3  A    between atoms: C_9  and  O_10
REMARK    4  A    between atoms: O_10  and  C_11
REMARK    5  A    between atoms: N_12  and  C_13
REMARK    6  A    between atoms: C_13  and  C_14
REMARK    7  A    between atoms: C_17  and  O_18
REMARK                            x       y       z     vdW  Elec       q    Type
REMARK                         _______ _______ _______ _____ _____    ______ ____
ROOT
ATOM      1  N   UNL     1       1.394   9.669  18.608  0.00  0.00    +0.000 N 
ATOM      2  C   UNL     1       2.134   8.528  18.280  0.00  0.00    +0.000 C 
ATOM      3  O   UNL     1       2.701   8.384  17.205  0.00  0.00    +0.000 OA
ATOM      4  C   UNL     1       2.075   7.508  19.283  0.00  0.00    +0.000 A 
ATOM      5  C   UNL     1       1.382   7.636  20.460  0.00  0.00    +0.000 A 
ATOM      6  N   UNL     1       1.465   6.511  21.223  0.00  0.00    +0.000 NA
ATOM      7  C   UNL     1       2.197   5.684  20.500  0.00  0.00    +0.000 A 
ATOM      8  N   UNL     1       2.491   6.202  19.258  0.00  0.00    +0.000 N 
ATOM      9  N   UNL     1       0.770   8.789  20.775  0.00  0.00    +0.000 N 
ATOM     10  C   UNL     1       0.854   9.834  19.877  0.00  0.00    +0.000 C 
ATOM     11  N   UNL     1       0.246  10.943  20.245  0.00  0.00    +0.000 NA
ATOM     12  C   UNL     1      -0.512  10.509  21.468  0.00  0.00    +0.000 C 
ATOM     13  C   UNL     1       0.164  10.817  22.812  0.00  0.00    +0.000 C 
ATOM     14  C   UNL     1      -0.023   9.554  23.672  0.00  0.00    +0.000 C 
ATOM     15  C   UNL     1      -0.755   8.535  22.811  0.00  0.00    +0.000 C 
ATOM     16  C   UNL     1      -0.527   8.968  21.394  0.00  0.00    +0.000 C 
ENDROOT
BRANCH   1  18
ATOM     17  C   UNL     1      -0.813   9.978  17.458  0.00  0.00    +0.000 C 
ATOM     18  C   UNL     1       0.671  10.259  17.489  0.00  0.00    +0.000 C 
ENDBRANCH   1  18
BRANCH   7  19
ATOM     19  O   UNL     1       2.591   4.464  20.857  0.00  0.00    +0.000 OA
ATOM     20  C   UNL     1       1.532   3.534  21.050  0.00  0.00    +0.000 C 
ENDBRANCH   7  19
BRANCH   8  21
ATOM     21  C   UNL     1       2.772   5.400  18.073  0.00  0.00    +0.000 C 
BRANCH  21  22
ATOM     22  C   UNL     1       4.223   5.205  17.722  0.00  0.00    +0.000 A 
ATOM     23  C   UNL     1       4.592   4.527  16.546  0.00  0.00    +0.000 A 
ATOM     24  C   UNL     1       5.919   4.181  16.294  0.00  0.00    +0.000 A 
ATOM     25  C   UNL     1       6.908   4.531  17.205  0.00  0.00    +0.000 A 
ATOM     26  C   UNL     1       6.576   5.261  18.353  0.00  0.00    +0.000 A 
ATOM     27 CL   UNL     1       7.773   5.720  19.503  0.00  0.00    +0.000 Cl
ATOM     28  C   UNL     1       5.245   5.607  18.598  0.00  0.00    +0.000 A 
BRANCH  25  29
ATOM     29  O   UNL     1       8.196   4.127  16.992  0.00  0.00    +0.000 OA
ATOM     30  H   UNL     1       8.308   3.929  16.048  0.00  0.00    +0.000 HD
ENDBRANCH  25  29
ENDBRANCH  21  22
ENDBRANCH   8  21
TORSDOF 5
ENDMDL
MODEL 7
REMARK VINA RESULT:      -6.5      4.209      9.087
REMARK  Name = 
REMARK  7 active torsions:
REMARK  status: ('A' for Active; 'I' for Inactive)
REMARK    1  A    between atoms: C_1  and  C_2
REMARK    2  A    between atoms: C_2  and  N_3
REMARK    3  A    between atoms: C_9  and  O_10
REMARK    4  A    between atoms: O_10  and  C_11
REMARK    5  A    between atoms: N_12  and  C_13
REMARK    6  A    between atoms: C_13  and  C_14
REMARK    7  A    between atoms: C_17  and  O_18
REMARK                            x       y       z     vdW  Elec       q    Type
REMARK                         _______ _______ _______ _____ _____    ______ ____
ROOT
ATOM      1  N   UNL     1      -2.057  12.773  22.565  0.00  0.00    +0.000 N 
ATOM      2  C   UNL     1      -1.132  12.146  21.724  0.00  0.00    +0.000 C 
ATOM      3  O   UNL     1       0.028  11.930  22.048  0.00  0.00    +0.000 OA
ATOM      4  C   UNL     1      -1.647  11.879  20.415  0.00  0.00    +0.000 A 
ATOM      5  C   UNL     1      -2.926  12.185  20.023  0.00  0.00    +0.000 A 
ATOM      6  N   UNL     1      -3.151  11.852  18.721  0.00  0.00    +0.000 NA
ATOM      7  C   UNL     1      -1.998  11.359  18.310  0.00  0.00    +0.000 A 
ATOM      8  N   UNL     1      -1.016  11.465  19.271  0.00  0.00    +0.000 N 
ATOM      9  N   UNL     1      -3.809  12.693  20.896  0.00  0.00    +0.000 N 
ATOM     10  C   UNL     1      -3.389  12.905  22.195  0.00  0.00    +0.000 C 
ATOM     11  N   UNL     1      -4.301  13.394  23.009  0.00  0.00    +0.000 NA
ATOM     12  C   UNL     1      -5.425  13.737  22.072  0.00  0.00    +0.000 C 
ATOM     13  C   UNL     1      -6.545  12.691  21.967  0.00  0.00    +0.000 C 
ATOM     14  C   UNL     1      -6.877  12.584  20.468  0.00  0.00    +0.000 C 
ATOM     15  C   UNL     1      -5.930  13.524  19.736  0.00  0.00    +0.000 C 
ATOM     16  C   UNL     1      -4.779  13.745  20.671  0.00  0.00    +0.000 C 
ENDROOT
BRANCH   1  18
ATOM     17  C   UNL     1      -1.185  15.119  22.720  0.00  0.00    +0.000 C 
ATOM     18  C   UNL     1      -1.489  13.813  23.414  0.00  0.00    +0.000 C 
ENDBRANCH   1  18
BRANCH   7  19
ATOM     19  O   UNL     1      -1.742  10.852  17.106  0.00  0.00    +0.000 OA
ATOM     20  C   UNL     1      -2.878  10.321  16.435  0.00  0.00    +0.000 C 
ENDBRANCH   7  19
BRANCH   8  21
ATOM     21  C   UNL     1       0.413  11.543  18.988  0.00  0.00    +0.000 C 
BRANCH  21  22
ATOM     22  C   UNL     1       1.164  10.237  18.960  0.00  0.00    +0.000 A 
ATOM     23  C   UNL     1       1.931   9.875  17.838  0.00  0.00    +0.000 A 
ATOM     24  C   UNL     1       2.484   8.601  17.719  0.00  0.00    +0.000 A 
ATOM     25  C   UNL     1       2.304   7.672  18.737  0.00  0.00    +0.000 A 
ATOM     26  C   UNL     1       1.598   8.028  19.892  0.00  0.00    +0.000 A 
ATOM     27 CL   UNL     1       1.357   6.909  21.179  0.00  0.00    +0.000 Cl
ATOM     28  C   UNL     1       1.047   9.307  20.007  0.00  0.00    +0.000 A 
BRANCH  25  29
ATOM     29  O   UNL     1       2.785   6.402  18.586  0.00  0.00    +0.000 OA
ATOM     30  H   UNL     1       2.649   6.125  17.666  0.00  0.00    +0.000 HD
ENDBRANCH  25  29
ENDBRANCH  21  22
ENDBRANCH   8  21
TORSDOF 5
ENDMDL
MODEL 8
REMARK VINA RESULT:      -6.5      1.723      3.850
REMARK  Name = 
REMARK  7 active torsions:
REMARK  status: ('A' for Active; 'I' for Inactive)
REMARK    1  A    between atoms: C_1  and  C_2
REMARK    2  A    between atoms: C_2  and  N_3
REMARK    3  A    between atoms: C_9  and  O_10
REMARK    4  A    between atoms: O_10  and  C_11
REMARK    5  A    between atoms: N_12  and  C_13
REMARK    6  A    between atoms: C_13  and  C_14
REMARK    7  A    between atoms: C_17  and  O_18
REMARK                            x       y       z     vdW  Elec       q    Type
REMARK                         _______ _______ _______ _____ _____    ______ ____
ROOT
ATOM      1  N   UNL     1       3.283   6.788  17.825  0.00  0.00    +0.000 N 
ATOM      2  C   UNL     1       2.632   7.994  18.108  0.00  0.00    +0.000 C 
ATOM      3  O   UNL     1       2.797   9.013  17.451  0.00  0.00    +0.000 OA
ATOM      4  C   UNL     1       1.840   7.942  19.298  0.00  0.00    +0.000 A 
ATOM      5  C   UNL     1       1.709   6.822  20.080  0.00  0.00    +0.000 A 
ATOM      6  N   UNL     1       0.923   7.051  21.168  0.00  0.00    +0.000 NA
ATOM      7  C   UNL     1       0.588   8.323  21.062  0.00  0.00    +0.000 A 
ATOM      8  N   UNL     1       1.219   8.940  20.005  0.00  0.00    +0.000 N 
ATOM      9  N   UNL     1       2.272   5.660  19.713  0.00  0.00    +0.000 N 
ATOM     10  C   UNL     1       2.989   5.630  18.534  0.00  0.00    +0.000 C 
ATOM     11  N   UNL     1       3.508   4.461  18.219  0.00  0.00    +0.000 NA
ATOM     12  C   UNL     1       3.264   3.652  19.461  0.00  0.00    +0.000 C 
ATOM     13  C   UNL     1       2.024   2.746  19.432  0.00  0.00    +0.000 C 
ATOM     14  C   UNL     1       1.355   2.909  20.808  0.00  0.00    +0.000 C 
ATOM     15  C   UNL     1       2.182   3.923  21.586  0.00  0.00    +0.000 C 
ATOM     16  C   UNL     1       2.948   4.694  20.554  0.00  0.00    +0.000 C 
ENDROOT
BRANCH   1  18
ATOM     17  C   UNL     1       4.838   6.610  15.866  0.00  0.00    +0.000 C 
ATOM     18  C   UNL     1       4.644   6.942  17.326  0.00  0.00    +0.000 C 
ENDBRANCH   1  18
BRANCH   7  19
ATOM     19  O   UNL     1      -0.221   8.995  21.879  0.00  0.00    +0.000 OA
ATOM     20  C   UNL     1       0.348   9.312  23.144  0.00  0.00    +0.000 C 
ENDBRANCH   7  19
BRANCH   8  21
ATOM     21  C   UNL     1       1.510  10.367  19.935  0.00  0.00    +0.000 C 
BRANCH  21  22
ATOM     22  C   UNL     1       0.335  11.300  20.068  0.00  0.00    +0.000 A 
ATOM     23  C   UNL     1      -0.753  11.216  19.182  0.00  0.00    +0.000 A 
ATOM     24  C   UNL     1      -1.760  12.179  19.176  0.00  0.00    +0.000 A 
ATOM     25  C   UNL     1      -1.712  13.234  20.080  0.00  0.00    +0.000 A 
ATOM     26  C   UNL     1      -0.672  13.307  21.015  0.00  0.00    +0.000 A 
ATOM     27 CL   UNL     1      -0.579  14.594  22.155  0.00  0.00    +0.000 Cl
ATOM     28  C   UNL     1       0.333  12.337  21.017  0.00  0.00    +0.000 A 
BRANCH  25  29
ATOM     29  O   UNL     1      -2.661  14.216  20.024  0.00  0.00    +0.000 OA
ATOM     30  H   UNL     1      -2.227  15.055  19.802  0.00  0.00    +0.000 HD
ENDBRANCH  25  29
ENDBRANCH  21  22
ENDBRANCH   8  21
TORSDOF 5
ENDMDL
MODEL 9
REMARK VINA RESULT:      -6.5      1.197      1.490
REMARK  Name = 
REMARK  7 active torsions:
REMARK  status: ('A' for Active; 'I' for Inactive)
REMARK    1  A    between atoms: C_1  and  C_2
REMARK    2  A    between atoms: C_2  and  N_3
REMARK    3  A    between atoms: C_9  and  O_10
REMARK    4  A    between atoms: O_10  and  C_11
REMARK    5  A    between atoms: N_12  and  C_13
REMARK    6  A    between atoms: C_13  and  C_14
REMARK    7  A    between atoms: C_17  and  O_18
REMARK                            x       y       z     vdW  Elec       q    Type
REMARK                         _______ _______ _______ _____ _____    ______ ____
ROOT
ATOM      1  N   UNL     1       3.134   5.014  20.040  0.00  0.00    +0.000 N 
ATOM      2  C   UNL     1       2.230   6.078  20.116  0.00  0.00    +0.000 C 
ATOM      3  O   UNL     1       1.270   6.087  20.875  0.00  0.00    +0.000 OA
ATOM      4  C   UNL     1       2.480   7.103  19.149  0.00  0.00    +0.000 A 
ATOM      5  C   UNL     1       3.512   7.064  18.247  0.00  0.00    +0.000 A 
ATOM      6  N   UNL     1       3.507   8.148  17.422  0.00  0.00    +0.000 NA
ATOM      7  C   UNL     1       2.454   8.843  17.808  0.00  0.00    +0.000 A 
ATOM      8  N   UNL     1       1.726   8.187  18.778  0.00  0.00    +0.000 N 
ATOM      9  N   UNL     1       4.415   6.071  18.278  0.00  0.00    +0.000 N 
ATOM     10  C   UNL     1       4.267   5.090  19.239  0.00  0.00    +0.000 C 
ATOM     11  N   UNL     1       5.188   4.149  19.230  0.00  0.00    +0.000 NA
ATOM     12  C   UNL     1       5.940   4.442  17.963  0.00  0.00    +0.000 C 
ATOM     13  C   UNL     1       7.233   5.254  18.129  0.00  0.00    +0.000 C 
ATOM     14  C   UNL     1       7.226   6.289  16.990  0.00  0.00    +0.000 C 
ATOM     15  C   UNL     1       5.929   6.090  16.219  0.00  0.00    +0.000 C 
ATOM     16  C   UNL     1       5.008   5.371  17.158  0.00  0.00    +0.000 C 
ENDROOT
BRANCH   1  18
ATOM     17  C   UNL     1       1.736   3.177  19.059  0.00  0.00    +0.000 C 
ATOM     18  C   UNL     1       2.534   3.699  20.230  0.00  0.00    +0.000 C 
ENDBRANCH   1  18
BRANCH   7  19
ATOM     19  O   UNL     1       2.064  10.019  17.322  0.00  0.00    +0.000 OA
ATOM     20  C   UNL     1       2.486  11.143  18.085  0.00  0.00    +0.000 C 
ENDBRANCH   7  19
BRANCH   8  21
ATOM     21  C   UNL     1       0.300   8.377  19.011  0.00  0.00    +0.000 C 
BRANCH  21  22
ATOM     22  C   UNL     1      -0.080   9.337  20.108  0.00  0.00    +0.000 A 
ATOM     23  C   UNL     1      -0.513  10.640  19.804  0.00  0.00    +0.000 A 
ATOM     24  C   UNL     1      -0.695  11.595  20.803  0.00  0.00    +0.000 A 
ATOM     25  C   UNL     1      -0.475  11.254  22.132  0.00  0.00    +0.000 A 
ATOM     26  C   UNL     1      -0.105   9.946  22.467  0.00  0.00    +0.000 A 
ATOM     27 CL   UNL     1       0.172   9.482  24.102  0.00  0.00    +0.000 Cl
ATOM     28  C   UNL     1       0.075   8.993  21.462  0.00  0.00    +0.000 A 
BRANCH  25  29
ATOM     29  O   UNL     1      -0.585  12.211  23.102  0.00  0.00    +0.000 OA
ATOM     30  H   UNL     1       0.220  12.197  23.644  0.00  0.00    +0.000 HD
ENDBRANCH  25  29
ENDBRANCH  21  22
ENDBRANCH   8  21
TORSDOF 5
ENDMDL
