MODEL 1
REMARK VINA RESULT:      -7.6      0.000      0.000
REMARK  Name = 
REMARK  2 active torsions:
REMARK  status: ('A' for Active; 'I' for Inactive)
REMARK    1  A    between atoms: C_1  and  C_2
REMARK    2  A    between atoms: C_4  and  N_5
REMARK                            x       y       z     vdW  Elec       q    Type
REMARK                         _______ _______ _______ _____ _____    ______ ____
ROOT
ATOM      1  N   UNL     1       4.430   4.082  17.270  0.00  0.00    +0.000 N 
ATOM      2  C   UNL     1       3.871   5.126  18.132  0.00  0.00    +0.000 C 
ATOM      3  C   UNL     1       2.367   5.220  17.902  0.00  0.00    +0.000 C 
ATOM      4  C   UNL     1       1.686   3.871  18.088  0.00  0.00    +0.000 C 
ATOM      5  C   UNL     1       1.709   3.174  19.464  0.00  0.00    +0.000 C 
ATOM      6  N   UNL     1       1.928   1.882  18.772  0.00  0.00    +0.000 NA
ATOM      7  C   UNL     1       2.458   2.624  17.590  0.00  0.00    +0.000 C 
ATOM      8  C   UNL     1       4.000   2.711  17.577  0.00  0.00    +0.000 C 
ATOM      9  H   UNL     1       1.056   1.389  18.571  0.00  0.00    +0.000 HD
ENDROOT
BRANCH   1  13
ATOM     10  C   UNL     1       5.950   3.466  12.606  0.00  0.00    +0.000 C 
ATOM     11  C   UNL     1       6.114   4.094  13.955  0.00  0.00    +0.000 A 
ATOM     12  C   UNL     1       5.232   3.770  14.996  0.00  0.00    +0.000 A 
ATOM     13  C   UNL     1       5.324   4.367  16.259  0.00  0.00    +0.000 A 
ATOM     14  C   UNL     1       6.382   5.272  16.399  0.00  0.00    +0.000 A 
ATOM     15  N   UNL     1       7.275   5.610  15.437  0.00  0.00    +0.000 NA
ATOM     16  C   UNL     1       7.111   5.017  14.240  0.00  0.00    +0.000 A 
ATOM     17 CL   UNL     1       8.265   5.524  13.070  0.00  0.00    +0.000 Cl
ENDBRANCH   1  13
TORSDOF 1
ENDMDL
MODEL 2
REMARK VINA RESULT:      -7.3      0.879      1.122
REMARK  Name = 
REMARK  2 active torsions:
REMARK  status: ('A' for Active; 'I' for Inactive)
REMARK    1  A    between atoms: C_1  and  C_2
REMARK    2  A    between atoms: C_4  and  N_5
REMARK                            x       y       z     vdW  Elec       q    Type
REMARK                         _______ _______ _______ _____ _____    ______ ____
ROOT
ATOM      1  N   UNL     1       4.929   4.016  17.363  0.00  0.00    +0.000 N 
ATOM      2  C   UNL     1       5.354   4.366  18.720  0.00  0.00    +0.000 C 
ATOM      3  C   UNL     1       4.388   5.392  19.304  0.00  0.00    +0.000 C 
ATOM      4  C   UNL     1       2.947   4.903  19.242  0.00  0.00    +0.000 C 
ATOM      5  C   UNL     1       2.520   3.648  20.028  0.00  0.00    +0.000 C 
ATOM      6  N   UNL     1       1.691   3.241  18.870  0.00  0.00    +0.000 NA
ATOM      7  C   UNL     1       2.536   4.096  17.985  0.00  0.00    +0.000 C 
ATOM      8  C   UNL     1       3.648   3.301  17.266  0.00  0.00    +0.000 C 
ATOM      9  H   UNL     1       0.727   3.574  18.937  0.00  0.00    +0.000 HD
ENDROOT
BRANCH   1  13
ATOM     10  C   UNL     1       5.876   3.444  12.545  0.00  0.00    +0.000 C 
ATOM     11  C   UNL     1       6.203   4.058  13.871  0.00  0.00    +0.000 A 
ATOM     12  C   UNL     1       5.452   3.725  15.006  0.00  0.00    +0.000 A 
ATOM     13  C   UNL     1       5.696   4.309  16.256  0.00  0.00    +0.000 A 
ATOM     14  C   UNL     1       6.766   5.211  16.276  0.00  0.00    +0.000 A 
ATOM     15  N   UNL     1       7.538   5.557  15.217  0.00  0.00    +0.000 NA
ATOM     16  C   UNL     1       7.230   4.976  14.043  0.00  0.00    +0.000 A 
ATOM     17 CL   UNL     1       8.236   5.493  12.748  0.00  0.00    +0.000 Cl
ENDBRANCH   1  13
TORSDOF 1
ENDMDL
MODEL 3
REMARK VINA RESULT:      -7.3      1.006      1.066
REMARK  Name = 
REMARK  2 active torsions:
REMARK  status: ('A' for Active; 'I' for Inactive)
REMARK    1  A    between atoms: C_1  and  C_2
REMARK    2  A    between atoms: C_4  and  N_5
REMARK                            x       y       z     vdW  Elec       q    Type
REMARK                         _______ _______ _______ _____ _____    ______ ____
ROOT
ATOM      1  N   UNL     1       4.593   4.622  17.630  0.00  0.00    +0.000 N 
ATOM      2  C   UNL     1       3.346   5.378  17.753  0.00  0.00    +0.000 C 
ATOM      3  C   UNL     1       2.165   4.413  17.739  0.00  0.00    +0.000 C 
ATOM      4  C   UNL     1       2.311   3.334  18.804  0.00  0.00    +0.000 C 
ATOM      5  C   UNL     1       2.333   3.717  20.298  0.00  0.00    +0.000 C 
ATOM      6  N   UNL     1       3.401   2.712  20.509  0.00  0.00    +0.000 NA
ATOM      7  C   UNL     1       3.740   2.790  19.057  0.00  0.00    +0.000 C 
ATOM      8  C   UNL     1       4.917   3.747  18.766  0.00  0.00    +0.000 C 
ATOM      9  H   UNL     1       3.035   1.797  20.780  0.00  0.00    +0.000 HD
ENDROOT
BRANCH   1  13
ATOM     10  C   UNL     1       5.665   3.535  12.927  0.00  0.00    +0.000 C 
ATOM     11  C   UNL     1       5.994   4.240  14.207  0.00  0.00    +0.000 A 
ATOM     12  C   UNL     1       5.176   4.074  15.333  0.00  0.00    +0.000 A 
ATOM     13  C   UNL     1       5.423   4.748  16.536  0.00  0.00    +0.000 A 
ATOM     14  C   UNL     1       6.563   5.559  16.523  0.00  0.00    +0.000 A 
ATOM     15  N   UNL     1       7.400   5.743  15.473  0.00  0.00    +0.000 NA
ATOM     16  C   UNL     1       7.087   5.084  14.342  0.00  0.00    +0.000 A 
ATOM     17 CL   UNL     1       8.180   5.397  13.052  0.00  0.00    +0.000 Cl
ENDBRANCH   1  13
TORSDOF 1
ENDMDL
MODEL 4
REMARK VINA RESULT:      -7.0      1.339      1.953
REMARK  Name = 
REMARK  2 active torsions:
REMARK  status: ('A' for Active; 'I' for Inactive)
REMARK    1  A    between atoms: C_1  and  C_2
REMARK    2  A    between atoms: C_4  and  N_5
REMARK                            x       y       z     vdW  Elec       q    Type
REMARK                         _______ _______ _______ _____ _____    ______ ____
ROOT
ATOM      1  N   UNL     1       4.291   4.606  17.107  0.00  0.00    +0.000 N 
ATOM      2  C   UNL     1       3.428   3.431  17.235  0.00  0.00    +0.000 C 
ATOM      3  C   UNL     1       3.744   2.711  18.542  0.00  0.00    +0.000 C 
ATOM      4  C   UNL     1       3.645   3.650  19.736  0.00  0.00    +0.000 C 
ATOM      5  C   UNL     1       2.296   4.301  20.102  0.00  0.00    +0.000 C 
ATOM      6  N   UNL     1       3.017   5.560  20.397  0.00  0.00    +0.000 NA
ATOM      7  C   UNL     1       4.140   5.103  19.526  0.00  0.00    +0.000 C 
ATOM      8  C   UNL     1       4.057   5.672  18.092  0.00  0.00    +0.000 C 
ATOM      9  H   UNL     1       3.287   5.641  21.380  0.00  0.00    +0.000 HD
ENDROOT
BRANCH   1  13
ATOM     10  C   UNL     1       5.894   3.413  12.586  0.00  0.00    +0.000 C 
ATOM     11  C   UNL     1       6.069   4.158  13.873  0.00  0.00    +0.000 A 
ATOM     12  C   UNL     1       5.133   4.008  14.906  0.00  0.00    +0.000 A 
ATOM     13  C   UNL     1       5.235   4.718  16.109  0.00  0.00    +0.000 A 
ATOM     14  C   UNL     1       6.359   5.547  16.200  0.00  0.00    +0.000 A 
ATOM     15  N   UNL     1       7.305   5.717  15.244  0.00  0.00    +0.000 NA
ATOM     16  C   UNL     1       7.129   5.023  14.105  0.00  0.00    +0.000 A 
ATOM     17 CL   UNL     1       8.355   5.320  12.936  0.00  0.00    +0.000 Cl
ENDBRANCH   1  13
TORSDOF 1
ENDMDL
MODEL 5
REMARK VINA RESULT:      -6.9      2.797      3.547
REMARK  Name = 
REMARK  2 active torsions:
REMARK  status: ('A' for Active; 'I' for Inactive)
REMARK    1  A    between atoms: C_1  and  C_2
REMARK    2  A    between atoms: C_4  and  N_5
REMARK                            x       y       z     vdW  Elec       q    Type
REMARK                         _______ _______ _______ _____ _____    ______ ____
ROOT
ATOM      1  N   UNL     1       3.348   4.417  18.113  0.00  0.00    +0.000 N 
ATOM      2  C   UNL     1       3.181   3.210  17.301  0.00  0.00    +0.000 C 
ATOM      3  C   UNL     1       3.190   1.985  18.210  0.00  0.00    +0.000 C 
ATOM      4  C   UNL     1       2.151   2.103  19.318  0.00  0.00    +0.000 C 
ATOM      5  C   UNL     1       0.651   2.175  18.971  0.00  0.00    +0.000 C 
ATOM      6  N   UNL     1       0.485   3.198  20.029  0.00  0.00    +0.000 NA
ATOM      7  C   UNL     1       1.942   3.509  19.934  0.00  0.00    +0.000 C 
ATOM      8  C   UNL     1       2.239   4.724  19.027  0.00  0.00    +0.000 C 
ATOM      9  H   UNL     1       0.226   2.795  20.931  0.00  0.00    +0.000 HD
ENDROOT
BRANCH   1  13
ATOM     10  C   UNL     1       7.924   5.627  19.541  0.00  0.00    +0.000 C 
ATOM     11  C   UNL     1       6.727   5.864  18.673  0.00  0.00    +0.000 A 
ATOM     12  C   UNL     1       5.582   5.069  18.820  0.00  0.00    +0.000 A 
ATOM     13  C   UNL     1       4.458   5.229  18.000  0.00  0.00    +0.000 A 
ATOM     14  C   UNL     1       4.565   6.262  17.063  0.00  0.00    +0.000 A 
ATOM     15  N   UNL     1       5.636   7.074  16.888  0.00  0.00    +0.000 NA
ATOM     16  C   UNL     1       6.690   6.847  17.694  0.00  0.00    +0.000 A 
ATOM     17 CL   UNL     1       8.015   7.898  17.386  0.00  0.00    +0.000 Cl
ENDBRANCH   1  13
TORSDOF 1
ENDMDL
MODEL 6
REMARK VINA RESULT:      -6.7      1.830      2.890
REMARK  Name = 
REMARK  2 active torsions:
REMARK  status: ('A' for Active; 'I' for Inactive)
REMARK    1  A    between atoms: C_1  and  C_2
REMARK    2  A    between atoms: C_4  and  N_5
REMARK                            x       y       z     vdW  Elec       q    Type
REMARK                         _______ _______ _______ _____ _____    ______ ____
ROOT
ATOM      1  N   UNL     1       3.374   4.291  18.724  0.00  0.00    +0.000 N 
ATOM      2  C   UNL     1       1.940   4.268  18.429  0.00  0.00    +0.000 C 
ATOM      3  C   UNL     1       1.407   2.852  18.623  0.00  0.00    +0.000 C 
ATOM      4  C   UNL     1       1.735   2.316  20.010  0.00  0.00    +0.000 C 
ATOM      5  C   UNL     1       1.155   3.001  21.264  0.00  0.00    +0.000 C 
ATOM      6  N   UNL     1       2.460   2.808  21.937  0.00  0.00    +0.000 NA
ATOM      7  C   UNL     1       3.115   2.700  20.599  0.00  0.00    +0.000 C 
ATOM      8  C   UNL     1       3.736   4.032  20.125  0.00  0.00    +0.000 C 
ATOM      9  H   UNL     1       2.506   1.938  22.470  0.00  0.00    +0.000 HD
ENDROOT
BRANCH   1  13
ATOM     10  C   UNL     1       7.303   6.880  17.207  0.00  0.00    +0.000 C 
ATOM     11  C   UNL     1       6.266   5.828  16.963  0.00  0.00    +0.000 A 
ATOM     12  C   UNL     1       5.279   5.576  17.926  0.00  0.00    +0.000 A 
ATOM     13  C   UNL     1       4.317   4.571  17.757  0.00  0.00    +0.000 A 
ATOM     14  C   UNL     1       4.406   3.880  16.544  0.00  0.00    +0.000 A 
ATOM     15  N   UNL     1       5.324   4.093  15.570  0.00  0.00    +0.000 NA
ATOM     16  C   UNL     1       6.233   5.056  15.811  0.00  0.00    +0.000 A 
ATOM     17 CL   UNL     1       7.377   5.239  14.540  0.00  0.00    +0.000 Cl
ENDBRANCH   1  13
TORSDOF 1
ENDMDL
MODEL 7
REMARK VINA RESULT:      -6.5      4.418      6.465
REMARK  Name = 
REMARK  2 active torsions:
REMARK  status: ('A' for Active; 'I' for Inactive)
REMARK    1  A    between atoms: C_1  and  C_2
REMARK    2  A    between atoms: C_4  and  N_5
REMARK                            x       y       z     vdW  Elec       q    Type
REMARK                         _______ _______ _______ _____ _____    ______ ____
ROOT
ATOM      1  N   UNL     1       2.836   5.741  19.973  0.00  0.00    +0.000 N 
ATOM      2  C   UNL     1       2.165   4.755  20.823  0.00  0.00    +0.000 C 
ATOM      3  C   UNL     1       1.805   3.530  19.989  0.00  0.00    +0.000 C 
ATOM      4  C   UNL     1       3.024   2.963  19.273  0.00  0.00    +0.000 C 
ATOM      5  C   UNL     1       4.209   2.402  20.084  0.00  0.00    +0.000 C 
ATOM      6  N   UNL     1       5.134   3.032  19.113  0.00  0.00    +0.000 NA
ATOM      7  C   UNL     1       4.052   3.985  18.725  0.00  0.00    +0.000 C 
ATOM      8  C   UNL     1       4.154   5.340  19.459  0.00  0.00    +0.000 C 
ATOM      9  H   UNL     1       5.396   2.402  18.352  0.00  0.00    +0.000 HD
ENDROOT
BRANCH   1  13
ATOM     10  C   UNL     1       0.298   9.710  21.472  0.00  0.00    +0.000 C 
ATOM     11  C   UNL     1       1.031   8.963  20.401  0.00  0.00    +0.000 A 
ATOM     12  C   UNL     1       1.554   7.688  20.662  0.00  0.00    +0.000 A 
ATOM     13  C   UNL     1       2.283   6.975  19.702  0.00  0.00    +0.000 A 
ATOM     14  C   UNL     1       2.407   7.621  18.468  0.00  0.00    +0.000 A 
ATOM     15  N   UNL     1       1.908   8.841  18.152  0.00  0.00    +0.000 NA
ATOM     16  C   UNL     1       1.241   9.481  19.130  0.00  0.00    +0.000 A 
ATOM     17 CL   UNL     1       0.669  11.032  18.657  0.00  0.00    +0.000 Cl
ENDBRANCH   1  13
TORSDOF 1
ENDMDL
MODEL 8
REMARK VINA RESULT:      -6.4      3.269      6.252
REMARK  Name = 
REMARK  2 active torsions:
REMARK  status: ('A' for Active; 'I' for Inactive)
REMARK    1  A    between atoms: C_1  and  C_2
REMARK    2  A    between atoms: C_4  and  N_5
REMARK                            x       y       z     vdW  Elec       q    Type
REMARK                         _______ _______ _______ _____ _____    ______ ____
ROOT
ATOM      1  N   UNL     1       4.860   4.675  17.427  0.00  0.00    +0.000 N 
ATOM      2  C   UNL     1       5.899   5.697  17.568  0.00  0.00    +0.000 C 
ATOM      3  C   UNL     1       7.264   5.068  17.308  0.00  0.00    +0.000 C 
ATOM      4  C   UNL     1       7.308   4.363  15.959  0.00  0.00    +0.000 C 
ATOM      5  C   UNL     1       7.124   5.167  14.656  0.00  0.00    +0.000 C 
ATOM      6  N   UNL     1       6.298   4.059  14.124  0.00  0.00    +0.000 NA
ATOM      7  C   UNL     1       6.026   3.611  15.522  0.00  0.00    +0.000 C 
ATOM      8  C   UNL     1       4.681   4.139  16.070  0.00  0.00    +0.000 C 
ATOM      9  H   UNL     1       6.844   3.379  13.591  0.00  0.00    +0.000 HD
ENDROOT
BRANCH   1  13
ATOM     10  C   UNL     1       1.467   5.696  20.874  0.00  0.00    +0.000 C 
ATOM     11  C   UNL     1       2.399   4.728  20.213  0.00  0.00    +0.000 A 
ATOM     12  C   UNL     1       3.226   5.152  19.163  0.00  0.00    +0.000 A 
ATOM     13  C   UNL     1       4.080   4.270  18.489  0.00  0.00    +0.000 A 
ATOM     14  C   UNL     1       4.062   2.958  18.976  0.00  0.00    +0.000 A 
ATOM     15  N   UNL     1       3.300   2.496  19.998  0.00  0.00    +0.000 NA
ATOM     16  C   UNL     1       2.485   3.393  20.582  0.00  0.00    +0.000 A 
ATOM     17 CL   UNL     1       1.533   2.718  21.845  0.00  0.00    +0.000 Cl
ENDBRANCH   1  13
TORSDOF 1
ENDMDL
MODEL 9
REMARK VINA RESULT:      -6.4      3.177      5.940
REMARK  Name = 
REMARK  2 active torsions:
REMARK  status: ('A' for Active; 'I' for Inactive)
REMARK    1  A    between atoms: C_1  and  C_2
REMARK    2  A    between atoms: C_4  and  N_5
REMARK                            x       y       z     vdW  Elec       q    Type
REMARK                         _______ _______ _______ _____ _____    ______ ____
ROOT
ATOM      1  N   UNL     1       4.587   4.756  16.850  0.00  0.00    +0.000 N 
ATOM      2  C   UNL     1       5.340   6.010  16.799  0.00  0.00    +0.000 C 
ATOM      3  C   UNL     1       6.834   5.703  16.804  0.00  0.00    +0.000 C 
ATOM      4  C   UNL     1       7.211   4.740  15.686  0.00  0.00    +0.000 C 
ATOM      5  C   UNL     1       7.022   5.150  14.212  0.00  0.00    +0.000 C 
ATOM      6  N   UNL     1       6.545   3.778  13.923  0.00  0.00    +0.000 NA
ATOM      7  C   UNL     1       6.201   3.610  15.366  0.00  0.00    +0.000 C 
ATOM      8  C   UNL     1       4.712   3.894  15.665  0.00  0.00    +0.000 C 
ATOM      9  H   UNL     1       7.295   3.154  13.621  0.00  0.00    +0.000 HD
ENDROOT
BRANCH   1  13
ATOM     10  C   UNL     1       0.718   2.295  18.699  0.00  0.00    +0.000 C 
ATOM     11  C   UNL     1       1.880   3.220  18.885  0.00  0.00    +0.000 A 
ATOM     12  C   UNL     1       2.665   3.595  17.786  0.00  0.00    +0.000 A 
ATOM     13  C   UNL     1       3.787   4.423  17.923  0.00  0.00    +0.000 A 
ATOM     14  C   UNL     1       4.026   4.866  19.228  0.00  0.00    +0.000 A 
ATOM     15  N   UNL     1       3.292   4.553  20.324  0.00  0.00    +0.000 NA
ATOM     16  C   UNL     1       2.244   3.732  20.122  0.00  0.00    +0.000 A 
ATOM     17 CL   UNL     1       1.388   3.362  21.566  0.00  0.00    +0.000 Cl
ENDBRANCH   1  13
TORSDOF 1
ENDMDL
