MODEL 1
REMARK VINA RESULT:      -8.1      0.000      0.000
REMARK  Name = 
REMARK  9 active torsions:
REMARK  status: ('A' for Active; 'I' for Inactive)
REMARK    1  A    between atoms: C_1  and  N_2
REMARK    2  A    between atoms: C_4  and  C_5
REMARK    3  A    between atoms: C_7  and  C_8
REMARK    4  A    between atoms: C_8  and  N_10
REMARK    5  A    between atoms: N_19  and  C_20
REMARK    6  A    between atoms: C_20  and  C_21
REMARK    7  A    between atoms: C_21  and  C_22
REMARK    8  A    between atoms: C_21  and  C_23
REMARK    9  A    between atoms: C_21  and  O_24
REMARK                            x       y       z     vdW  Elec       q    Type
REMARK                         _______ _______ _______ _____ _____    ______ ____
ROOT
ATOM      1  N   UNL     1       0.406   9.677  17.830  0.00  0.00    +0.000 NA
ATOM      2  C   UNL     1      -0.212  10.565  18.541  0.00  0.00    +0.000 A 
ATOM      3  N   UNL     1       0.324  11.477  19.442  0.00  0.00    +0.000 N 
ATOM      4  C   UNL     1      -0.690  12.194  20.063  0.00  0.00    +0.000 A 
ATOM      5  C   UNL     1      -0.618  13.179  21.020  0.00  0.00    +0.000 A 
ATOM      6  C   UNL     1      -1.819  13.753  21.438  0.00  0.00    +0.000 A 
ATOM      7  C   UNL     1      -3.047  13.333  20.889  0.00  0.00    +0.000 A 
ATOM      8  C   UNL     1      -3.099  12.334  19.906  0.00  0.00    +0.000 A 
ATOM      9  C   UNL     1      -1.909  11.774  19.494  0.00  0.00    +0.000 A 
ATOM     10  N   UNL     1      -1.603  10.793  18.545  0.00  0.00    +0.000 N 
ATOM     11  H   UNL     1       1.303  11.479  19.688  0.00  0.00    +0.000 HD
ENDROOT
BRANCH   1  12
ATOM     12  C   UNL     1       1.771   9.574  17.974  0.00  0.00    +0.000 C 
ATOM     13  O   UNL     1       2.581  10.493  17.859  0.00  0.00    +0.000 OA
BRANCH  12  16
ATOM     14  C   UNL     1       3.564   6.253  17.880  0.00  0.00    +0.000 A 
ATOM     15  C   UNL     1       3.102   7.495  17.461  0.00  0.00    +0.000 A 
ATOM     16  C   UNL     1       2.289   8.226  18.328  0.00  0.00    +0.000 A 
ATOM     17  C   UNL     1       1.960   7.703  19.583  0.00  0.00    +0.000 A 
ATOM     18  C   UNL     1       2.452   6.458  19.906  0.00  0.00    +0.000 A 
ATOM     19  N   UNL     1       3.239   5.729  19.089  0.00  0.00    +0.000 NA
BRANCH  14  23
ATOM     20  C   UNL     1       6.824   4.907  14.387  0.00  0.00    +0.000 C 
ATOM     21  N   UNL     1       5.899   4.886  15.495  0.00  0.00    +0.000 N 
ATOM     22  C   UNL     1       5.248   5.949  16.041  0.00  0.00    +0.000 A 
ATOM     23  C   UNL     1       4.447   5.448  17.051  0.00  0.00    +0.000 A 
ATOM     24  C   UNL     1       4.711   4.058  17.024  0.00  0.00    +0.000 A 
ATOM     25  N   UNL     1       5.595   3.713  16.082  0.00  0.00    +0.000 NA
ENDBRANCH  14  23
ENDBRANCH  12  16
ENDBRANCH   1  12
BRANCH  10  26
ATOM     26  C   UNL     1      -2.595  10.020  17.815  0.00  0.00    +0.000 C 
BRANCH  26  27
ATOM     27  C   UNL     1      -3.018  10.696  16.483  0.00  0.00    +0.000 C 
ATOM     28  C   UNL     1      -2.985   9.735  15.291  0.00  0.00    +0.000 C 
ATOM     29  C   UNL     1      -4.430  11.274  16.642  0.00  0.00    +0.000 C 
BRANCH  27  30
ATOM     30  O   UNL     1      -2.154  11.801  16.181  0.00  0.00    +0.000 OA
ATOM     31  H   UNL     1      -2.010  11.785  15.216  0.00  0.00    +0.000 HD
ENDBRANCH  27  30
ENDBRANCH  26  27
ENDBRANCH  10  26
TORSDOF 6
ENDMDL
MODEL 2
REMARK VINA RESULT:      -8.1      2.135      8.993
REMARK  Name = 
REMARK  9 active torsions:
REMARK  status: ('A' for Active; 'I' for Inactive)
REMARK    1  A    between atoms: C_1  and  N_2
REMARK    2  A    between atoms: C_4  and  C_5
REMARK    3  A    between atoms: C_7  and  C_8
REMARK    4  A    between atoms: C_8  and  N_10
REMARK    5  A    between atoms: N_19  and  C_20
REMARK    6  A    between atoms: C_20  and  C_21
REMARK    7  A    between atoms: C_21  and  C_22
REMARK    8  A    between atoms: C_21  and  C_23
REMARK    9  A    between atoms: C_21  and  O_24
REMARK                            x       y       z     vdW  Elec       q    Type
REMARK                         _______ _______ _______ _____ _____    ______ ____
ROOT
ATOM      1  N   UNL     1       2.003   7.477  18.361  0.00  0.00    +0.000 NA
ATOM      2  C   UNL     1       2.951   6.782  17.817  0.00  0.00    +0.000 A 
ATOM      3  N   UNL     1       4.044   7.234  17.087  0.00  0.00    +0.000 N 
ATOM      4  C   UNL     1       4.778   6.159  16.604  0.00  0.00    +0.000 A 
ATOM      5  C   UNL     1       5.917   6.141  15.833  0.00  0.00    +0.000 A 
ATOM      6  C   UNL     1       6.460   4.894  15.525  0.00  0.00    +0.000 A 
ATOM      7  C   UNL     1       5.859   3.710  15.997  0.00  0.00    +0.000 A 
ATOM      8  C   UNL     1       4.704   3.749  16.792  0.00  0.00    +0.000 A 
ATOM      9  C   UNL     1       4.173   4.984  17.095  0.00  0.00    +0.000 A 
ATOM     10  N   UNL     1       3.069   5.379  17.858  0.00  0.00    +0.000 N 
ATOM     11  H   UNL     1       4.163   8.206  16.842  0.00  0.00    +0.000 HD
ENDROOT
BRANCH   1  12
ATOM     12  C   UNL     1       2.032   8.844  18.196  0.00  0.00    +0.000 C 
ATOM     13  O   UNL     1       2.924   9.486  17.645  0.00  0.00    +0.000 OA
BRANCH  12  16
ATOM     14  C   UNL     1      -1.302  10.592  18.472  0.00  0.00    +0.000 A 
ATOM     15  C   UNL     1      -0.230   9.919  17.901  0.00  0.00    +0.000 A 
ATOM     16  C   UNL     1       0.854   9.587  18.716  0.00  0.00    +0.000 A 
ATOM     17  C   UNL     1       0.838   9.933  20.072  0.00  0.00    +0.000 A 
ATOM     18  C   UNL     1      -0.261  10.611  20.546  0.00  0.00    +0.000 A 
ATOM     19  N   UNL     1      -1.322  10.946  19.783  0.00  0.00    +0.000 NA
BRANCH  14  23
ATOM     20  C   UNL     1      -5.827  12.233  17.259  0.00  0.00    +0.000 C 
ATOM     21  N   UNL     1      -4.495  11.681  17.195  0.00  0.00    +0.000 N 
ATOM     22  C   UNL     1      -3.613  11.546  18.223  0.00  0.00    +0.000 A 
ATOM     23  C   UNL     1      -2.485  10.939  17.700  0.00  0.00    +0.000 A 
ATOM     24  C   UNL     1      -2.807  10.763  16.333  0.00  0.00    +0.000 A 
ATOM     25  N   UNL     1      -4.026  11.216  16.022  0.00  0.00    +0.000 NA
ENDBRANCH  14  23
ENDBRANCH  12  16
ENDBRANCH   1  12
BRANCH  10  26
ATOM     26  C   UNL     1       2.108   4.460  18.446  0.00  0.00    +0.000 C 
BRANCH  26  27
ATOM     27  C   UNL     1       2.384   4.186  19.949  0.00  0.00    +0.000 C 
ATOM     28  C   UNL     1       1.131   3.752  20.714  0.00  0.00    +0.000 C 
ATOM     29  C   UNL     1       3.464   3.103  20.069  0.00  0.00    +0.000 C 
BRANCH  27  30
ATOM     30  O   UNL     1       2.906   5.359  20.588  0.00  0.00    +0.000 OA
ATOM     31  H   UNL     1       2.937   5.163  21.544  0.00  0.00    +0.000 HD
ENDBRANCH  27  30
ENDBRANCH  26  27
ENDBRANCH  10  26
TORSDOF 6
ENDMDL
MODEL 3
REMARK VINA RESULT:      -8.0      2.149      8.899
REMARK  Name = 
REMARK  9 active torsions:
REMARK  status: ('A' for Active; 'I' for Inactive)
REMARK    1  A    between atoms: C_1  and  N_2
REMARK    2  A    between atoms: C_4  and  C_5
REMARK    3  A    between atoms: C_7  and  C_8
REMARK    4  A    between atoms: C_8  and  N_10
REMARK    5  A    between atoms: N_19  and  C_20
REMARK    6  A    between atoms: C_20  and  C_21
REMARK    7  A    between atoms: C_21  and  C_22
REMARK    8  A    between atoms: C_21  and  C_23
REMARK    9  A    between atoms: C_21  and  O_24
REMARK                            x       y       z     vdW  Elec       q    Type
REMARK                         _______ _______ _______ _____ _____    ______ ____
ROOT
ATOM      1  N   UNL     1       2.441   7.609  18.733  0.00  0.00    +0.000 NA
ATOM      2  C   UNL     1       3.270   6.871  18.066  0.00  0.00    +0.000 A 
ATOM      3  N   UNL     1       3.948   7.178  16.892  0.00  0.00    +0.000 N 
ATOM      4  C   UNL     1       4.674   6.079  16.454  0.00  0.00    +0.000 A 
ATOM      5  C   UNL     1       5.472   5.932  15.344  0.00  0.00    +0.000 A 
ATOM      6  C   UNL     1       6.114   4.705  15.176  0.00  0.00    +0.000 A 
ATOM      7  C   UNL     1       5.946   3.670  16.116  0.00  0.00    +0.000 A 
ATOM      8  C   UNL     1       5.136   3.843  17.249  0.00  0.00    +0.000 A 
ATOM      9  C   UNL     1       4.507   5.058  17.411  0.00  0.00    +0.000 A 
ATOM     10  N   UNL     1       3.665   5.563  18.408  0.00  0.00    +0.000 N 
ATOM     11  H   UNL     1       3.788   8.037  16.386  0.00  0.00    +0.000 HD
ENDROOT
BRANCH   1  12
ATOM     12  C   UNL     1       2.147   8.858  18.235  0.00  0.00    +0.000 C 
ATOM     13  O   UNL     1       2.792   9.466  17.382  0.00  0.00    +0.000 OA
BRANCH  12  16
ATOM     14  C   UNL     1      -1.260  10.458  18.531  0.00  0.00    +0.000 A 
ATOM     15  C   UNL     1      -0.137   9.887  17.945  0.00  0.00    +0.000 A 
ATOM     16  C   UNL     1       0.918   9.501  18.772  0.00  0.00    +0.000 A 
ATOM     17  C   UNL     1       0.826   9.692  20.155  0.00  0.00    +0.000 A 
ATOM     18  C   UNL     1      -0.319  10.278  20.645  0.00  0.00    +0.000 A 
ATOM     19  N   UNL     1      -1.355  10.662  19.870  0.00  0.00    +0.000 NA
BRANCH  14  23
ATOM     20  C   UNL     1      -5.723  12.221  17.263  0.00  0.00    +0.000 C 
ATOM     21  N   UNL     1      -4.401  11.646  17.214  0.00  0.00    +0.000 N 
ATOM     22  C   UNL     1      -3.546  11.463  18.257  0.00  0.00    +0.000 A 
ATOM     23  C   UNL     1      -2.417  10.851  17.742  0.00  0.00    +0.000 A 
ATOM     24  C   UNL     1      -2.709  10.724  16.363  0.00  0.00    +0.000 A 
ATOM     25  N   UNL     1      -3.911  11.209  16.038  0.00  0.00    +0.000 NA
ENDBRANCH  14  23
ENDBRANCH  12  16
ENDBRANCH   1  12
BRANCH  10  26
ATOM     26  C   UNL     1       3.152   4.781  19.521  0.00  0.00    +0.000 C 
BRANCH  26  27
ATOM     27  C   UNL     1       1.948   3.887  19.120  0.00  0.00    +0.000 C 
ATOM     28  C   UNL     1       2.337   2.420  18.918  0.00  0.00    +0.000 C 
ATOM     29  C   UNL     1       0.866   3.991  20.204  0.00  0.00    +0.000 C 
BRANCH  27  30
ATOM     30  O   UNL     1       1.354   4.356  17.902  0.00  0.00    +0.000 OA
ATOM     31  H   UNL     1       0.818   5.137  18.137  0.00  0.00    +0.000 HD
ENDBRANCH  27  30
ENDBRANCH  26  27
ENDBRANCH  10  26
TORSDOF 6
ENDMDL
MODEL 4
REMARK VINA RESULT:      -7.9      1.379      3.159
REMARK  Name = 
REMARK  9 active torsions:
REMARK  status: ('A' for Active; 'I' for Inactive)
REMARK    1  A    between atoms: C_1  and  N_2
REMARK    2  A    between atoms: C_4  and  C_5
REMARK    3  A    between atoms: C_7  and  C_8
REMARK    4  A    between atoms: C_8  and  N_10
REMARK    5  A    between atoms: N_19  and  C_20
REMARK    6  A    between atoms: C_20  and  C_21
REMARK    7  A    between atoms: C_21  and  C_22
REMARK    8  A    between atoms: C_21  and  C_23
REMARK    9  A    between atoms: C_21  and  O_24
REMARK                            x       y       z     vdW  Elec       q    Type
REMARK                         _______ _______ _______ _____ _____    ______ ____
ROOT
ATOM      1  N   UNL     1       1.022   9.832  19.096  0.00  0.00    +0.000 NA
ATOM      2  C   UNL     1      -0.153  10.173  18.674  0.00  0.00    +0.000 A 
ATOM      3  N   UNL     1      -0.676  10.064  17.391  0.00  0.00    +0.000 N 
ATOM      4  C   UNL     1      -1.944  10.626  17.338  0.00  0.00    +0.000 A 
ATOM      5  C   UNL     1      -2.814  10.747  16.280  0.00  0.00    +0.000 A 
ATOM      6  C   UNL     1      -4.054  11.334  16.535  0.00  0.00    +0.000 A 
ATOM      7  C   UNL     1      -4.389  11.774  17.831  0.00  0.00    +0.000 A 
ATOM      8  C   UNL     1      -3.492  11.631  18.901  0.00  0.00    +0.000 A 
ATOM      9  C   UNL     1      -2.271  11.048  18.643  0.00  0.00    +0.000 A 
ATOM     10  N   UNL     1      -1.175  10.743  19.459  0.00  0.00    +0.000 N 
ATOM     11  H   UNL     1      -0.120   9.753  16.608  0.00  0.00    +0.000 HD
ENDROOT
BRANCH   1  12
ATOM     12  C   UNL     1       1.910   9.313  18.180  0.00  0.00    +0.000 C 
ATOM     13  O   UNL     1       2.276   9.860  17.141  0.00  0.00    +0.000 OA
BRANCH  12  16
ATOM     14  C   UNL     1       3.967   6.149  18.116  0.00  0.00    +0.000 A 
ATOM     15  C   UNL     1       3.465   7.383  17.721  0.00  0.00    +0.000 A 
ATOM     16  C   UNL     1       2.484   7.983  18.512  0.00  0.00    +0.000 A 
ATOM     17  C   UNL     1       2.034   7.341  19.671  0.00  0.00    +0.000 A 
ATOM     18  C   UNL     1       2.579   6.114  19.975  0.00  0.00    +0.000 A 
ATOM     19  N   UNL     1       3.527   5.510  19.230  0.00  0.00    +0.000 NA
BRANCH  14  23
ATOM     20  C   UNL     1       6.602   4.237  14.369  0.00  0.00    +0.000 C 
ATOM     21  N   UNL     1       6.164   4.645  15.683  0.00  0.00    +0.000 N 
ATOM     22  C   UNL     1       5.040   5.349  15.991  0.00  0.00    +0.000 A 
ATOM     23  C   UNL     1       5.017   5.477  17.368  0.00  0.00    +0.000 A 
ATOM     24  C   UNL     1       6.195   4.810  17.781  0.00  0.00    +0.000 A 
ATOM     25  N   UNL     1       6.895   4.307  16.761  0.00  0.00    +0.000 NA
ENDBRANCH  14  23
ENDBRANCH  12  16
ENDBRANCH   1  12
BRANCH  10  26
ATOM     26  C   UNL     1      -1.064  11.123  20.858  0.00  0.00    +0.000 C 
BRANCH  26  27
ATOM     27  C   UNL     1      -0.207  12.401  21.065  0.00  0.00    +0.000 C 
ATOM     28  C   UNL     1      -0.324  13.390  19.902  0.00  0.00    +0.000 C 
ATOM     29  C   UNL     1      -0.635  13.084  22.370  0.00  0.00    +0.000 C 
BRANCH  27  30
ATOM     30  O   UNL     1       1.178  12.060  21.215  0.00  0.00    +0.000 OA
ATOM     31  H   UNL     1       1.236  11.090  21.133  0.00  0.00    +0.000 HD
ENDBRANCH  27  30
ENDBRANCH  26  27
ENDBRANCH  10  26
TORSDOF 6
ENDMDL
MODEL 5
REMARK VINA RESULT:      -7.8      2.920      9.079
REMARK  Name = 
REMARK  9 active torsions:
REMARK  status: ('A' for Active; 'I' for Inactive)
REMARK    1  A    between atoms: C_1  and  N_2
REMARK    2  A    between atoms: C_4  and  C_5
REMARK    3  A    between atoms: C_7  and  C_8
REMARK    4  A    between atoms: C_8  and  N_10
REMARK    5  A    between atoms: N_19  and  C_20
REMARK    6  A    between atoms: C_20  and  C_21
REMARK    7  A    between atoms: C_21  and  C_22
REMARK    8  A    between atoms: C_21  and  C_23
REMARK    9  A    between atoms: C_21  and  O_24
REMARK                            x       y       z     vdW  Elec       q    Type
REMARK                         _______ _______ _______ _____ _____    ______ ____
ROOT
ATOM      1  N   UNL     1       1.871   7.210  18.618  0.00  0.00    +0.000 NA
ATOM      2  C   UNL     1       2.860   6.624  18.021  0.00  0.00    +0.000 A 
ATOM      3  N   UNL     1       3.916   7.203  17.328  0.00  0.00    +0.000 N 
ATOM      4  C   UNL     1       4.717   6.220  16.763  0.00  0.00    +0.000 A 
ATOM      5  C   UNL     1       5.850   6.338  15.993  0.00  0.00    +0.000 A 
ATOM      6  C   UNL     1       6.475   5.157  15.589  0.00  0.00    +0.000 A 
ATOM      7  C   UNL     1       5.957   3.903  15.969  0.00  0.00    +0.000 A 
ATOM      8  C   UNL     1       4.806   3.804  16.765  0.00  0.00    +0.000 A 
ATOM      9  C   UNL     1       4.196   4.973  17.162  0.00  0.00    +0.000 A 
ATOM     10  N   UNL     1       3.071   5.233  17.954  0.00  0.00    +0.000 N 
ATOM     11  H   UNL     1       3.969   8.197  17.158  0.00  0.00    +0.000 HD
ENDROOT
BRANCH   1  12
ATOM     12  C   UNL     1       1.807   8.584  18.558  0.00  0.00    +0.000 C 
ATOM     13  O   UNL     1       2.059   9.277  17.574  0.00  0.00    +0.000 OA
BRANCH  12  16
ATOM     14  C   UNL     1       0.514  11.154  21.003  0.00  0.00    +0.000 A 
ATOM     15  C   UNL     1       0.935  10.597  19.801  0.00  0.00    +0.000 A 
ATOM     16  C   UNL     1       1.365   9.269  19.801  0.00  0.00    +0.000 A 
ATOM     17  C   UNL     1       1.363   8.536  20.993  0.00  0.00    +0.000 A 
ATOM     18  C   UNL     1       0.943   9.176  22.137  0.00  0.00    +0.000 A 
ATOM     19  N   UNL     1       0.522  10.457  22.167  0.00  0.00    +0.000 NA
BRANCH  14  23
ATOM     20  C   UNL     1      -0.773  15.780  19.747  0.00  0.00    +0.000 C 
ATOM     21  N   UNL     1      -0.550  14.562  20.487  0.00  0.00    +0.000 N 
ATOM     22  C   UNL     1      -0.052  13.390  20.007  0.00  0.00    +0.000 A 
ATOM     23  C   UNL     1       0.015  12.518  21.079  0.00  0.00    +0.000 A 
ATOM     24  C   UNL     1      -0.483  13.284  22.159  0.00  0.00    +0.000 A 
ATOM     25  N   UNL     1      -0.830  14.524  21.803  0.00  0.00    +0.000 NA
ENDBRANCH  14  23
ENDBRANCH  12  16
ENDBRANCH   1  12
BRANCH  10  26
ATOM     26  C   UNL     1       2.178   4.209  18.470  0.00  0.00    +0.000 C 
BRANCH  26  27
ATOM     27  C   UNL     1       2.405   3.921  19.979  0.00  0.00    +0.000 C 
ATOM     28  C   UNL     1       1.128   3.477  20.698  0.00  0.00    +0.000 C 
ATOM     29  C   UNL     1       3.484   2.840  20.124  0.00  0.00    +0.000 C 
BRANCH  27  30
ATOM     30  O   UNL     1       2.903   5.089  20.646  0.00  0.00    +0.000 OA
ATOM     31  H   UNL     1       2.148   5.476  21.128  0.00  0.00    +0.000 HD
ENDBRANCH  27  30
ENDBRANCH  26  27
ENDBRANCH  10  26
TORSDOF 6
ENDMDL
MODEL 6
REMARK VINA RESULT:      -7.8      2.687      9.193
REMARK  Name = 
REMARK  9 active torsions:
REMARK  status: ('A' for Active; 'I' for Inactive)
REMARK    1  A    between atoms: C_1  and  N_2
REMARK    2  A    between atoms: C_4  and  C_5
REMARK    3  A    between atoms: C_7  and  C_8
REMARK    4  A    between atoms: C_8  and  N_10
REMARK    5  A    between atoms: N_19  and  C_20
REMARK    6  A    between atoms: C_20  and  C_21
REMARK    7  A    between atoms: C_21  and  C_22
REMARK    8  A    between atoms: C_21  and  C_23
REMARK    9  A    between atoms: C_21  and  O_24
REMARK                            x       y       z     vdW  Elec       q    Type
REMARK                         _______ _______ _______ _____ _____    ______ ____
ROOT
ATOM      1  N   UNL     1       2.148   7.138  19.481  0.00  0.00    +0.000 NA
ATOM      2  C   UNL     1       3.024   6.629  18.675  0.00  0.00    +0.000 A 
ATOM      3  N   UNL     1       3.638   7.224  17.580  0.00  0.00    +0.000 N 
ATOM      4  C   UNL     1       4.452   6.308  16.927  0.00  0.00    +0.000 A 
ATOM      5  C   UNL     1       5.230   6.460  15.803  0.00  0.00    +0.000 A 
ATOM      6  C   UNL     1       5.980   5.359  15.391  0.00  0.00    +0.000 A 
ATOM      7  C   UNL     1       5.936   4.148  16.111  0.00  0.00    +0.000 A 
ATOM      8  C   UNL     1       5.145   4.016  17.262  0.00  0.00    +0.000 A 
ATOM      9  C   UNL     1       4.409   5.109  17.665  0.00  0.00    +0.000 A 
ATOM     10  N   UNL     1       3.550   5.324  18.749  0.00  0.00    +0.000 N 
ATOM     11  H   UNL     1       3.384   8.146  17.254  0.00  0.00    +0.000 HD
ENDROOT
BRANCH   1  12
ATOM     12  C   UNL     1       1.724   8.425  19.242  0.00  0.00    +0.000 C 
ATOM     13  O   UNL     1       1.777   9.014  18.163  0.00  0.00    +0.000 OA
BRANCH  12  16
ATOM     14  C   UNL     1      -0.190  10.883  21.375  0.00  0.00    +0.000 A 
ATOM     15  C   UNL     1       0.353  10.291  20.241  0.00  0.00    +0.000 A 
ATOM     16  C   UNL     1       1.126   9.140  20.400  0.00  0.00    +0.000 A 
ATOM     17  C   UNL     1       1.337   8.613  21.679  0.00  0.00    +0.000 A 
ATOM     18  C   UNL     1       0.772   9.276  22.745  0.00  0.00    +0.000 A 
ATOM     19  N   UNL     1       0.020  10.390  22.621  0.00  0.00    +0.000 NA
BRANCH  14  23
ATOM     20  C   UNL     1      -2.593  15.060  22.565  0.00  0.00    +0.000 C 
ATOM     21  N   UNL     1      -2.086  13.915  21.848  0.00  0.00    +0.000 N 
ATOM     22  C   UNL     1      -1.205  12.984  22.306  0.00  0.00    +0.000 A 
ATOM     23  C   UNL     1      -1.039  12.061  21.289  0.00  0.00    +0.000 A 
ATOM     24  C   UNL     1      -1.873  12.553  20.256  0.00  0.00    +0.000 A 
ATOM     25  N   UNL     1      -2.507  13.680  20.591  0.00  0.00    +0.000 NA
ENDBRANCH  14  23
ENDBRANCH  12  16
ENDBRANCH   1  12
BRANCH  10  26
ATOM     26  C   UNL     1       3.143   4.294  19.690  0.00  0.00    +0.000 C 
BRANCH  26  27
ATOM     27  C   UNL     1       1.912   3.486  19.199  0.00  0.00    +0.000 C 
ATOM     28  C   UNL     1       2.275   2.073  18.734  0.00  0.00    +0.000 C 
ATOM     29  C   UNL     1       0.881   3.409  20.332  0.00  0.00    +0.000 C 
BRANCH  27  30
ATOM     30  O   UNL     1       1.271   4.158  18.106  0.00  0.00    +0.000 OA
ATOM     31  H   UNL     1       1.353   5.114  18.281  0.00  0.00    +0.000 HD
ENDBRANCH  27  30
ENDBRANCH  26  27
ENDBRANCH  10  26
TORSDOF 6
ENDMDL
MODEL 7
REMARK VINA RESULT:      -7.8      2.247      8.655
REMARK  Name = 
REMARK  9 active torsions:
REMARK  status: ('A' for Active; 'I' for Inactive)
REMARK    1  A    between atoms: C_1  and  N_2
REMARK    2  A    between atoms: C_4  and  C_5
REMARK    3  A    between atoms: C_7  and  C_8
REMARK    4  A    between atoms: C_8  and  N_10
REMARK    5  A    between atoms: N_19  and  C_20
REMARK    6  A    between atoms: C_20  and  C_21
REMARK    7  A    between atoms: C_21  and  C_22
REMARK    8  A    between atoms: C_21  and  C_23
REMARK    9  A    between atoms: C_21  and  O_24
REMARK                            x       y       z     vdW  Elec       q    Type
REMARK                         _______ _______ _______ _____ _____    ______ ____
ROOT
ATOM      1  N   UNL     1       2.572   7.514  18.681  0.00  0.00    +0.000 NA
ATOM      2  C   UNL     1       3.381   6.785  17.981  0.00  0.00    +0.000 A 
ATOM      3  N   UNL     1       4.083   7.131  16.833  0.00  0.00    +0.000 N 
ATOM      4  C   UNL     1       4.772   6.032  16.339  0.00  0.00    +0.000 A 
ATOM      5  C   UNL     1       5.577   5.918  15.230  0.00  0.00    +0.000 A 
ATOM      6  C   UNL     1       6.175   4.679  14.999  0.00  0.00    +0.000 A 
ATOM      7  C   UNL     1       5.959   3.600  15.878  0.00  0.00    +0.000 A 
ATOM      8  C   UNL     1       5.143   3.739  17.011  0.00  0.00    +0.000 A 
ATOM      9  C   UNL     1       4.558   4.966  17.236  0.00  0.00    +0.000 A 
ATOM     10  N   UNL     1       3.723   5.445  18.252  0.00  0.00    +0.000 N 
ATOM     11  H   UNL     1       3.959   8.023  16.375  0.00  0.00    +0.000 HD
ENDROOT
BRANCH   1  12
ATOM     12  C   UNL     1       2.329   8.800  18.252  0.00  0.00    +0.000 C 
ATOM     13  O   UNL     1       3.085   9.486  17.566  0.00  0.00    +0.000 OA
BRANCH  12  16
ATOM     14  C   UNL     1      -1.192  10.156  18.160  0.00  0.00    +0.000 A 
ATOM     15  C   UNL     1       0.014   9.636  17.707  0.00  0.00    +0.000 A 
ATOM     16  C   UNL     1       1.018   9.380  18.643  0.00  0.00    +0.000 A 
ATOM     17  C   UNL     1       0.792   9.647  19.998  0.00  0.00    +0.000 A 
ATOM     18  C   UNL     1      -0.429  10.174  20.351  0.00  0.00    +0.000 A 
ATOM     19  N   UNL     1      -1.417  10.433  19.470  0.00  0.00    +0.000 NA
BRANCH  14  23
ATOM     20  C   UNL     1      -4.064  10.184  14.112  0.00  0.00    +0.000 C 
ATOM     21  N   UNL     1      -3.553  10.401  15.444  0.00  0.00    +0.000 N 
ATOM     22  C   UNL     1      -2.390   9.923  15.964  0.00  0.00    +0.000 A 
ATOM     23  C   UNL     1      -2.301  10.413  17.255  0.00  0.00    +0.000 A 
ATOM     24  C   UNL     1      -3.486  11.173  17.402  0.00  0.00    +0.000 A 
ATOM     25  N   UNL     1      -4.250  11.165  16.306  0.00  0.00    +0.000 NA
ENDBRANCH  14  23
ENDBRANCH  12  16
ENDBRANCH   1  12
BRANCH  10  26
ATOM     26  C   UNL     1       3.170   4.622  19.315  0.00  0.00    +0.000 C 
BRANCH  26  27
ATOM     27  C   UNL     1       1.863   3.897  18.893  0.00  0.00    +0.000 C 
ATOM     28  C   UNL     1       2.095   2.436  18.499  0.00  0.00    +0.000 C 
ATOM     29  C   UNL     1       0.856   3.969  20.048  0.00  0.00    +0.000 C 
BRANCH  27  30
ATOM     30  O   UNL     1       1.255   4.563  17.777  0.00  0.00    +0.000 OA
ATOM     31  H   UNL     1       1.211   3.909  17.054  0.00  0.00    +0.000 HD
ENDBRANCH  27  30
ENDBRANCH  26  27
ENDBRANCH  10  26
TORSDOF 6
ENDMDL
MODEL 8
REMARK VINA RESULT:      -7.8      2.837      9.159
REMARK  Name = 
REMARK  9 active torsions:
REMARK  status: ('A' for Active; 'I' for Inactive)
REMARK    1  A    between atoms: C_1  and  N_2
REMARK    2  A    between atoms: C_4  and  C_5
REMARK    3  A    between atoms: C_7  and  C_8
REMARK    4  A    between atoms: C_8  and  N_10
REMARK    5  A    between atoms: N_19  and  C_20
REMARK    6  A    between atoms: C_20  and  C_21
REMARK    7  A    between atoms: C_21  and  C_22
REMARK    8  A    between atoms: C_21  and  C_23
REMARK    9  A    between atoms: C_21  and  O_24
REMARK                            x       y       z     vdW  Elec       q    Type
REMARK                         _______ _______ _______ _____ _____    ______ ____
ROOT
ATOM      1  N   UNL     1       1.808   7.240  18.428  0.00  0.00    +0.000 NA
ATOM      2  C   UNL     1       2.844   6.644  17.928  0.00  0.00    +0.000 A 
ATOM      3  N   UNL     1       4.025   7.209  17.463  0.00  0.00    +0.000 N 
ATOM      4  C   UNL     1       4.848   6.229  16.925  0.00  0.00    +0.000 A 
ATOM      5  C   UNL     1       6.092   6.339  16.349  0.00  0.00    +0.000 A 
ATOM      6  C   UNL     1       6.705   5.160  15.923  0.00  0.00    +0.000 A 
ATOM      7  C   UNL     1       6.066   3.915  16.089  0.00  0.00    +0.000 A 
ATOM      8  C   UNL     1       4.802   3.823  16.691  0.00  0.00    +0.000 A 
ATOM      9  C   UNL     1       4.203   4.990  17.112  0.00  0.00    +0.000 A 
ATOM     10  N   UNL     1       2.985   5.254  17.750  0.00  0.00    +0.000 N 
ATOM     11  H   UNL     1       4.158   8.208  17.406  0.00  0.00    +0.000 HD
ENDROOT
BRANCH   1  12
ATOM     12  C   UNL     1       1.830   8.614  18.502  0.00  0.00    +0.000 C 
ATOM     13  O   UNL     1       2.189   9.380  17.608  0.00  0.00    +0.000 OA
BRANCH  12  16
ATOM     14  C   UNL     1       0.324  10.944  21.063  0.00  0.00    +0.000 A 
ATOM     15  C   UNL     1       0.773  10.476  19.833  0.00  0.00    +0.000 A 
ATOM     16  C   UNL     1       1.347   9.205  19.777  0.00  0.00    +0.000 A 
ATOM     17  C   UNL     1       1.456   8.438  20.942  0.00  0.00    +0.000 A 
ATOM     18  C   UNL     1       0.997   8.989  22.117  0.00  0.00    +0.000 A 
ATOM     19  N   UNL     1       0.438  10.214  22.202  0.00  0.00    +0.000 NA
BRANCH  14  23
ATOM     20  C   UNL     1      -1.881  14.931  23.032  0.00  0.00    +0.000 C 
ATOM     21  N   UNL     1      -1.290  13.996  22.104  0.00  0.00    +0.000 N 
ATOM     22  C   UNL     1      -0.713  12.800  22.400  0.00  0.00    +0.000 A 
ATOM     23  C   UNL     1      -0.320  12.241  21.198  0.00  0.00    +0.000 A 
ATOM     24  C   UNL     1      -0.710  13.207  20.240  0.00  0.00    +0.000 A 
ATOM     25  N   UNL     1      -1.296  14.276  20.787  0.00  0.00    +0.000 NA
ENDBRANCH  14  23
ENDBRANCH  12  16
ENDBRANCH   1  12
BRANCH  10  26
ATOM     26  C   UNL     1       1.967   4.251  18.018  0.00  0.00    +0.000 C 
BRANCH  26  27
ATOM     27  C   UNL     1       2.073   3.658  19.449  0.00  0.00    +0.000 C 
ATOM     28  C   UNL     1       1.073   4.281  20.426  0.00  0.00    +0.000 C 
ATOM     29  C   UNL     1       1.853   2.142  19.379  0.00  0.00    +0.000 C 
BRANCH  27  30
ATOM     30  O   UNL     1       3.390   3.858  19.982  0.00  0.00    +0.000 OA
ATOM     31  H   UNL     1       3.465   4.808  20.188  0.00  0.00    +0.000 HD
ENDBRANCH  27  30
ENDBRANCH  26  27
ENDBRANCH  10  26
TORSDOF 6
ENDMDL
MODEL 9
REMARK VINA RESULT:      -7.7      3.092      9.069
REMARK  Name = 
REMARK  9 active torsions:
REMARK  status: ('A' for Active; 'I' for Inactive)
REMARK    1  A    between atoms: C_1  and  N_2
REMARK    2  A    between atoms: C_4  and  C_5
REMARK    3  A    between atoms: C_7  and  C_8
REMARK    4  A    between atoms: C_8  and  N_10
REMARK    5  A    between atoms: N_19  and  C_20
REMARK    6  A    between atoms: C_20  and  C_21
REMARK    7  A    between atoms: C_21  and  C_22
REMARK    8  A    between atoms: C_21  and  C_23
REMARK    9  A    between atoms: C_21  and  O_24
REMARK                            x       y       z     vdW  Elec       q    Type
REMARK                         _______ _______ _______ _____ _____    ______ ____
ROOT
ATOM      1  N   UNL     1       2.052   7.320  19.732  0.00  0.00    +0.000 NA
ATOM      2  C   UNL     1       2.914   6.804  18.915  0.00  0.00    +0.000 A 
ATOM      3  N   UNL     1       3.475   7.373  17.779  0.00  0.00    +0.000 N 
ATOM      4  C   UNL     1       4.291   6.454  17.132  0.00  0.00    +0.000 A 
ATOM      5  C   UNL     1       5.027   6.583  15.978  0.00  0.00    +0.000 A 
ATOM      6  C   UNL     1       5.791   5.486  15.581  0.00  0.00    +0.000 A 
ATOM      7  C   UNL     1       5.803   4.302  16.345  0.00  0.00    +0.000 A 
ATOM      8  C   UNL     1       5.054   4.193  17.526  0.00  0.00    +0.000 A 
ATOM      9  C   UNL     1       4.303   5.282  17.915  0.00  0.00    +0.000 A 
ATOM     10  N   UNL     1       3.475   5.516  19.019  0.00  0.00    +0.000 N 
ATOM     11  H   UNL     1       3.186   8.275  17.429  0.00  0.00    +0.000 HD
ENDROOT
BRANCH   1  12
ATOM     12  C   UNL     1       1.586   8.587  19.461  0.00  0.00    +0.000 C 
ATOM     13  O   UNL     1       1.576   9.131  18.358  0.00  0.00    +0.000 OA
BRANCH  12  16
ATOM     14  C   UNL     1       0.041  11.271  21.619  0.00  0.00    +0.000 A 
ATOM     15  C   UNL     1       0.575  10.652  20.496  0.00  0.00    +0.000 A 
ATOM     16  C   UNL     1       1.026   9.336  20.616  0.00  0.00    +0.000 A 
ATOM     17  C   UNL     1       0.933   8.677  21.846  0.00  0.00    +0.000 A 
ATOM     18  C   UNL     1       0.403   9.375  22.908  0.00  0.00    +0.000 A 
ATOM     19  N   UNL     1      -0.041  10.646  22.822  0.00  0.00    +0.000 NA
BRANCH  14  23
ATOM     20  C   UNL     1      -0.951  15.888  20.092  0.00  0.00    +0.000 C 
ATOM     21  N   UNL     1      -0.911  14.665  20.857  0.00  0.00    +0.000 N 
ATOM     22  C   UNL     1      -0.281  13.507  20.521  0.00  0.00    +0.000 A 
ATOM     23  C   UNL     1      -0.487  12.625  21.567  0.00  0.00    +0.000 A 
ATOM     24  C   UNL     1      -1.271  13.371  22.479  0.00  0.00    +0.000 A 
ATOM     25  N   UNL     1      -1.534  14.609  22.050  0.00  0.00    +0.000 NA
ENDBRANCH  14  23
ENDBRANCH  12  16
ENDBRANCH   1  12
BRANCH  10  26
ATOM     26  C   UNL     1       3.128   4.512  20.011  0.00  0.00    +0.000 C 
BRANCH  26  27
ATOM     27  C   UNL     1       1.762   3.833  19.722  0.00  0.00    +0.000 C 
ATOM     28  C   UNL     1       1.430   3.777  18.228  0.00  0.00    +0.000 C 
ATOM     29  C   UNL     1       1.777   2.413  20.302  0.00  0.00    +0.000 C 
BRANCH  27  30
ATOM     30  O   UNL     1       0.699   4.535  20.382  0.00  0.00    +0.000 OA
ATOM     31  H   UNL     1       0.961   4.616  21.319  0.00  0.00    +0.000 HD
ENDBRANCH  27  30
ENDBRANCH  26  27
ENDBRANCH  10  26
TORSDOF 6
ENDMDL
