MODEL 1
REMARK VINA RESULT:      -7.1      0.000      0.000
REMARK  Name = 
REMARK  19 active torsions:
REMARK  status: ('A' for Active; 'I' for Inactive)
REMARK    1  A    between atoms: C_1  and  C_2
REMARK    2  A    between atoms: C_2  and  C_3
REMARK    3  A    between atoms: C_3  and  C_4
REMARK    4  A    between atoms: C_4  and  C_5
REMARK    5  A    between atoms: C_5  and  C_6
REMARK    6  A    between atoms: C_6  and  C_7
REMARK    7  A    between atoms: C_7  and  C_8
REMARK    8  A    between atoms: C_8  and  C_9
REMARK    9  A    between atoms: C_9  and  C_10
REMARK   10  A    between atoms: C_10  and  C_11
REMARK   11  A    between atoms: C_11  and  C_12
REMARK   12  A    between atoms: C_13  and  C_14
REMARK   13  A    between atoms: C_14  and  C_16
REMARK   14  A    between atoms: C_16  and  C_17
REMARK   15  A    between atoms: C_17  and  C_18
REMARK   16  A    between atoms: C_17  and  C_19
REMARK   17  A    between atoms: C_19  and  C_20
REMARK   18  A    between atoms: C_20  and  O_22
REMARK   19  A    between atoms: N_30  and  C_31
REMARK                            x       y       z     vdW  Elec       q    Type
REMARK                         _______ _______ _______ _____ _____    ______ ____
ROOT
ATOM      1  C   UNL     1       4.826   5.275  17.809  0.00  0.00    +0.000 A 
ATOM      2  C   UNL     1       4.262   4.348  16.940  0.00  0.00    +0.000 A 
ATOM      3  C   UNL     1       5.094   4.321  15.771  0.00  0.00    +0.000 A 
ATOM      4  C   UNL     1       5.050   3.577  14.571  0.00  0.00    +0.000 A 
ATOM      5  C   UNL     1       6.025   3.786  13.595  0.00  0.00    +0.000 A 
ATOM      6 CL   UNL     1       5.967   2.878  12.134  0.00  0.00    +0.000 Cl
ATOM      7  C   UNL     1       7.038   4.715  13.787  0.00  0.00    +0.000 A 
ATOM      8  C   UNL     1       7.107   5.462  14.965  0.00  0.00    +0.000 A 
ATOM      9  C   UNL     1       6.123   5.249  15.946  0.00  0.00    +0.000 A 
ATOM     10  N   UNL     1       5.941   5.815  17.191  0.00  0.00    +0.000 N 
ATOM     11  C   UNL     1       6.817   6.807  17.787  0.00  0.00    +0.000 C 
ENDROOT
BRANCH   2  12
ATOM     12  C   UNL     1       3.099   3.484  17.159  0.00  0.00    +0.000 C 
ATOM     13  O   UNL     1       1.978   3.893  16.854  0.00  0.00    +0.000 OA
BRANCH  12  14
ATOM     14  C   UNL     1       3.273   2.107  17.797  0.00  0.00    +0.000 C 
BRANCH  14  15
ATOM     15  C   UNL     1       3.062   2.038  19.325  0.00  0.00    +0.000 C 
ATOM     16  C   UNL     1       4.369   2.264  20.086  0.00  0.00    +0.000 C 
BRANCH  15  17
ATOM     17  C   UNL     1       1.951   2.976  19.839  0.00  0.00    +0.000 C 
BRANCH  17  18
ATOM     18  C   UNL     1       1.979   3.132  21.341  0.00  0.00    +0.000 C 
ATOM     19  O   UNL     1       1.674   2.256  22.138  0.00  0.00    +0.000 OA
BRANCH  18  20
ATOM     20  O   UNL     1       2.395   4.354  21.745  0.00  0.00    +0.000 OA
ATOM     21  H   UNL     1       2.229   4.539  22.690  0.00  0.00    +0.000 HD
ENDBRANCH  18  20
ENDBRANCH  17  18
ENDBRANCH  15  17
ENDBRANCH  14  15
ENDBRANCH  12  14
ENDBRANCH   2  12
BRANCH   1  22
ATOM     22  C   UNL     1       4.449   5.654  19.203  0.00  0.00    +0.000 C 
BRANCH  22  23
ATOM     23  C   UNL     1       3.080   6.337  19.246  0.00  0.00    +0.000 C 
BRANCH  23  24
ATOM     24  C   UNL     1       2.939   7.410  18.171  0.00  0.00    +0.000 C 
BRANCH  24  25
ATOM     25  C   UNL     1       1.752   8.324  18.449  0.00  0.00    +0.000 C 
BRANCH  25  26
ATOM     26  C   UNL     1       1.980   9.716  17.889  0.00  0.00    +0.000 C 
BRANCH  26  27
ATOM     27  C   UNL     1       1.048  10.703  18.581  0.00  0.00    +0.000 C 
BRANCH  27  28
ATOM     28  C   UNL     1      -0.288  10.044  18.883  0.00  0.00    +0.000 C 
BRANCH  28  29
ATOM     29  C   UNL     1      -1.402  11.081  18.933  0.00  0.00    +0.000 C 
BRANCH  29  30
ATOM     30  C   UNL     1      -1.986  11.291  17.541  0.00  0.00    +0.000 C 
BRANCH  30  32
ATOM     31  C   UNL     1      -2.844   9.893  15.646  0.00  0.00    +0.000 C 
ATOM     32  C   UNL     1      -2.890  10.130  17.145  0.00  0.00    +0.000 C 
ENDBRANCH  30  32
ENDBRANCH  29  30
ENDBRANCH  28  29
ENDBRANCH  27  28
ENDBRANCH  26  27
ENDBRANCH  25  26
ENDBRANCH  24  25
ENDBRANCH  23  24
ENDBRANCH  22  23
ENDBRANCH   1  22
TORSDOF 16
ENDMDL
MODEL 2
REMARK VINA RESULT:      -6.9      1.220      2.020
REMARK  Name = 
REMARK  19 active torsions:
REMARK  status: ('A' for Active; 'I' for Inactive)
REMARK    1  A    between atoms: C_1  and  C_2
REMARK    2  A    between atoms: C_2  and  C_3
REMARK    3  A    between atoms: C_3  and  C_4
REMARK    4  A    between atoms: C_4  and  C_5
REMARK    5  A    between atoms: C_5  and  C_6
REMARK    6  A    between atoms: C_6  and  C_7
REMARK    7  A    between atoms: C_7  and  C_8
REMARK    8  A    between atoms: C_8  and  C_9
REMARK    9  A    between atoms: C_9  and  C_10
REMARK   10  A    between atoms: C_10  and  C_11
REMARK   11  A    between atoms: C_11  and  C_12
REMARK   12  A    between atoms: C_13  and  C_14
REMARK   13  A    between atoms: C_14  and  C_16
REMARK   14  A    between atoms: C_16  and  C_17
REMARK   15  A    between atoms: C_17  and  C_18
REMARK   16  A    between atoms: C_17  and  C_19
REMARK   17  A    between atoms: C_19  and  C_20
REMARK   18  A    between atoms: C_20  and  O_22
REMARK   19  A    between atoms: N_30  and  C_31
REMARK                            x       y       z     vdW  Elec       q    Type
REMARK                         _______ _______ _______ _____ _____    ______ ____
ROOT
ATOM      1  C   UNL     1       4.702   5.376  17.807  0.00  0.00    +0.000 A 
ATOM      2  C   UNL     1       4.201   4.409  16.945  0.00  0.00    +0.000 A 
ATOM      3  C   UNL     1       5.072   4.383  15.805  0.00  0.00    +0.000 A 
ATOM      4  C   UNL     1       5.094   3.610  14.622  0.00  0.00    +0.000 A 
ATOM      5  C   UNL     1       6.093   3.831  13.674  0.00  0.00    +0.000 A 
ATOM      6 CL   UNL     1       6.116   2.885  12.235  0.00  0.00    +0.000 Cl
ATOM      7  C   UNL     1       7.066   4.799  13.876  0.00  0.00    +0.000 A 
ATOM      8  C   UNL     1       7.069   5.577  15.036  0.00  0.00    +0.000 A 
ATOM      9  C   UNL     1       6.061   5.352  15.989  0.00  0.00    +0.000 A 
ATOM     10  N   UNL     1       5.818   5.941  17.213  0.00  0.00    +0.000 N 
ATOM     11  C   UNL     1       6.638   6.978  17.812  0.00  0.00    +0.000 C 
ENDROOT
BRANCH   2  12
ATOM     12  C   UNL     1       3.062   3.510  17.148  0.00  0.00    +0.000 C 
ATOM     13  O   UNL     1       1.931   3.888  16.837  0.00  0.00    +0.000 OA
BRANCH  12  14
ATOM     14  C   UNL     1       3.271   2.133  17.776  0.00  0.00    +0.000 C 
BRANCH  14  15
ATOM     15  C   UNL     1       3.056   2.046  19.302  0.00  0.00    +0.000 C 
ATOM     16  C   UNL     1       4.355   2.296  20.070  0.00  0.00    +0.000 C 
BRANCH  15  17
ATOM     17  C   UNL     1       1.922   2.953  19.819  0.00  0.00    +0.000 C 
BRANCH  17  18
ATOM     18  C   UNL     1       1.931   3.086  21.324  0.00  0.00    +0.000 C 
ATOM     19  O   UNL     1       1.653   2.185  22.103  0.00  0.00    +0.000 OA
BRANCH  18  20
ATOM     20  O   UNL     1       2.297   4.316  21.752  0.00  0.00    +0.000 OA
ATOM     21  H   UNL     1       3.080   4.318  22.335  0.00  0.00    +0.000 HD
ENDBRANCH  18  20
ENDBRANCH  17  18
ENDBRANCH  15  17
ENDBRANCH  14  15
ENDBRANCH  12  14
ENDBRANCH   2  12
BRANCH   1  22
ATOM     22  C   UNL     1       4.266   5.776  19.179  0.00  0.00    +0.000 C 
BRANCH  22  23
ATOM     23  C   UNL     1       2.893   6.451  19.154  0.00  0.00    +0.000 C 
BRANCH  23  24
ATOM     24  C   UNL     1       2.781   7.483  18.037  0.00  0.00    +0.000 C 
BRANCH  24  25
ATOM     25  C   UNL     1       2.275   8.821  18.564  0.00  0.00    +0.000 C 
BRANCH  25  26
ATOM     26  C   UNL     1       0.968   9.220  17.903  0.00  0.00    +0.000 C 
BRANCH  26  27
ATOM     27  C   UNL     1       0.175  10.118  18.844  0.00  0.00    +0.000 C 
BRANCH  27  28
ATOM     28  C   UNL     1       1.038  11.272  19.326  0.00  0.00    +0.000 C 
BRANCH  28  29
ATOM     29  C   UNL     1       0.682  11.650  20.757  0.00  0.00    +0.000 C 
BRANCH  29  30
ATOM     30  C   UNL     1      -0.669  11.056  21.137  0.00  0.00    +0.000 C 
BRANCH  30  32
ATOM     31  C   UNL     1       0.085   9.473  22.929  0.00  0.00    +0.000 C 
ATOM     32  C   UNL     1      -0.722  10.723  22.624  0.00  0.00    +0.000 C 
ENDBRANCH  30  32
ENDBRANCH  29  30
ENDBRANCH  28  29
ENDBRANCH  27  28
ENDBRANCH  26  27
ENDBRANCH  25  26
ENDBRANCH  24  25
ENDBRANCH  23  24
ENDBRANCH  22  23
ENDBRANCH   1  22
TORSDOF 16
ENDMDL
MODEL 3
REMARK VINA RESULT:      -6.8      3.440      7.635
REMARK  Name = 
REMARK  19 active torsions:
REMARK  status: ('A' for Active; 'I' for Inactive)
REMARK    1  A    between atoms: C_1  and  C_2
REMARK    2  A    between atoms: C_2  and  C_3
REMARK    3  A    between atoms: C_3  and  C_4
REMARK    4  A    between atoms: C_4  and  C_5
REMARK    5  A    between atoms: C_5  and  C_6
REMARK    6  A    between atoms: C_6  and  C_7
REMARK    7  A    between atoms: C_7  and  C_8
REMARK    8  A    between atoms: C_8  and  C_9
REMARK    9  A    between atoms: C_9  and  C_10
REMARK   10  A    between atoms: C_10  and  C_11
REMARK   11  A    between atoms: C_11  and  C_12
REMARK   12  A    between atoms: C_13  and  C_14
REMARK   13  A    between atoms: C_14  and  C_16
REMARK   14  A    between atoms: C_16  and  C_17
REMARK   15  A    between atoms: C_17  and  C_18
REMARK   16  A    between atoms: C_17  and  C_19
REMARK   17  A    between atoms: C_19  and  C_20
REMARK   18  A    between atoms: C_20  and  O_22
REMARK   19  A    between atoms: N_30  and  C_31
REMARK                            x       y       z     vdW  Elec       q    Type
REMARK                         _______ _______ _______ _____ _____    ______ ____
ROOT
ATOM      1  C   UNL     1       2.451   7.071  18.799  0.00  0.00    +0.000 A 
ATOM      2  C   UNL     1       1.912   6.793  20.049  0.00  0.00    +0.000 A 
ATOM      3  C   UNL     1       1.273   7.997  20.498  0.00  0.00    +0.000 A 
ATOM      4  C   UNL     1       0.547   8.328  21.664  0.00  0.00    +0.000 A 
ATOM      5  C   UNL     1       0.042   9.619  21.817  0.00  0.00    +0.000 A 
ATOM      6 CL   UNL     1      -0.843  10.019  23.239  0.00  0.00    +0.000 Cl
ATOM      7  C   UNL     1       0.242  10.584  20.839  0.00  0.00    +0.000 A 
ATOM      8  C   UNL     1       0.954  10.282  19.675  0.00  0.00    +0.000 A 
ATOM      9  C   UNL     1       1.462   8.981  19.525  0.00  0.00    +0.000 A 
ATOM     10  N   UNL     1       2.178   8.395  18.502  0.00  0.00    +0.000 N 
ATOM     11  C   UNL     1       2.558   9.061  17.269  0.00  0.00    +0.000 C 
ENDROOT
BRANCH   2  12
ATOM     12  C   UNL     1       1.901   5.519  20.773  0.00  0.00    +0.000 C 
ATOM     13  O   UNL     1       2.655   5.365  21.736  0.00  0.00    +0.000 OA
BRANCH  12  14
ATOM     14  C   UNL     1       0.991   4.381  20.314  0.00  0.00    +0.000 C 
BRANCH  14  15
ATOM     15  C   UNL     1       1.610   2.968  20.343  0.00  0.00    +0.000 C 
ATOM     16  C   UNL     1       1.245   2.218  21.626  0.00  0.00    +0.000 C 
BRANCH  15  17
ATOM     17  C   UNL     1       1.285   2.124  19.095  0.00  0.00    +0.000 C 
BRANCH  17  18
ATOM     18  C   UNL     1       2.339   2.253  18.021  0.00  0.00    +0.000 C 
ATOM     19  O   UNL     1       2.189   2.858  16.968  0.00  0.00    +0.000 OA
BRANCH  18  20
ATOM     20  O   UNL     1       3.503   1.638  18.334  0.00  0.00    +0.000 OA
ATOM     21  H   UNL     1       3.592   0.741  17.961  0.00  0.00    +0.000 HD
ENDBRANCH  18  20
ENDBRANCH  17  18
ENDBRANCH  15  17
ENDBRANCH  14  15
ENDBRANCH  12  14
ENDBRANCH   2  12
BRANCH   1  22
ATOM     22  C   UNL     1       3.145   6.181  17.820  0.00  0.00    +0.000 C 
BRANCH  22  23
ATOM     23  C   UNL     1       4.511   5.732  18.343  0.00  0.00    +0.000 C 
BRANCH  23  24
ATOM     24  C   UNL     1       5.656   6.254  17.481  0.00  0.00    +0.000 C 
BRANCH  24  25
ATOM     25  C   UNL     1       6.725   5.189  17.272  0.00  0.00    +0.000 C 
BRANCH  25  26
ATOM     26  C   UNL     1       6.336   4.219  16.171  0.00  0.00    +0.000 C 
BRANCH  26  27
ATOM     27  C   UNL     1       6.584   4.864  14.813  0.00  0.00    +0.000 C 
BRANCH  27  28
ATOM     28  C   UNL     1       5.643   4.281  13.772  0.00  0.00    +0.000 C 
BRANCH  28  29
ATOM     29  C   UNL     1       6.427   3.610  12.652  0.00  0.00    +0.000 C 
BRANCH  29  30
ATOM     30  C   UNL     1       5.478   2.866  11.721  0.00  0.00    +0.000 C 
BRANCH  30  32
ATOM     31  C   UNL     1       3.377   3.260  10.413  0.00  0.00    +0.000 C 
ATOM     32  C   UNL     1       4.091   3.498  11.731  0.00  0.00    +0.000 C 
ENDBRANCH  30  32
ENDBRANCH  29  30
ENDBRANCH  28  29
ENDBRANCH  27  28
ENDBRANCH  26  27
ENDBRANCH  25  26
ENDBRANCH  24  25
ENDBRANCH  23  24
ENDBRANCH  22  23
ENDBRANCH   1  22
TORSDOF 16
ENDMDL
MODEL 4
REMARK VINA RESULT:      -6.8      3.534      6.830
REMARK  Name = 
REMARK  19 active torsions:
REMARK  status: ('A' for Active; 'I' for Inactive)
REMARK    1  A    between atoms: C_1  and  C_2
REMARK    2  A    between atoms: C_2  and  C_3
REMARK    3  A    between atoms: C_3  and  C_4
REMARK    4  A    between atoms: C_4  and  C_5
REMARK    5  A    between atoms: C_5  and  C_6
REMARK    6  A    between atoms: C_6  and  C_7
REMARK    7  A    between atoms: C_7  and  C_8
REMARK    8  A    between atoms: C_8  and  C_9
REMARK    9  A    between atoms: C_9  and  C_10
REMARK   10  A    between atoms: C_10  and  C_11
REMARK   11  A    between atoms: C_11  and  C_12
REMARK   12  A    between atoms: C_13  and  C_14
REMARK   13  A    between atoms: C_14  and  C_16
REMARK   14  A    between atoms: C_16  and  C_17
REMARK   15  A    between atoms: C_17  and  C_18
REMARK   16  A    between atoms: C_17  and  C_19
REMARK   17  A    between atoms: C_19  and  C_20
REMARK   18  A    between atoms: C_20  and  O_22
REMARK   19  A    between atoms: N_30  and  C_31
REMARK                            x       y       z     vdW  Elec       q    Type
REMARK                         _______ _______ _______ _____ _____    ______ ____
ROOT
ATOM      1  C   UNL     1       4.671   5.362  17.614  0.00  0.00    +0.000 A 
ATOM      2  C   UNL     1       3.996   5.327  18.829  0.00  0.00    +0.000 A 
ATOM      3  C   UNL     1       3.201   6.520  18.891  0.00  0.00    +0.000 A 
ATOM      4  C   UNL     1       2.300   7.031  19.852  0.00  0.00    +0.000 A 
ATOM      5  C   UNL     1       1.669   8.254  19.621  0.00  0.00    +0.000 A 
ATOM      6 CL   UNL     1       0.571   8.873  20.794  0.00  0.00    +0.000 Cl
ATOM      7  C   UNL     1       1.915   8.976  18.462  0.00  0.00    +0.000 A 
ATOM      8  C   UNL     1       2.800   8.493  17.495  0.00  0.00    +0.000 A 
ATOM      9  C   UNL     1       3.434   7.261  17.730  0.00  0.00    +0.000 A 
ATOM     10  N   UNL     1       4.328   6.537  16.969  0.00  0.00    +0.000 N 
ATOM     11  C   UNL     1       4.810   6.932  15.658  0.00  0.00    +0.000 C 
ENDROOT
BRANCH   2  12
ATOM     12  C   UNL     1       3.998   4.269  19.842  0.00  0.00    +0.000 C 
ATOM     13  O   UNL     1       4.944   3.480  19.889  0.00  0.00    +0.000 OA
BRANCH  12  14
ATOM     14  C   UNL     1       2.819   4.121  20.801  0.00  0.00    +0.000 C 
BRANCH  14  15
ATOM     15  C   UNL     1       1.997   2.821  20.668  0.00  0.00    +0.000 C 
ATOM     16  C   UNL     1       1.448   2.359  22.019  0.00  0.00    +0.000 C 
BRANCH  15  17
ATOM     17  C   UNL     1       0.877   2.902  19.612  0.00  0.00    +0.000 C 
BRANCH  17  18
ATOM     18  C   UNL     1       1.414   2.907  18.201  0.00  0.00    +0.000 C 
ATOM     19  O   UNL     1       1.226   3.802  17.388  0.00  0.00    +0.000 OA
BRANCH  18  20
ATOM     20  O   UNL     1       2.154   1.814  17.904  0.00  0.00    +0.000 OA
ATOM     21  H   UNL     1       2.206   1.616  16.950  0.00  0.00    +0.000 HD
ENDBRANCH  18  20
ENDBRANCH  17  18
ENDBRANCH  15  17
ENDBRANCH  14  15
ENDBRANCH  12  14
ENDBRANCH   2  12
BRANCH   1  22
ATOM     22  C   UNL     1       5.564   4.352  16.970  0.00  0.00    +0.000 C 
BRANCH  22  23
ATOM     23  C   UNL     1       7.029   4.578  17.351  0.00  0.00    +0.000 C 
BRANCH  23  24
ATOM     24  C   UNL     1       7.203   5.774  18.280  0.00  0.00    +0.000 C 
BRANCH  24  25
ATOM     25  C   UNL     1       7.898   6.932  17.573  0.00  0.00    +0.000 C 
BRANCH  25  26
ATOM     26  C   UNL     1       7.282   8.265  17.954  0.00  0.00    +0.000 C 
BRANCH  26  27
ATOM     27  C   UNL     1       8.296   9.379  17.725  0.00  0.00    +0.000 C 
BRANCH  27  28
ATOM     28  C   UNL     1       8.993   9.734  19.028  0.00  0.00    +0.000 C 
BRANCH  28  29
ATOM     29  C   UNL     1       9.905  10.939  18.841  0.00  0.00    +0.000 C 
BRANCH  29  30
ATOM     30  C   UNL     1       9.253  11.952  17.907  0.00  0.00    +0.000 C 
BRANCH  30  32
ATOM     31  C   UNL     1      11.456  13.012  18.461  0.00  0.00    +0.000 C 
ATOM     32  C   UNL     1      10.182  13.131  17.642  0.00  0.00    +0.000 C 
ENDBRANCH  30  32
ENDBRANCH  29  30
ENDBRANCH  28  29
ENDBRANCH  27  28
ENDBRANCH  26  27
ENDBRANCH  25  26
ENDBRANCH  24  25
ENDBRANCH  23  24
ENDBRANCH  22  23
ENDBRANCH   1  22
TORSDOF 16
ENDMDL
MODEL 5
REMARK VINA RESULT:      -6.4      1.481      2.237
REMARK  Name = 
REMARK  19 active torsions:
REMARK  status: ('A' for Active; 'I' for Inactive)
REMARK    1  A    between atoms: C_1  and  C_2
REMARK    2  A    between atoms: C_2  and  C_3
REMARK    3  A    between atoms: C_3  and  C_4
REMARK    4  A    between atoms: C_4  and  C_5
REMARK    5  A    between atoms: C_5  and  C_6
REMARK    6  A    between atoms: C_6  and  C_7
REMARK    7  A    between atoms: C_7  and  C_8
REMARK    8  A    between atoms: C_8  and  C_9
REMARK    9  A    between atoms: C_9  and  C_10
REMARK   10  A    between atoms: C_10  and  C_11
REMARK   11  A    between atoms: C_11  and  C_12
REMARK   12  A    between atoms: C_13  and  C_14
REMARK   13  A    between atoms: C_14  and  C_16
REMARK   14  A    between atoms: C_16  and  C_17
REMARK   15  A    between atoms: C_17  and  C_18
REMARK   16  A    between atoms: C_17  and  C_19
REMARK   17  A    between atoms: C_19  and  C_20
REMARK   18  A    between atoms: C_20  and  O_22
REMARK   19  A    between atoms: N_30  and  C_31
REMARK                            x       y       z     vdW  Elec       q    Type
REMARK                         _______ _______ _______ _____ _____    ______ ____
ROOT
ATOM      1  C   UNL     1       5.005   5.199  17.756  0.00  0.00    +0.000 A 
ATOM      2  C   UNL     1       4.393   4.334  16.857  0.00  0.00    +0.000 A 
ATOM      3  C   UNL     1       5.218   4.309  15.683  0.00  0.00    +0.000 A 
ATOM      4  C   UNL     1       5.132   3.614  14.456  0.00  0.00    +0.000 A 
ATOM      5  C   UNL     1       6.113   3.811  13.484  0.00  0.00    +0.000 A 
ATOM      6 CL   UNL     1       6.004   2.961  11.990  0.00  0.00    +0.000 Cl
ATOM      7  C   UNL     1       7.172   4.680  13.704  0.00  0.00    +0.000 A 
ATOM      8  C   UNL     1       7.282   5.378  14.909  0.00  0.00    +0.000 A 
ATOM      9  C   UNL     1       6.292   5.178  15.886  0.00  0.00    +0.000 A 
ATOM     10  N   UNL     1       6.143   5.706  17.152  0.00  0.00    +0.000 N 
ATOM     11  C   UNL     1       7.070   6.630  17.780  0.00  0.00    +0.000 C 
ENDROOT
BRANCH   2  12
ATOM     12  C   UNL     1       3.189   3.522  17.050  0.00  0.00    +0.000 C 
ATOM     13  O   UNL     1       2.205   3.721  16.335  0.00  0.00    +0.000 OA
BRANCH  12  14
ATOM     14  C   UNL     1       3.142   2.467  18.154  0.00  0.00    +0.000 C 
BRANCH  14  15
ATOM     15  C   UNL     1       2.084   2.688  19.256  0.00  0.00    +0.000 C 
ATOM     16  C   UNL     1       0.707   2.176  18.828  0.00  0.00    +0.000 C 
BRANCH  15  17
ATOM     17  C   UNL     1       2.489   2.112  20.627  0.00  0.00    +0.000 C 
BRANCH  17  18
ATOM     18  C   UNL     1       1.883   2.882  21.777  0.00  0.00    +0.000 C 
ATOM     19  O   UNL     1       1.110   2.410  22.599  0.00  0.00    +0.000 OA
BRANCH  18  20
ATOM     20  O   UNL     1       2.290   4.171  21.833  0.00  0.00    +0.000 OA
ATOM     21  H   UNL     1       1.781   4.774  21.258  0.00  0.00    +0.000 HD
ENDBRANCH  18  20
ENDBRANCH  17  18
ENDBRANCH  15  17
ENDBRANCH  14  15
ENDBRANCH  12  14
ENDBRANCH   2  12
BRANCH   1  22
ATOM     22  C   UNL     1       4.653   5.544  19.166  0.00  0.00    +0.000 C 
BRANCH  22  23
ATOM     23  C   UNL     1       3.284   6.224  19.250  0.00  0.00    +0.000 C 
BRANCH  23  24
ATOM     24  C   UNL     1       3.161   7.389  18.273  0.00  0.00    +0.000 C 
BRANCH  24  25
ATOM     25  C   UNL     1       1.795   7.409  17.600  0.00  0.00    +0.000 C 
BRANCH  25  26
ATOM     26  C   UNL     1       1.187   8.799  17.617  0.00  0.00    +0.000 C 
BRANCH  26  27
ATOM     27  C   UNL     1       1.869   9.641  18.688  0.00  0.00    +0.000 C 
BRANCH  27  28
ATOM     28  C   UNL     1       0.941  10.749  19.159  0.00  0.00    +0.000 C 
BRANCH  28  29
ATOM     29  C   UNL     1       0.043  10.258  20.286  0.00  0.00    +0.000 C 
BRANCH  29  30
ATOM     30  C   UNL     1       0.871   9.526  21.336  0.00  0.00    +0.000 C 
BRANCH  30  32
ATOM     31  C   UNL     1      -0.791  10.176  23.096  0.00  0.00    +0.000 C 
ATOM     32  C   UNL     1      -0.007   9.031  22.479  0.00  0.00    +0.000 C 
ENDBRANCH  30  32
ENDBRANCH  29  30
ENDBRANCH  28  29
ENDBRANCH  27  28
ENDBRANCH  26  27
ENDBRANCH  25  26
ENDBRANCH  24  25
ENDBRANCH  23  24
ENDBRANCH  22  23
ENDBRANCH   1  22
TORSDOF 16
ENDMDL
MODEL 6
REMARK VINA RESULT:      -6.4      1.340      1.796
REMARK  Name = 
REMARK  19 active torsions:
REMARK  status: ('A' for Active; 'I' for Inactive)
REMARK    1  A    between atoms: C_1  and  C_2
REMARK    2  A    between atoms: C_2  and  C_3
REMARK    3  A    between atoms: C_3  and  C_4
REMARK    4  A    between atoms: C_4  and  C_5
REMARK    5  A    between atoms: C_5  and  C_6
REMARK    6  A    between atoms: C_6  and  C_7
REMARK    7  A    between atoms: C_7  and  C_8
REMARK    8  A    between atoms: C_8  and  C_9
REMARK    9  A    between atoms: C_9  and  C_10
REMARK   10  A    between atoms: C_10  and  C_11
REMARK   11  A    between atoms: C_11  and  C_12
REMARK   12  A    between atoms: C_13  and  C_14
REMARK   13  A    between atoms: C_14  and  C_16
REMARK   14  A    between atoms: C_16  and  C_17
REMARK   15  A    between atoms: C_17  and  C_18
REMARK   16  A    between atoms: C_17  and  C_19
REMARK   17  A    between atoms: C_19  and  C_20
REMARK   18  A    between atoms: C_20  and  O_22
REMARK   19  A    between atoms: N_30  and  C_31
REMARK                            x       y       z     vdW  Elec       q    Type
REMARK                         _______ _______ _______ _____ _____    ______ ____
ROOT
ATOM      1  C   UNL     1       5.520   4.894  17.767  0.00  0.00    +0.000 A 
ATOM      2  C   UNL     1       4.865   3.988  16.941  0.00  0.00    +0.000 A 
ATOM      3  C   UNL     1       5.499   4.070  15.656  0.00  0.00    +0.000 A 
ATOM      4  C   UNL     1       5.295   3.393  14.433  0.00  0.00    +0.000 A 
ATOM      5  C   UNL     1       6.091   3.707  13.331  0.00  0.00    +0.000 A 
ATOM      6 CL   UNL     1       5.839   2.879  11.843  0.00  0.00    +0.000 Cl
ATOM      7  C   UNL     1       7.081   4.676  13.420  0.00  0.00    +0.000 A 
ATOM      8  C   UNL     1       7.305   5.359  14.617  0.00  0.00    +0.000 A 
ATOM      9  C   UNL     1       6.502   5.041  15.725  0.00  0.00    +0.000 A 
ATOM     10  N   UNL     1       6.497   5.526  17.016  0.00  0.00    +0.000 N 
ATOM     11  C   UNL     1       7.414   6.528  17.529  0.00  0.00    +0.000 C 
ENDROOT
BRANCH   2  12
ATOM     12  C   UNL     1       3.791   3.054  17.286  0.00  0.00    +0.000 C 
ATOM     13  O   UNL     1       4.042   1.849  17.368  0.00  0.00    +0.000 OA
BRANCH  12  14
ATOM     14  C   UNL     1       2.367   3.563  17.501  0.00  0.00    +0.000 C 
BRANCH  14  15
ATOM     15  C   UNL     1       1.756   3.295  18.893  0.00  0.00    +0.000 C 
ATOM     16  C   UNL     1       0.525   2.391  18.804  0.00  0.00    +0.000 C 
BRANCH  15  17
ATOM     17  C   UNL     1       2.770   2.753  19.919  0.00  0.00    +0.000 C 
BRANCH  17  18
ATOM     18  C   UNL     1       2.377   3.074  21.342  0.00  0.00    +0.000 C 
ATOM     19  O   UNL     1       2.466   2.295  22.281  0.00  0.00    +0.000 OA
BRANCH  18  20
ATOM     20  O   UNL     1       1.917   4.337  21.500  0.00  0.00    +0.000 OA
ATOM     21  H   UNL     1       2.513   4.916  22.011  0.00  0.00    +0.000 HD
ENDBRANCH  18  20
ENDBRANCH  17  18
ENDBRANCH  15  17
ENDBRANCH  14  15
ENDBRANCH  12  14
ENDBRANCH   2  12
BRANCH   1  22
ATOM     22  C   UNL     1       5.356   5.175  19.225  0.00  0.00    +0.000 C 
BRANCH  22  23
ATOM     23  C   UNL     1       4.097   6.001  19.496  0.00  0.00    +0.000 C 
BRANCH  23  24
ATOM     24  C   UNL     1       3.641   6.775  18.264  0.00  0.00    +0.000 C 
BRANCH  24  25
ATOM     25  C   UNL     1       2.478   7.705  18.590  0.00  0.00    +0.000 C 
BRANCH  25  26
ATOM     26  C   UNL     1       1.813   7.325  19.900  0.00  0.00    +0.000 C 
BRANCH  26  27
ATOM     27  C   UNL     1       1.512   8.584  20.703  0.00  0.00    +0.000 C 
BRANCH  27  28
ATOM     28  C   UNL     1       0.744   9.582  19.853  0.00  0.00    +0.000 C 
BRANCH  28  29
ATOM     29  C   UNL     1       0.459  10.854  20.640  0.00  0.00    +0.000 C 
BRANCH  29  30
ATOM     30  C   UNL     1      -0.991  11.279  20.444  0.00  0.00    +0.000 C 
BRANCH  30  32
ATOM     31  C   UNL     1      -1.189  12.338  18.181  0.00  0.00    +0.000 C 
ATOM     32  C   UNL     1      -1.430  11.081  18.998  0.00  0.00    +0.000 C 
ENDBRANCH  30  32
ENDBRANCH  29  30
ENDBRANCH  28  29
ENDBRANCH  27  28
ENDBRANCH  26  27
ENDBRANCH  25  26
ENDBRANCH  24  25
ENDBRANCH  23  24
ENDBRANCH  22  23
ENDBRANCH   1  22
TORSDOF 16
ENDMDL
MODEL 7
REMARK VINA RESULT:      -6.4      3.569      7.665
REMARK  Name = 
REMARK  19 active torsions:
REMARK  status: ('A' for Active; 'I' for Inactive)
REMARK    1  A    between atoms: C_1  and  C_2
REMARK    2  A    between atoms: C_2  and  C_3
REMARK    3  A    between atoms: C_3  and  C_4
REMARK    4  A    between atoms: C_4  and  C_5
REMARK    5  A    between atoms: C_5  and  C_6
REMARK    6  A    between atoms: C_6  and  C_7
REMARK    7  A    between atoms: C_7  and  C_8
REMARK    8  A    between atoms: C_8  and  C_9
REMARK    9  A    between atoms: C_9  and  C_10
REMARK   10  A    between atoms: C_10  and  C_11
REMARK   11  A    between atoms: C_11  and  C_12
REMARK   12  A    between atoms: C_13  and  C_14
REMARK   13  A    between atoms: C_14  and  C_16
REMARK   14  A    between atoms: C_16  and  C_17
REMARK   15  A    between atoms: C_17  and  C_18
REMARK   16  A    between atoms: C_17  and  C_19
REMARK   17  A    between atoms: C_19  and  C_20
REMARK   18  A    between atoms: C_20  and  O_22
REMARK   19  A    between atoms: N_30  and  C_31
REMARK                            x       y       z     vdW  Elec       q    Type
REMARK                         _______ _______ _______ _____ _____    ______ ____
ROOT
ATOM      1  C   UNL     1       2.313   7.640  18.636  0.00  0.00    +0.000 A 
ATOM      2  C   UNL     1       1.807   7.212  19.857  0.00  0.00    +0.000 A 
ATOM      3  C   UNL     1       1.217   8.361  20.484  0.00  0.00    +0.000 A 
ATOM      4  C   UNL     1       0.538   8.551  21.708  0.00  0.00    +0.000 A 
ATOM      5  C   UNL     1       0.075   9.823  22.047  0.00  0.00    +0.000 A 
ATOM      6 CL   UNL     1      -0.752  10.051  23.540  0.00  0.00    +0.000 Cl
ATOM      7  C   UNL     1       0.271  10.903  21.198  0.00  0.00    +0.000 A 
ATOM      8  C   UNL     1       0.937  10.742  19.981  0.00  0.00    +0.000 A 
ATOM      9  C   UNL     1       1.403   9.460  19.642  0.00  0.00    +0.000 A 
ATOM     10  N   UNL     1       2.069   8.999  18.526  0.00  0.00    +0.000 N 
ATOM     11  C   UNL     1       2.427   9.812  17.379  0.00  0.00    +0.000 C 
ENDROOT
BRANCH   2  12
ATOM     12  C   UNL     1       1.782   5.854  20.407  0.00  0.00    +0.000 C 
ATOM     13  O   UNL     1       0.715   5.386  20.810  0.00  0.00    +0.000 OA
BRANCH  12  14
ATOM     14  C   UNL     1       3.073   5.045  20.518  0.00  0.00    +0.000 C 
BRANCH  14  15
ATOM     15  C   UNL     1       3.179   3.813  19.594  0.00  0.00    +0.000 C 
ATOM     16  C   UNL     1       4.529   3.761  18.875  0.00  0.00    +0.000 C 
BRANCH  15  17
ATOM     17  C   UNL     1       2.877   2.479  20.304  0.00  0.00    +0.000 C 
BRANCH  17  18
ATOM     18  C   UNL     1       1.577   2.516  21.072  0.00  0.00    +0.000 C 
ATOM     19  O   UNL     1       1.488   2.483  22.291  0.00  0.00    +0.000 OA
BRANCH  18  20
ATOM     20  O   UNL     1       0.486   2.605  20.276  0.00  0.00    +0.000 OA
ATOM     21  H   UNL     1       0.238   3.520  20.043  0.00  0.00    +0.000 HD
ENDBRANCH  18  20
ENDBRANCH  17  18
ENDBRANCH  15  17
ENDBRANCH  14  15
ENDBRANCH  12  14
ENDBRANCH   2  12
BRANCH   1  22
ATOM     22  C   UNL     1       2.950   6.872  17.524  0.00  0.00    +0.000 C 
BRANCH  22  23
ATOM     23  C   UNL     1       4.476   6.897  17.630  0.00  0.00    +0.000 C 
BRANCH  23  24
ATOM     24  C   UNL     1       5.149   6.521  16.314  0.00  0.00    +0.000 C 
BRANCH  24  25
ATOM     25  C   UNL     1       6.586   6.064  16.535  0.00  0.00    +0.000 C 
BRANCH  25  26
ATOM     26  C   UNL     1       6.808   4.655  16.017  0.00  0.00    +0.000 C 
BRANCH  26  27
ATOM     27  C   UNL     1       7.034   4.696  14.511  0.00  0.00    +0.000 C 
BRANCH  27  28
ATOM     28  C   UNL     1       6.114   3.708  13.812  0.00  0.00    +0.000 C 
BRANCH  28  29
ATOM     29  C   UNL     1       6.438   3.628  12.326  0.00  0.00    +0.000 C 
BRANCH  29  30
ATOM     30  C   UNL     1       5.386   2.796  11.603  0.00  0.00    +0.000 C 
BRANCH  30  32
ATOM     31  C   UNL     1       3.314   3.284  10.280  0.00  0.00    +0.000 C 
ATOM     32  C   UNL     1       4.036   3.504  11.598  0.00  0.00    +0.000 C 
ENDBRANCH  30  32
ENDBRANCH  29  30
ENDBRANCH  28  29
ENDBRANCH  27  28
ENDBRANCH  26  27
ENDBRANCH  25  26
ENDBRANCH  24  25
ENDBRANCH  23  24
ENDBRANCH  22  23
ENDBRANCH   1  22
TORSDOF 16
ENDMDL
MODEL 8
REMARK VINA RESULT:      -6.4      5.396     10.288
REMARK  Name = 
REMARK  19 active torsions:
REMARK  status: ('A' for Active; 'I' for Inactive)
REMARK    1  A    between atoms: C_1  and  C_2
REMARK    2  A    between atoms: C_2  and  C_3
REMARK    3  A    between atoms: C_3  and  C_4
REMARK    4  A    between atoms: C_4  and  C_5
REMARK    5  A    between atoms: C_5  and  C_6
REMARK    6  A    between atoms: C_6  and  C_7
REMARK    7  A    between atoms: C_7  and  C_8
REMARK    8  A    between atoms: C_8  and  C_9
REMARK    9  A    between atoms: C_9  and  C_10
REMARK   10  A    between atoms: C_10  and  C_11
REMARK   11  A    between atoms: C_11  and  C_12
REMARK   12  A    between atoms: C_13  and  C_14
REMARK   13  A    between atoms: C_14  and  C_16
REMARK   14  A    between atoms: C_16  and  C_17
REMARK   15  A    between atoms: C_17  and  C_18
REMARK   16  A    between atoms: C_17  and  C_19
REMARK   17  A    between atoms: C_19  and  C_20
REMARK   18  A    between atoms: C_20  and  O_22
REMARK   19  A    between atoms: N_30  and  C_31
REMARK                            x       y       z     vdW  Elec       q    Type
REMARK                         _______ _______ _______ _____ _____    ______ ____
ROOT
ATOM      1  C   UNL     1       0.361  10.438  19.799  0.00  0.00    +0.000 A 
ATOM      2  C   UNL     1      -0.742  11.220  19.476  0.00  0.00    +0.000 A 
ATOM      3  C   UNL     1      -1.402  11.530  20.712  0.00  0.00    +0.000 A 
ATOM      4  C   UNL     1      -2.548  12.293  21.031  0.00  0.00    +0.000 A 
ATOM      5  C   UNL     1      -2.952  12.405  22.361  0.00  0.00    +0.000 A 
ATOM      6 CL   UNL     1      -4.349  13.336  22.745  0.00  0.00    +0.000 Cl
ATOM      7  C   UNL     1      -2.243  11.778  23.377  0.00  0.00    +0.000 A 
ATOM      8  C   UNL     1      -1.106  11.020  23.090  0.00  0.00    +0.000 A 
ATOM      9  C   UNL     1      -0.702  10.908  21.749  0.00  0.00    +0.000 A 
ATOM     10  N   UNL     1       0.365  10.253  21.171  0.00  0.00    +0.000 N 
ATOM     11  C   UNL     1       1.374   9.508  21.900  0.00  0.00    +0.000 C 
ENDROOT
BRANCH   2  12
ATOM     12  C   UNL     1      -1.149  11.723  18.162  0.00  0.00    +0.000 C 
ATOM     13  O   UNL     1      -0.890  12.889  17.855  0.00  0.00    +0.000 OA
BRANCH  12  14
ATOM     14  C   UNL     1      -1.922  10.824  17.198  0.00  0.00    +0.000 C 
BRANCH  14  15
ATOM     15  C   UNL     1      -3.314  11.333  16.768  0.00  0.00    +0.000 C 
ATOM     16  C   UNL     1      -3.900  10.483  15.639  0.00  0.00    +0.000 C 
BRANCH  15  17
ATOM     17  C   UNL     1      -4.311  11.470  17.935  0.00  0.00    +0.000 C 
BRANCH  17  18
ATOM     18  C   UNL     1      -5.671  11.943  17.478  0.00  0.00    +0.000 C 
ATOM     19  O   UNL     1      -5.893  13.034  16.972  0.00  0.00    +0.000 OA
BRANCH  18  20
ATOM     20  O   UNL     1      -6.649  11.029  17.669  0.00  0.00    +0.000 OA
ATOM     21  H   UNL     1      -7.474  11.221  17.182  0.00  0.00    +0.000 HD
ENDBRANCH  18  20
ENDBRANCH  17  18
ENDBRANCH  15  17
ENDBRANCH  14  15
ENDBRANCH  12  14
ENDBRANCH   2  12
BRANCH   1  22
ATOM     22  C   UNL     1       1.457   9.902  18.937  0.00  0.00    +0.000 C 
BRANCH  22  23
ATOM     23  C   UNL     1       1.168   8.466  18.495  0.00  0.00    +0.000 C 
BRANCH  23  24
ATOM     24  C   UNL     1       2.435   7.727  18.077  0.00  0.00    +0.000 C 
BRANCH  24  25
ATOM     25  C   UNL     1       2.318   6.230  18.338  0.00  0.00    +0.000 C 
BRANCH  25  26
ATOM     26  C   UNL     1       3.024   5.833  19.621  0.00  0.00    +0.000 C 
BRANCH  26  27
ATOM     27  C   UNL     1       1.992   5.438  20.670  0.00  0.00    +0.000 C 
BRANCH  27  28
ATOM     28  C   UNL     1       0.971   4.484  20.073  0.00  0.00    +0.000 C 
BRANCH  28  29
ATOM     29  C   UNL     1       1.207   3.063  20.568  0.00  0.00    +0.000 C 
BRANCH  29  30
ATOM     30  C   UNL     1       1.452   2.130  19.388  0.00  0.00    +0.000 C 
BRANCH  30  32
ATOM     31  C   UNL     1       3.134   2.649  17.604  0.00  0.00    +0.000 C 
ATOM     32  C   UNL     1       2.927   2.104  19.006  0.00  0.00    +0.000 C 
ENDBRANCH  30  32
ENDBRANCH  29  30
ENDBRANCH  28  29
ENDBRANCH  27  28
ENDBRANCH  26  27
ENDBRANCH  25  26
ENDBRANCH  24  25
ENDBRANCH  23  24
ENDBRANCH  22  23
ENDBRANCH   1  22
TORSDOF 16
ENDMDL
MODEL 9
REMARK VINA RESULT:      -6.4      5.067      8.099
REMARK  Name = 
REMARK  19 active torsions:
REMARK  status: ('A' for Active; 'I' for Inactive)
REMARK    1  A    between atoms: C_1  and  C_2
REMARK    2  A    between atoms: C_2  and  C_3
REMARK    3  A    between atoms: C_3  and  C_4
REMARK    4  A    between atoms: C_4  and  C_5
REMARK    5  A    between atoms: C_5  and  C_6
REMARK    6  A    between atoms: C_6  and  C_7
REMARK    7  A    between atoms: C_7  and  C_8
REMARK    8  A    between atoms: C_8  and  C_9
REMARK    9  A    between atoms: C_9  and  C_10
REMARK   10  A    between atoms: C_10  and  C_11
REMARK   11  A    between atoms: C_11  and  C_12
REMARK   12  A    between atoms: C_13  and  C_14
REMARK   13  A    between atoms: C_14  and  C_16
REMARK   14  A    between atoms: C_16  and  C_17
REMARK   15  A    between atoms: C_17  and  C_18
REMARK   16  A    between atoms: C_17  and  C_19
REMARK   17  A    between atoms: C_19  and  C_20
REMARK   18  A    between atoms: C_20  and  O_22
REMARK   19  A    between atoms: N_30  and  C_31
REMARK                            x       y       z     vdW  Elec       q    Type
REMARK                         _______ _______ _______ _____ _____    ______ ____
ROOT
ATOM      1  C   UNL     1       6.766   5.789  17.484  0.00  0.00    +0.000 A 
ATOM      2  C   UNL     1       5.820   5.212  16.646  0.00  0.00    +0.000 A 
ATOM      3  C   UNL     1       5.011   4.356  17.466  0.00  0.00    +0.000 A 
ATOM      4  C   UNL     1       3.896   3.531  17.197  0.00  0.00    +0.000 A 
ATOM      5  C   UNL     1       3.317   2.797  18.232  0.00  0.00    +0.000 A 
ATOM      6 CL   UNL     1       1.958   1.793  17.899  0.00  0.00    +0.000 Cl
ATOM      7  C   UNL     1       3.822   2.865  19.523  0.00  0.00    +0.000 A 
ATOM      8  C   UNL     1       4.922   3.674  19.817  0.00  0.00    +0.000 A 
ATOM      9  C   UNL     1       5.503   4.412  18.772  0.00  0.00    +0.000 A 
ATOM     10  N   UNL     1       6.567   5.290  18.760  0.00  0.00    +0.000 N 
ATOM     11  C   UNL     1       7.343   5.669  19.926  0.00  0.00    +0.000 C 
ENDROOT
BRANCH   2  12
ATOM     12  C   UNL     1       5.597   5.457  15.219  0.00  0.00    +0.000 C 
ATOM     13  O   UNL     1       5.146   6.546  14.857  0.00  0.00    +0.000 OA
BRANCH  12  14
ATOM     14  C   UNL     1       5.881   4.360  14.195  0.00  0.00    +0.000 C 
BRANCH  14  15
ATOM     15  C   UNL     1       6.685   4.789  12.949  0.00  0.00    +0.000 C 
ATOM     16  C   UNL     1       8.020   5.429  13.332  0.00  0.00    +0.000 C 
BRANCH  15  17
ATOM     17  C   UNL     1       6.886   3.658  11.922  0.00  0.00    +0.000 C 
BRANCH  17  18
ATOM     18  C   UNL     1       5.649   2.807  11.751  0.00  0.00    +0.000 C 
ATOM     19  O   UNL     1       4.535   3.244  11.496  0.00  0.00    +0.000 OA
BRANCH  18  20
ATOM     20  O   UNL     1       5.884   1.483  11.894  0.00  0.00    +0.000 OA
ATOM     21  H   UNL     1       6.167   1.223  12.791  0.00  0.00    +0.000 HD
ENDBRANCH  18  20
ENDBRANCH  17  18
ENDBRANCH  15  17
ENDBRANCH  14  15
ENDBRANCH  12  14
ENDBRANCH   2  12
BRANCH   1  22
ATOM     22  C   UNL     1       7.806   6.825  17.208  0.00  0.00    +0.000 C 
BRANCH  22  23
ATOM     23  C   UNL     1       7.334   8.218  17.630  0.00  0.00    +0.000 C 
BRANCH  23  24
ATOM     24  C   UNL     1       8.469   9.237  17.621  0.00  0.00    +0.000 C 
BRANCH  24  25
ATOM     25  C   UNL     1       8.933   9.565  19.034  0.00  0.00    +0.000 C 
BRANCH  25  26
ATOM     26  C   UNL     1       9.408  11.003  19.143  0.00  0.00    +0.000 C 
BRANCH  26  27
ATOM     27  C   UNL     1      10.231  11.363  17.912  0.00  0.00    +0.000 C 
BRANCH  27  28
ATOM     28  C   UNL     1       9.981  12.808  17.515  0.00  0.00    +0.000 C 
BRANCH  28  29
ATOM     29  C   UNL     1      11.271  13.615  17.576  0.00  0.00    +0.000 C 
BRANCH  29  30
ATOM     30  C   UNL     1      11.908  13.484  18.954  0.00  0.00    +0.000 C 
BRANCH  30  32
ATOM     31  C   UNL     1      10.500  14.187  20.904  0.00  0.00    +0.000 C 
ATOM     32  C   UNL     1      11.501  14.642  19.858  0.00  0.00    +0.000 C 
ENDBRANCH  30  32
ENDBRANCH  29  30
ENDBRANCH  28  29
ENDBRANCH  27  28
ENDBRANCH  26  27
ENDBRANCH  25  26
ENDBRANCH  24  25
ENDBRANCH  23  24
ENDBRANCH  22  23
ENDBRANCH   1  22
TORSDOF 16
ENDMDL
