MODEL 1
REMARK VINA RESULT:      -7.4      0.000      0.000
REMARK  Name = 
REMARK  13 active torsions:
REMARK  status: ('A' for Active; 'I' for Inactive)
REMARK    1  A    between atoms: C_1  and  C_2
REMARK    2  A    between atoms: C_2  and  C_3
REMARK    3  A    between atoms: C_3  and  C_4
REMARK    4  A    between atoms: C_4  and  C_5
REMARK    5  A    between atoms: C_5  and  C_6
REMARK    6  A    between atoms: C_6  and  C_7
REMARK    7  A    between atoms: C_7  and  C_8
REMARK    8  A    between atoms: C_8  and  N_9
REMARK    9  A    between atoms: C_14  and  C_15
REMARK   10  A    between atoms: C_19  and  C_20
REMARK   11  A    between atoms: N_26  and  C_27
REMARK   12  A    between atoms: C_27  and  C_28
REMARK   13  A    between atoms: C_27  and  C_29
REMARK                            x       y       z     vdW  Elec       q    Type
REMARK                         _______ _______ _______ _____ _____    ______ ____
ROOT
ATOM      1  N   UNL     1       4.428   6.325  17.472  0.00  0.00    +0.000 N 
ATOM      2  C   UNL     1       4.145   5.240  18.262  0.00  0.00    +0.000 A 
ATOM      3  C   UNL     1       3.007   5.504  18.992  0.00  0.00    +0.000 A 
ATOM      4  C   UNL     1       2.627   6.840  18.704  0.00  0.00    +0.000 A 
ATOM      5  C   UNL     1       1.591   7.674  19.179  0.00  0.00    +0.000 A 
ATOM      6  C   UNL     1       1.471   9.008  18.749  0.00  0.00    +0.000 A 
ATOM      7  C   UNL     1       2.398   9.467  17.801  0.00  0.00    +0.000 A 
ATOM      8  C   UNL     1       3.420   8.656  17.287  0.00  0.00    +0.000 A 
ATOM      9  C   UNL     1       3.527   7.341  17.761  0.00  0.00    +0.000 A 
ATOM     10  C   UNL     1       2.383   4.529  19.941  0.00  0.00    +0.000 C 
ATOM     11  N   UNL     1       2.870   3.144  19.679  0.00  0.00    +0.000 NA
ATOM     12  C   UNL     1       4.354   3.145  19.570  0.00  0.00    +0.000 C 
ATOM     13  C   UNL     1       4.857   3.938  18.335  0.00  0.00    +0.000 C 
ENDROOT
BRANCH   6  14
ATOM     14  C   UNL     1       0.420   9.896  19.299  0.00  0.00    +0.000 A 
ATOM     15  C   UNL     1      -0.506  10.545  18.466  0.00  0.00    +0.000 A 
ATOM     16  C   UNL     1      -1.476  11.405  18.986  0.00  0.00    +0.000 A 
ATOM     17  C   UNL     1      -1.552  11.628  20.359  0.00  0.00    +0.000 A 
ATOM     18  C   UNL     1      -0.651  10.999  21.219  0.00  0.00    +0.000 A 
ATOM     19  C   UNL     1      -0.713  11.217  22.702  0.00  0.00    +0.000 C 
ATOM     20  C   UNL     1       0.318  10.137  20.682  0.00  0.00    +0.000 A 
ENDBRANCH   6  14
BRANCH  11  21
ATOM     21  C   UNL     1       2.359   2.196  20.701  0.00  0.00    +0.000 C 
ATOM     22  C   UNL     1       3.488   1.675  21.612  0.00  0.00    +0.000 C 
ATOM     23  C   UNL     1       1.304   2.836  21.620  0.00  0.00    +0.000 C 
ENDBRANCH  11  21
BRANCH   1  24
ATOM     24  C   UNL     1       5.525   6.430  16.525  0.00  0.00    +0.000 C 
BRANCH  24  25
ATOM     25  C   UNL     1       5.272   5.814  15.149  0.00  0.00    +0.000 C 
BRANCH  25  26
ATOM     26  C   UNL     1       5.941   4.455  14.937  0.00  0.00    +0.000 C 
BRANCH  26  27
ATOM     27  C   UNL     1       6.703   4.453  13.611  0.00  0.00    +0.000 C 
BRANCH  27  28
ATOM     28  C   UNL     1       6.140   3.432  12.624  0.00  0.00    +0.000 C 
BRANCH  28  29
ATOM     29  C   UNL     1       4.697   3.781  12.251  0.00  0.00    +0.000 C 
BRANCH  29  31
ATOM     30  C   UNL     1       3.273   3.708  10.178  0.00  0.00    +0.000 C 
ATOM     31  C   UNL     1       4.196   2.921  11.094  0.00  0.00    +0.000 C 
ENDBRANCH  29  31
ENDBRANCH  28  29
ENDBRANCH  27  28
ENDBRANCH  26  27
ENDBRANCH  25  26
ENDBRANCH  24  25
ENDBRANCH   1  24
TORSDOF 9
ENDMDL
MODEL 2
REMARK VINA RESULT:      -7.4      4.056      8.731
REMARK  Name = 
REMARK  13 active torsions:
REMARK  status: ('A' for Active; 'I' for Inactive)
REMARK    1  A    between atoms: C_1  and  C_2
REMARK    2  A    between atoms: C_2  and  C_3
REMARK    3  A    between atoms: C_3  and  C_4
REMARK    4  A    between atoms: C_4  and  C_5
REMARK    5  A    between atoms: C_5  and  C_6
REMARK    6  A    between atoms: C_6  and  C_7
REMARK    7  A    between atoms: C_7  and  C_8
REMARK    8  A    between atoms: C_8  and  N_9
REMARK    9  A    between atoms: C_14  and  C_15
REMARK   10  A    between atoms: C_19  and  C_20
REMARK   11  A    between atoms: N_26  and  C_27
REMARK   12  A    between atoms: C_27  and  C_28
REMARK   13  A    between atoms: C_27  and  C_29
REMARK                            x       y       z     vdW  Elec       q    Type
REMARK                         _______ _______ _______ _____ _____    ______ ____
ROOT
ATOM      1  N   UNL     1       6.425   5.562  17.761  0.00  0.00    +0.000 N 
ATOM      2  C   UNL     1       5.319   5.083  18.414  0.00  0.00    +0.000 A 
ATOM      3  C   UNL     1       4.636   4.233  17.571  0.00  0.00    +0.000 A 
ATOM      4  C   UNL     1       5.304   4.260  16.320  0.00  0.00    +0.000 A 
ATOM      5  C   UNL     1       5.049   3.646  15.075  0.00  0.00    +0.000 A 
ATOM      6  C   UNL     1       5.868   3.890  13.957  0.00  0.00    +0.000 A 
ATOM      7  C   UNL     1       6.970   4.740  14.137  0.00  0.00    +0.000 A 
ATOM      8  C   UNL     1       7.268   5.342  15.368  0.00  0.00    +0.000 A 
ATOM      9  C   UNL     1       6.413   5.100  16.451  0.00  0.00    +0.000 A 
ATOM     10  C   UNL     1       3.391   3.499  17.960  0.00  0.00    +0.000 C 
ATOM     11  N   UNL     1       3.235   3.462  19.443  0.00  0.00    +0.000 NA
ATOM     12  C   UNL     1       3.434   4.826  20.004  0.00  0.00    +0.000 C 
ATOM     13  C   UNL     1       4.886   5.339  19.812  0.00  0.00    +0.000 C 
ENDROOT
BRANCH   6  14
ATOM     14  C   UNL     1       5.558   3.292  12.638  0.00  0.00    +0.000 A 
ATOM     15  C   UNL     1       6.356   2.276  12.084  0.00  0.00    +0.000 A 
ATOM     16  C   UNL     1       6.078   1.736  10.827  0.00  0.00    +0.000 A 
ATOM     17  C   UNL     1       4.982   2.190  10.095  0.00  0.00    +0.000 A 
ATOM     18  C   UNL     1       4.165   3.195  10.613  0.00  0.00    +0.000 A 
ATOM     19  C   UNL     1       2.977   3.701   9.848  0.00  0.00    +0.000 C 
ATOM     20  C   UNL     1       4.457   3.729  11.878  0.00  0.00    +0.000 A 
ENDBRANCH   6  14
BRANCH  11  21
ATOM     21  C   UNL     1       1.937   2.855  19.828  0.00  0.00    +0.000 C 
ATOM     22  C   UNL     1       1.206   3.696  20.893  0.00  0.00    +0.000 C 
ATOM     23  C   UNL     1       0.976   2.715  18.635  0.00  0.00    +0.000 C 
ENDBRANCH  11  21
BRANCH   1  24
ATOM     24  C   UNL     1       7.426   6.456  18.318  0.00  0.00    +0.000 C 
BRANCH  24  25
ATOM     25  C   UNL     1       7.440   7.873  17.743  0.00  0.00    +0.000 C 
BRANCH  25  26
ATOM     26  C   UNL     1       8.634   8.719  18.190  0.00  0.00    +0.000 C 
BRANCH  26  27
ATOM     27  C   UNL     1       8.365  10.194  17.890  0.00  0.00    +0.000 C 
BRANCH  27  28
ATOM     28  C   UNL     1       9.187  11.123  18.780  0.00  0.00    +0.000 C 
BRANCH  28  29
ATOM     29  C   UNL     1      10.541  11.430  18.136  0.00  0.00    +0.000 C 
BRANCH  29  31
ATOM     30  C   UNL     1      12.011  12.974  19.473  0.00  0.00    +0.000 C 
ATOM     31  C   UNL     1      11.648  11.527  19.182  0.00  0.00    +0.000 C 
ENDBRANCH  29  31
ENDBRANCH  28  29
ENDBRANCH  27  28
ENDBRANCH  26  27
ENDBRANCH  25  26
ENDBRANCH  24  25
ENDBRANCH   1  24
TORSDOF 9
ENDMDL
MODEL 3
REMARK VINA RESULT:      -7.3      0.701      1.460
REMARK  Name = 
REMARK  13 active torsions:
REMARK  status: ('A' for Active; 'I' for Inactive)
REMARK    1  A    between atoms: C_1  and  C_2
REMARK    2  A    between atoms: C_2  and  C_3
REMARK    3  A    between atoms: C_3  and  C_4
REMARK    4  A    between atoms: C_4  and  C_5
REMARK    5  A    between atoms: C_5  and  C_6
REMARK    6  A    between atoms: C_6  and  C_7
REMARK    7  A    between atoms: C_7  and  C_8
REMARK    8  A    between atoms: C_8  and  N_9
REMARK    9  A    between atoms: C_14  and  C_15
REMARK   10  A    between atoms: C_19  and  C_20
REMARK   11  A    between atoms: N_26  and  C_27
REMARK   12  A    between atoms: C_27  and  C_28
REMARK   13  A    between atoms: C_27  and  C_29
REMARK                            x       y       z     vdW  Elec       q    Type
REMARK                         _______ _______ _______ _____ _____    ______ ____
ROOT
ATOM      1  N   UNL     1       3.944   6.408  17.334  0.00  0.00    +0.000 N 
ATOM      2  C   UNL     1       3.797   5.281  18.100  0.00  0.00    +0.000 A 
ATOM      3  C   UNL     1       2.849   5.521  19.070  0.00  0.00    +0.000 A 
ATOM      4  C   UNL     1       2.463   6.880  18.949  0.00  0.00    +0.000 A 
ATOM      5  C   UNL     1       1.581   7.704  19.682  0.00  0.00    +0.000 A 
ATOM      6  C   UNL     1       1.418   9.065  19.366  0.00  0.00    +0.000 A 
ATOM      7  C   UNL     1       2.140   9.565  18.271  0.00  0.00    +0.000 A 
ATOM      8  C   UNL     1       3.001   8.767  17.504  0.00  0.00    +0.000 A 
ATOM      9  C   UNL     1       3.161   7.422  17.867  0.00  0.00    +0.000 A 
ATOM     10  C   UNL     1       2.405   4.500  20.071  0.00  0.00    +0.000 C 
ATOM     11  N   UNL     1       2.778   3.125  19.630  0.00  0.00    +0.000 NA
ATOM     12  C   UNL     1       4.205   3.101  19.208  0.00  0.00    +0.000 C 
ATOM     13  C   UNL     1       4.463   3.961  17.943  0.00  0.00    +0.000 C 
ENDROOT
BRANCH   6  14
ATOM     14  C   UNL     1       0.539   9.937  20.179  0.00  0.00    +0.000 A 
ATOM     15  C   UNL     1       0.511   9.855  21.581  0.00  0.00    +0.000 A 
ATOM     16  C   UNL     1      -0.341  10.657  22.342  0.00  0.00    +0.000 A 
ATOM     17  C   UNL     1      -1.182  11.576  21.717  0.00  0.00    +0.000 A 
ATOM     18  C   UNL     1      -1.181  11.690  20.326  0.00  0.00    +0.000 A 
ATOM     19  C   UNL     1      -2.073  12.674  19.628  0.00  0.00    +0.000 C 
ATOM     20  C   UNL     1      -0.318  10.876  19.575  0.00  0.00    +0.000 A 
ENDBRANCH   6  14
BRANCH  11  21
ATOM     21  C   UNL     1       2.462   2.124  20.680  0.00  0.00    +0.000 C 
ATOM     22  C   UNL     1       3.719   1.704  21.466  0.00  0.00    +0.000 C 
ATOM     23  C   UNL     1       1.448   2.652  21.709  0.00  0.00    +0.000 C 
ENDBRANCH  11  21
BRANCH   1  24
ATOM     24  C   UNL     1       4.820   6.551  16.182  0.00  0.00    +0.000 C 
BRANCH  24  25
ATOM     25  C   UNL     1       6.313   6.377  16.462  0.00  0.00    +0.000 C 
BRANCH  25  26
ATOM     26  C   UNL     1       6.941   5.160  15.779  0.00  0.00    +0.000 C 
BRANCH  26  27
ATOM     27  C   UNL     1       6.141   4.798  14.526  0.00  0.00    +0.000 C 
BRANCH  27  28
ATOM     28  C   UNL     1       7.013   4.775  13.272  0.00  0.00    +0.000 C 
BRANCH  28  29
ATOM     29  C   UNL     1       6.546   3.680  12.311  0.00  0.00    +0.000 C 
BRANCH  29  31
ATOM     30  C   UNL     1       4.252   3.312  11.343  0.00  0.00    +0.000 C 
ATOM     31  C   UNL     1       5.106   3.261  12.599  0.00  0.00    +0.000 C 
ENDBRANCH  29  31
ENDBRANCH  28  29
ENDBRANCH  27  28
ENDBRANCH  26  27
ENDBRANCH  25  26
ENDBRANCH  24  25
ENDBRANCH   1  24
TORSDOF 9
ENDMDL
MODEL 4
REMARK VINA RESULT:      -7.3      1.069      1.877
REMARK  Name = 
REMARK  13 active torsions:
REMARK  status: ('A' for Active; 'I' for Inactive)
REMARK    1  A    between atoms: C_1  and  C_2
REMARK    2  A    between atoms: C_2  and  C_3
REMARK    3  A    between atoms: C_3  and  C_4
REMARK    4  A    between atoms: C_4  and  C_5
REMARK    5  A    between atoms: C_5  and  C_6
REMARK    6  A    between atoms: C_6  and  C_7
REMARK    7  A    between atoms: C_7  and  C_8
REMARK    8  A    between atoms: C_8  and  N_9
REMARK    9  A    between atoms: C_14  and  C_15
REMARK   10  A    between atoms: C_19  and  C_20
REMARK   11  A    between atoms: N_26  and  C_27
REMARK   12  A    between atoms: C_27  and  C_28
REMARK   13  A    between atoms: C_27  and  C_29
REMARK                            x       y       z     vdW  Elec       q    Type
REMARK                         _______ _______ _______ _____ _____    ______ ____
ROOT
ATOM      1  N   UNL     1       4.493   6.665  17.679  0.00  0.00    +0.000 N 
ATOM      2  C   UNL     1       4.057   5.520  18.294  0.00  0.00    +0.000 A 
ATOM      3  C   UNL     1       2.761   5.708  18.721  0.00  0.00    +0.000 A 
ATOM      4  C   UNL     1       2.419   7.055  18.435  0.00  0.00    +0.000 A 
ATOM      5  C   UNL     1       1.267   7.833  18.681  0.00  0.00    +0.000 A 
ATOM      6  C   UNL     1       1.213   9.193  18.324  0.00  0.00    +0.000 A 
ATOM      7  C   UNL     1       2.335   9.737  17.681  0.00  0.00    +0.000 A 
ATOM      8  C   UNL     1       3.483   8.985  17.395  0.00  0.00    +0.000 A 
ATOM      9  C   UNL     1       3.513   7.641  17.792  0.00  0.00    +0.000 A 
ATOM     10  C   UNL     1       1.950   4.655  19.409  0.00  0.00    +0.000 C 
ATOM     11  N   UNL     1       2.538   3.302  19.189  0.00  0.00    +0.000 NA
ATOM     12  C   UNL     1       3.999   3.337  19.468  0.00  0.00    +0.000 C 
ATOM     13  C   UNL     1       4.773   4.228  18.461  0.00  0.00    +0.000 C 
ENDROOT
BRANCH   6  14
ATOM     14  C   UNL     1       0.025  10.018  18.642  0.00  0.00    +0.000 A 
ATOM     15  C   UNL     1      -0.050  10.780  19.821  0.00  0.00    +0.000 A 
ATOM     16  C   UNL     1      -1.184  11.532  20.132  0.00  0.00    +0.000 A 
ATOM     17  C   UNL     1      -2.272  11.553  19.261  0.00  0.00    +0.000 A 
ATOM     18  C   UNL     1      -2.235  10.813  18.079  0.00  0.00    +0.000 A 
ATOM     19  C   UNL     1      -3.390  10.821  17.122  0.00  0.00    +0.000 C 
ATOM     20  C   UNL     1      -1.087  10.061  17.780  0.00  0.00    +0.000 A 
ENDBRANCH   6  14
BRANCH  11  21
ATOM     21  C   UNL     1       1.817   2.272  19.979  0.00  0.00    +0.000 C 
ATOM     22  C   UNL     1       1.562   2.736  21.426  0.00  0.00    +0.000 C 
ATOM     23  C   UNL     1       0.447   1.922  19.375  0.00  0.00    +0.000 C 
ENDBRANCH  11  21
BRANCH   1  24
ATOM     24  C   UNL     1       5.793   6.859  17.057  0.00  0.00    +0.000 C 
BRANCH  24  25
ATOM     25  C   UNL     1       5.990   6.166  15.708  0.00  0.00    +0.000 C 
BRANCH  25  26
ATOM     26  C   UNL     1       6.999   5.015  15.736  0.00  0.00    +0.000 C 
BRANCH  26  27
ATOM     27  C   UNL     1       6.386   3.773  15.090  0.00  0.00    +0.000 C 
BRANCH  27  28
ATOM     28  C   UNL     1       5.572   4.113  13.843  0.00  0.00    +0.000 C 
BRANCH  28  29
ATOM     29  C   UNL     1       6.285   3.619  12.582  0.00  0.00    +0.000 C 
BRANCH  29  31
ATOM     30  C   UNL     1       6.017   1.439  11.354  0.00  0.00    +0.000 C 
ATOM     31  C   UNL     1       5.362   2.761  11.720  0.00  0.00    +0.000 C 
ENDBRANCH  29  31
ENDBRANCH  28  29
ENDBRANCH  27  28
ENDBRANCH  26  27
ENDBRANCH  25  26
ENDBRANCH  24  25
ENDBRANCH   1  24
TORSDOF 9
ENDMDL
MODEL 5
REMARK VINA RESULT:      -7.3      2.365      4.296
REMARK  Name = 
REMARK  13 active torsions:
REMARK  status: ('A' for Active; 'I' for Inactive)
REMARK    1  A    between atoms: C_1  and  C_2
REMARK    2  A    between atoms: C_2  and  C_3
REMARK    3  A    between atoms: C_3  and  C_4
REMARK    4  A    between atoms: C_4  and  C_5
REMARK    5  A    between atoms: C_5  and  C_6
REMARK    6  A    between atoms: C_6  and  C_7
REMARK    7  A    between atoms: C_7  and  C_8
REMARK    8  A    between atoms: C_8  and  N_9
REMARK    9  A    between atoms: C_14  and  C_15
REMARK   10  A    between atoms: C_19  and  C_20
REMARK   11  A    between atoms: N_26  and  C_27
REMARK   12  A    between atoms: C_27  and  C_28
REMARK   13  A    between atoms: C_27  and  C_29
REMARK                            x       y       z     vdW  Elec       q    Type
REMARK                         _______ _______ _______ _____ _____    ______ ____
ROOT
ATOM      1  N   UNL     1       4.052   6.521  17.265  0.00  0.00    +0.000 N 
ATOM      2  C   UNL     1       3.845   5.413  18.045  0.00  0.00    +0.000 A 
ATOM      3  C   UNL     1       2.821   5.675  18.930  0.00  0.00    +0.000 A 
ATOM      4  C   UNL     1       2.445   7.030  18.744  0.00  0.00    +0.000 A 
ATOM      5  C   UNL     1       1.507   7.869  19.383  0.00  0.00    +0.000 A 
ATOM      6  C   UNL     1       1.370   9.222  19.021  0.00  0.00    +0.000 A 
ATOM      7  C   UNL     1       2.176   9.696  17.975  0.00  0.00    +0.000 A 
ATOM      8  C   UNL     1       3.096   8.882  17.300  0.00  0.00    +0.000 A 
ATOM      9  C   UNL     1       3.227   7.547  17.708  0.00  0.00    +0.000 A 
ATOM     10  C   UNL     1       2.300   4.679  19.918  0.00  0.00    +0.000 C 
ATOM     11  N   UNL     1       2.708   3.294  19.543  0.00  0.00    +0.000 NA
ATOM     12  C   UNL     1       4.164   3.263  19.238  0.00  0.00    +0.000 C 
ATOM     13  C   UNL     1       4.522   4.092  17.976  0.00  0.00    +0.000 C 
ENDROOT
BRANCH   6  14
ATOM     14  C   UNL     1       0.427  10.112  19.738  0.00  0.00    +0.000 A 
ATOM     15  C   UNL     1      -0.191  11.200  19.098  0.00  0.00    +0.000 A 
ATOM     16  C   UNL     1      -1.055  12.055  19.786  0.00  0.00    +0.000 A 
ATOM     17  C   UNL     1      -1.333  11.834  21.133  0.00  0.00    +0.000 A 
ATOM     18  C   UNL     1      -0.741  10.763  21.803  0.00  0.00    +0.000 A 
ATOM     19  C   UNL     1      -1.027  10.500  23.252  0.00  0.00    +0.000 C 
ATOM     20  C   UNL     1       0.125   9.912  21.098  0.00  0.00    +0.000 A 
ENDBRANCH   6  14
BRANCH  11  21
ATOM     21  C   UNL     1       2.309   2.319  20.589  0.00  0.00    +0.000 C 
ATOM     22  C   UNL     1       3.498   1.926  21.488  0.00  0.00    +0.000 C 
ATOM     23  C   UNL     1       1.212   2.868  21.517  0.00  0.00    +0.000 C 
ENDBRANCH  11  21
BRANCH   1  24
ATOM     24  C   UNL     1       5.017   6.637  16.184  0.00  0.00    +0.000 C 
BRANCH  24  25
ATOM     25  C   UNL     1       6.486   6.631  16.607  0.00  0.00    +0.000 C 
BRANCH  25  26
ATOM     26  C   UNL     1       6.811   7.581  17.761  0.00  0.00    +0.000 C 
BRANCH  26  27
ATOM     27  C   UNL     1       8.202   8.184  17.561  0.00  0.00    +0.000 C 
BRANCH  27  28
ATOM     28  C   UNL     1       8.263   9.648  17.991  0.00  0.00    +0.000 C 
BRANCH  28  29
ATOM     29  C   UNL     1       9.115   9.805  19.253  0.00  0.00    +0.000 C 
BRANCH  29  31
ATOM     30  C   UNL     1      10.319  11.474  17.805  0.00  0.00    +0.000 C 
ATOM     31  C   UNL     1       9.924  11.099  19.224  0.00  0.00    +0.000 C 
ENDBRANCH  29  31
ENDBRANCH  28  29
ENDBRANCH  27  28
ENDBRANCH  26  27
ENDBRANCH  25  26
ENDBRANCH  24  25
ENDBRANCH   1  24
TORSDOF 9
ENDMDL
MODEL 6
REMARK VINA RESULT:      -7.2      3.699     10.180
REMARK  Name = 
REMARK  13 active torsions:
REMARK  status: ('A' for Active; 'I' for Inactive)
REMARK    1  A    between atoms: C_1  and  C_2
REMARK    2  A    between atoms: C_2  and  C_3
REMARK    3  A    between atoms: C_3  and  C_4
REMARK    4  A    between atoms: C_4  and  C_5
REMARK    5  A    between atoms: C_5  and  C_6
REMARK    6  A    between atoms: C_6  and  C_7
REMARK    7  A    between atoms: C_7  and  C_8
REMARK    8  A    between atoms: C_8  and  N_9
REMARK    9  A    between atoms: C_14  and  C_15
REMARK   10  A    between atoms: C_19  and  C_20
REMARK   11  A    between atoms: N_26  and  C_27
REMARK   12  A    between atoms: C_27  and  C_28
REMARK   13  A    between atoms: C_27  and  C_29
REMARK                            x       y       z     vdW  Elec       q    Type
REMARK                         _______ _______ _______ _____ _____    ______ ____
ROOT
ATOM      1  N   UNL     1      -0.581  12.863  18.854  0.00  0.00    +0.000 N 
ATOM      2  C   UNL     1       0.448  13.763  18.755  0.00  0.00    +0.000 A 
ATOM      3  C   UNL     1       1.618  13.077  18.513  0.00  0.00    +0.000 A 
ATOM      4  C   UNL     1       1.309  11.694  18.555  0.00  0.00    +0.000 A 
ATOM      5  C   UNL     1       2.089  10.524  18.433  0.00  0.00    +0.000 A 
ATOM      6  C   UNL     1       1.518   9.246  18.565  0.00  0.00    +0.000 A 
ATOM      7  C   UNL     1       0.134   9.177  18.787  0.00  0.00    +0.000 A 
ATOM      8  C   UNL     1      -0.675  10.318  18.883  0.00  0.00    +0.000 A 
ATOM      9  C   UNL     1      -0.066  11.576  18.776  0.00  0.00    +0.000 A 
ATOM     10  C   UNL     1       2.946  13.741  18.316  0.00  0.00    +0.000 C 
ATOM     11  N   UNL     1       2.775  15.187  17.990  0.00  0.00    +0.000 NA
ATOM     12  C   UNL     1       1.829  15.812  18.953  0.00  0.00    +0.000 C 
ATOM     13  C   UNL     1       0.391  15.246  18.822  0.00  0.00    +0.000 C 
ENDROOT
BRANCH   6  14
ATOM     14  C   UNL     1       2.354   8.025  18.499  0.00  0.00    +0.000 A 
ATOM     15  C   UNL     1       2.266   7.017  19.475  0.00  0.00    +0.000 A 
ATOM     16  C   UNL     1       3.078   5.882  19.425  0.00  0.00    +0.000 A 
ATOM     17  C   UNL     1       3.993   5.719  18.387  0.00  0.00    +0.000 A 
ATOM     18  C   UNL     1       4.108   6.697  17.398  0.00  0.00    +0.000 A 
ATOM     19  C   UNL     1       5.081   6.545  16.266  0.00  0.00    +0.000 C 
ATOM     20  C   UNL     1       3.285   7.833  17.461  0.00  0.00    +0.000 A 
ENDBRANCH   6  14
BRANCH  11  21
ATOM     21  C   UNL     1       4.087  15.878  17.926  0.00  0.00    +0.000 C 
ATOM     22  C   UNL     1       4.293  16.826  19.124  0.00  0.00    +0.000 C 
ATOM     23  C   UNL     1       5.270  14.894  17.928  0.00  0.00    +0.000 C 
ENDBRANCH  11  21
BRANCH   1  24
ATOM     24  C   UNL     1      -1.982  13.186  19.066  0.00  0.00    +0.000 C 
BRANCH  24  25
ATOM     25  C   UNL     1      -2.475  13.076  20.509  0.00  0.00    +0.000 C 
BRANCH  25  26
ATOM     26  C   UNL     1      -1.535  13.699  21.542  0.00  0.00    +0.000 C 
BRANCH  26  27
ATOM     27  C   UNL     1      -1.348  12.739  22.718  0.00  0.00    +0.000 C 
BRANCH  27  28
ATOM     28  C   UNL     1      -0.467  11.546  22.353  0.00  0.00    +0.000 C 
BRANCH  28  29
ATOM     29  C   UNL     1      -0.919  10.291  23.104  0.00  0.00    +0.000 C 
BRANCH  29  31
ATOM     30  C   UNL     1       1.181   9.171  22.286  0.00  0.00    +0.000 C 
ATOM     31  C   UNL     1      -0.318   9.028  22.493  0.00  0.00    +0.000 C 
ENDBRANCH  29  31
ENDBRANCH  28  29
ENDBRANCH  27  28
ENDBRANCH  26  27
ENDBRANCH  25  26
ENDBRANCH  24  25
ENDBRANCH   1  24
TORSDOF 9
ENDMDL
MODEL 7
REMARK VINA RESULT:      -7.2      1.743      7.943
REMARK  Name = 
REMARK  13 active torsions:
REMARK  status: ('A' for Active; 'I' for Inactive)
REMARK    1  A    between atoms: C_1  and  C_2
REMARK    2  A    between atoms: C_2  and  C_3
REMARK    3  A    between atoms: C_3  and  C_4
REMARK    4  A    between atoms: C_4  and  C_5
REMARK    5  A    between atoms: C_5  and  C_6
REMARK    6  A    between atoms: C_6  and  C_7
REMARK    7  A    between atoms: C_7  and  C_8
REMARK    8  A    between atoms: C_8  and  N_9
REMARK    9  A    between atoms: C_14  and  C_15
REMARK   10  A    between atoms: C_19  and  C_20
REMARK   11  A    between atoms: N_26  and  C_27
REMARK   12  A    between atoms: C_27  and  C_28
REMARK   13  A    between atoms: C_27  and  C_29
REMARK                            x       y       z     vdW  Elec       q    Type
REMARK                         _______ _______ _______ _____ _____    ______ ____
ROOT
ATOM      1  N   UNL     1       2.849   5.608  20.334  0.00  0.00    +0.000 N 
ATOM      2  C   UNL     1       2.254   6.806  20.036  0.00  0.00    +0.000 A 
ATOM      3  C   UNL     1       2.589   7.163  18.748  0.00  0.00    +0.000 A 
ATOM      4  C   UNL     1       3.500   6.188  18.268  0.00  0.00    +0.000 A 
ATOM      5  C   UNL     1       4.217   6.045  17.060  0.00  0.00    +0.000 A 
ATOM      6  C   UNL     1       5.112   4.978  16.862  0.00  0.00    +0.000 A 
ATOM      7  C   UNL     1       5.238   4.040  17.897  0.00  0.00    +0.000 A 
ATOM      8  C   UNL     1       4.519   4.135  19.097  0.00  0.00    +0.000 A 
ATOM      9  C   UNL     1       3.659   5.228  19.272  0.00  0.00    +0.000 A 
ATOM     10  C   UNL     1       2.091   8.402  18.072  0.00  0.00    +0.000 C 
ATOM     11  N   UNL     1       0.894   8.948  18.774  0.00  0.00    +0.000 NA
ATOM     12  C   UNL     1       1.159   9.021  20.237  0.00  0.00    +0.000 C 
ATOM     13  C   UNL     1       1.338   7.619  20.877  0.00  0.00    +0.000 C 
ENDROOT
BRANCH   6  14
ATOM     14  C   UNL     1       5.907   4.870  15.617  0.00  0.00    +0.000 A 
ATOM     15  C   UNL     1       7.137   5.535  15.468  0.00  0.00    +0.000 A 
ATOM     16  C   UNL     1       7.868   5.455  14.281  0.00  0.00    +0.000 A 
ATOM     17  C   UNL     1       7.393   4.695  13.214  0.00  0.00    +0.000 A 
ATOM     18  C   UNL     1       6.178   4.019  13.325  0.00  0.00    +0.000 A 
ATOM     19  C   UNL     1       5.645   3.190  12.193  0.00  0.00    +0.000 C 
ATOM     20  C   UNL     1       5.453   4.108  14.524  0.00  0.00    +0.000 A 
ENDBRANCH   6  14
BRANCH  11  21
ATOM     21  C   UNL     1       0.479  10.248  18.190  0.00  0.00    +0.000 C 
ATOM     22  C   UNL     1      -1.020  10.261  17.832  0.00  0.00    +0.000 C 
ATOM     23  C   UNL     1       0.720  11.427  19.148  0.00  0.00    +0.000 C 
ENDBRANCH  11  21
BRANCH   1  24
ATOM     24  C   UNL     1       2.712   4.872  21.580  0.00  0.00    +0.000 C 
BRANCH  24  25
ATOM     25  C   UNL     1       2.728   3.348  21.453  0.00  0.00    +0.000 C 
BRANCH  25  26
ATOM     26  C   UNL     1       1.342   2.716  21.312  0.00  0.00    +0.000 C 
BRANCH  26  27
ATOM     27  C   UNL     1       0.520   3.493  20.283  0.00  0.00    +0.000 C 
BRANCH  27  28
ATOM     28  C   UNL     1       0.569   2.848  18.900  0.00  0.00    +0.000 C 
BRANCH  28  29
ATOM     29  C   UNL     1       1.599   1.717  18.868  0.00  0.00    +0.000 C 
BRANCH  29  31
ATOM     30  C   UNL     1       2.153   3.031  16.795  0.00  0.00    +0.000 C 
ATOM     31  C   UNL     1       2.538   1.851  17.672  0.00  0.00    +0.000 C 
ENDBRANCH  29  31
ENDBRANCH  28  29
ENDBRANCH  27  28
ENDBRANCH  26  27
ENDBRANCH  25  26
ENDBRANCH  24  25
ENDBRANCH   1  24
TORSDOF 9
ENDMDL
MODEL 8
REMARK VINA RESULT:      -7.1      2.281      5.056
REMARK  Name = 
REMARK  13 active torsions:
REMARK  status: ('A' for Active; 'I' for Inactive)
REMARK    1  A    between atoms: C_1  and  C_2
REMARK    2  A    between atoms: C_2  and  C_3
REMARK    3  A    between atoms: C_3  and  C_4
REMARK    4  A    between atoms: C_4  and  C_5
REMARK    5  A    between atoms: C_5  and  C_6
REMARK    6  A    between atoms: C_6  and  C_7
REMARK    7  A    between atoms: C_7  and  C_8
REMARK    8  A    between atoms: C_8  and  N_9
REMARK    9  A    between atoms: C_14  and  C_15
REMARK   10  A    between atoms: C_19  and  C_20
REMARK   11  A    between atoms: N_26  and  C_27
REMARK   12  A    between atoms: C_27  and  C_28
REMARK   13  A    between atoms: C_27  and  C_29
REMARK                            x       y       z     vdW  Elec       q    Type
REMARK                         _______ _______ _______ _____ _____    ______ ____
ROOT
ATOM      1  N   UNL     1       2.825   5.544  20.533  0.00  0.00    +0.000 N 
ATOM      2  C   UNL     1       3.703   5.400  19.490  0.00  0.00    +0.000 A 
ATOM      3  C   UNL     1       3.624   6.514  18.683  0.00  0.00    +0.000 A 
ATOM      4  C   UNL     1       2.591   7.335  19.204  0.00  0.00    +0.000 A 
ATOM      5  C   UNL     1       2.024   8.558  18.785  0.00  0.00    +0.000 A 
ATOM      6  C   UNL     1       0.950   9.142  19.480  0.00  0.00    +0.000 A 
ATOM      7  C   UNL     1       0.487   8.481  20.628  0.00  0.00    +0.000 A 
ATOM      8  C   UNL     1       1.048   7.281  21.088  0.00  0.00    +0.000 A 
ATOM      9  C   UNL     1       2.097   6.712  20.353  0.00  0.00    +0.000 A 
ATOM     10  C   UNL     1       4.466   6.718  17.462  0.00  0.00    +0.000 C 
ATOM     11  N   UNL     1       5.652   5.813  17.475  0.00  0.00    +0.000 NA
ATOM     12  C   UNL     1       5.222   4.424  17.791  0.00  0.00    +0.000 C 
ATOM     13  C   UNL     1       4.658   4.291  19.230  0.00  0.00    +0.000 C 
ENDROOT
BRANCH   6  14
ATOM     14  C   UNL     1       0.319  10.393  18.998  0.00  0.00    +0.000 A 
ATOM     15  C   UNL     1       0.982  11.629  19.074  0.00  0.00    +0.000 A 
ATOM     16  C   UNL     1       0.372  12.811  18.647  0.00  0.00    +0.000 A 
ATOM     17  C   UNL     1      -0.917  12.782  18.118  0.00  0.00    +0.000 A 
ATOM     18  C   UNL     1      -1.607  11.573  18.023  0.00  0.00    +0.000 A 
ATOM     19  C   UNL     1      -2.993  11.513  17.453  0.00  0.00    +0.000 C 
ATOM     20  C   UNL     1      -0.980  10.394  18.457  0.00  0.00    +0.000 A 
ENDBRANCH   6  14
BRANCH  11  21
ATOM     21  C   UNL     1       6.415   5.915  16.206  0.00  0.00    +0.000 C 
ATOM     22  C   UNL     1       7.243   4.644  15.933  0.00  0.00    +0.000 C 
ATOM     23  C   UNL     1       5.501   6.122  14.986  0.00  0.00    +0.000 C 
ENDBRANCH  11  21
BRANCH   1  24
ATOM     24  C   UNL     1       2.634   4.605  21.626  0.00  0.00    +0.000 C 
BRANCH  24  25
ATOM     25  C   UNL     1       1.723   3.415  21.323  0.00  0.00    +0.000 C 
BRANCH  25  26
ATOM     26  C   UNL     1       0.551   3.742  20.396  0.00  0.00    +0.000 C 
BRANCH  26  27
ATOM     27  C   UNL     1       0.566   2.801  19.190  0.00  0.00    +0.000 C 
BRANCH  27  28
ATOM     28  C   UNL     1       1.222   3.442  17.968  0.00  0.00    +0.000 C 
BRANCH  28  29
ATOM     29  C   UNL     1       2.360   2.563  17.443  0.00  0.00    +0.000 C 
BRANCH  29  31
ATOM     30  C   UNL     1       4.125   0.973  18.274  0.00  0.00    +0.000 C 
ATOM     31  C   UNL     1       2.681   1.429  18.413  0.00  0.00    +0.000 C 
ENDBRANCH  29  31
ENDBRANCH  28  29
ENDBRANCH  27  28
ENDBRANCH  26  27
ENDBRANCH  25  26
ENDBRANCH  24  25
ENDBRANCH   1  24
TORSDOF 9
ENDMDL
MODEL 9
REMARK VINA RESULT:      -7.1      3.810     10.063
REMARK  Name = 
REMARK  13 active torsions:
REMARK  status: ('A' for Active; 'I' for Inactive)
REMARK    1  A    between atoms: C_1  and  C_2
REMARK    2  A    between atoms: C_2  and  C_3
REMARK    3  A    between atoms: C_3  and  C_4
REMARK    4  A    between atoms: C_4  and  C_5
REMARK    5  A    between atoms: C_5  and  C_6
REMARK    6  A    between atoms: C_6  and  C_7
REMARK    7  A    between atoms: C_7  and  C_8
REMARK    8  A    between atoms: C_8  and  N_9
REMARK    9  A    between atoms: C_14  and  C_15
REMARK   10  A    between atoms: C_19  and  C_20
REMARK   11  A    between atoms: N_26  and  C_27
REMARK   12  A    between atoms: C_27  and  C_28
REMARK   13  A    between atoms: C_27  and  C_29
REMARK                            x       y       z     vdW  Elec       q    Type
REMARK                         _______ _______ _______ _____ _____    ______ ____
ROOT
ATOM      1  N   UNL     1      -0.295  12.738  18.964  0.00  0.00    +0.000 N 
ATOM      2  C   UNL     1       0.754  13.617  18.878  0.00  0.00    +0.000 A 
ATOM      3  C   UNL     1       1.882  12.927  18.493  0.00  0.00    +0.000 A 
ATOM      4  C   UNL     1       1.532  11.555  18.426  0.00  0.00    +0.000 A 
ATOM      5  C   UNL     1       2.264  10.382  18.141  0.00  0.00    +0.000 A 
ATOM      6  C   UNL     1       1.661   9.112  18.192  0.00  0.00    +0.000 A 
ATOM      7  C   UNL     1       0.294   9.058  18.502  0.00  0.00    +0.000 A 
ATOM      8  C   UNL     1      -0.470  10.206  18.761  0.00  0.00    +0.000 A 
ATOM      9  C   UNL     1       0.172  11.452  18.730  0.00  0.00    +0.000 A 
ATOM     10  C   UNL     1       3.214  13.572  18.266  0.00  0.00    +0.000 C 
ATOM     11  N   UNL     1       3.070  15.046  18.090  0.00  0.00    +0.000 NA
ATOM     12  C   UNL     1       2.211  15.600  19.171  0.00  0.00    +0.000 C 
ATOM     13  C   UNL     1       0.749  15.088  19.088  0.00  0.00    +0.000 C 
ENDROOT
BRANCH   6  14
ATOM     14  C   UNL     1       2.451   7.882  17.954  0.00  0.00    +0.000 A 
ATOM     15  C   UNL     1       3.732   7.929  17.379  0.00  0.00    +0.000 A 
ATOM     16  C   UNL     1       4.461   6.764  17.127  0.00  0.00    +0.000 A 
ATOM     17  C   UNL     1       3.930   5.519  17.459  0.00  0.00    +0.000 A 
ATOM     18  C   UNL     1       2.662   5.432  18.034  0.00  0.00    +0.000 A 
ATOM     19  C   UNL     1       2.068   4.105  18.404  0.00  0.00    +0.000 C 
ATOM     20  C   UNL     1       1.941   6.611  18.281  0.00  0.00    +0.000 A 
ENDBRANCH   6  14
BRANCH  11  21
ATOM     21  C   UNL     1       4.396  15.706  18.000  0.00  0.00    +0.000 C 
ATOM     22  C   UNL     1       4.671  16.605  19.221  0.00  0.00    +0.000 C 
ATOM     23  C   UNL     1       5.552  14.694  17.923  0.00  0.00    +0.000 C 
ENDBRANCH  11  21
BRANCH   1  24
ATOM     24  C   UNL     1      -1.668  13.076  19.302  0.00  0.00    +0.000 C 
BRANCH  24  25
ATOM     25  C   UNL     1      -2.080  12.799  20.748  0.00  0.00    +0.000 C 
BRANCH  25  26
ATOM     26  C   UNL     1      -1.223  13.516  21.793  0.00  0.00    +0.000 C 
BRANCH  26  27
ATOM     27  C   UNL     1      -0.999  12.600  22.997  0.00  0.00    +0.000 C 
BRANCH  27  28
ATOM     28  C   UNL     1      -1.617  11.218  22.793  0.00  0.00    +0.000 C 
BRANCH  28  29
ATOM     29  C   UNL     1      -0.600  10.120  23.110  0.00  0.00    +0.000 C 
BRANCH  29  31
ATOM     30  C   UNL     1       1.194   8.812  21.926  0.00  0.00    +0.000 C 
ATOM     31  C   UNL     1       0.607  10.191  22.179  0.00  0.00    +0.000 C 
ENDBRANCH  29  31
ENDBRANCH  28  29
ENDBRANCH  27  28
ENDBRANCH  26  27
ENDBRANCH  25  26
ENDBRANCH  24  25
ENDBRANCH   1  24
TORSDOF 9
ENDMDL
