MODEL 1
REMARK VINA RESULT:      -7.5      0.000      0.000
REMARK  Name = 
REMARK  13 active torsions:
REMARK  status: ('A' for Active; 'I' for Inactive)
REMARK    1  A    between atoms: C_1  and  C_2
REMARK    2  A    between atoms: C_2  and  C_3
REMARK    3  A    between atoms: C_3  and  C_4
REMARK    4  A    between atoms: C_4  and  N_5
REMARK    5  A    between atoms: N_9  and  C_10
REMARK    6  A    between atoms: C_13  and  C_14
REMARK    7  A    between atoms: C_19  and  C_20
REMARK    8  A    between atoms: C_23  and  O_24
REMARK    9  A    between atoms: O_24  and  C_25
REMARK   10  A    between atoms: C_25  and  C_26
REMARK   11  A    between atoms: C_25  and  C_27
REMARK   12  A    between atoms: C_28  and  O_29
REMARK   13  A    between atoms: O_29  and  C_30
REMARK                            x       y       z     vdW  Elec       q    Type
REMARK                         _______ _______ _______ _____ _____    ______ ____
ROOT
ATOM      1  N   UNL     1       2.684   3.750  18.277  0.00  0.00    +0.000 N 
ATOM      2  C   UNL     1       1.632   4.484  17.740  0.00  0.00    +0.000 C 
ATOM      3  O   UNL     1       0.672   3.980  17.165  0.00  0.00    +0.000 OA
ATOM      4  C   UNL     1       1.825   5.996  17.815  0.00  0.00    +0.000 C 
ATOM      5  N   UNL     1       2.553   6.373  19.032  0.00  0.00    +0.000 N 
ATOM      6  C   UNL     1       3.772   5.736  19.289  0.00  0.00    +0.000 C 
ATOM      7  O   UNL     1       4.636   6.208  20.026  0.00  0.00    +0.000 OA
ATOM      8  C   UNL     1       3.983   4.403  18.530  0.00  0.00    +0.000 C 
ENDROOT
BRANCH   5   9
ATOM      9  C   UNL     1       2.257   7.654  19.683  0.00  0.00    +0.000 C 
ATOM     10  C   UNL     1       1.358   7.458  20.915  0.00  0.00    +0.000 C 
ATOM     11  C   UNL     1       0.977   8.787  21.561  0.00  0.00    +0.000 C 
ATOM     12  C   UNL     1       0.342   9.739  20.539  0.00  0.00    +0.000 C 
ATOM     13  C   UNL     1      -0.053  11.057  21.204  0.00  0.00    +0.000 C 
ATOM     14  C   UNL     1       1.301   9.983  19.370  0.00  0.00    +0.000 C 
ATOM     15  C   UNL     1       1.686   8.674  18.687  0.00  0.00    +0.000 C 
ENDBRANCH   5   9
BRANCH   8  16
ATOM     16  C   UNL     1       4.875   4.537  17.304  0.00  0.00    +0.000 A 
ATOM     17  C   UNL     1       4.799   3.673  16.210  0.00  0.00    +0.000 A 
ATOM     18  C   UNL     1       5.709   3.771  15.158  0.00  0.00    +0.000 A 
ATOM     19  C   UNL     1       6.764   4.689  15.193  0.00  0.00    +0.000 A 
ATOM     20  C   UNL     1       6.797   5.633  16.228  0.00  0.00    +0.000 A 
ATOM     21  C   UNL     1       5.863   5.539  17.275  0.00  0.00    +0.000 A 
BRANCH  20  22
ATOM     22  O   UNL     1       7.706   6.643  16.407  0.00  0.00    +0.000 OA
ATOM     23  C   UNL     1       7.439   7.573  17.452  0.00  0.00    +0.000 C 
ENDBRANCH  20  22
BRANCH  19  24
ATOM     24  O   UNL     1       7.761   4.681  14.253  0.00  0.00    +0.000 OA
BRANCH  24  25
ATOM     25  C   UNL     1       7.411   5.137  12.935  0.00  0.00    +0.000 C 
ATOM     26  C   UNL     1       8.528   6.044  12.432  0.00  0.00    +0.000 C 
ATOM     27  C   UNL     1       7.234   3.925  12.030  0.00  0.00    +0.000 C 
ENDBRANCH  24  25
ENDBRANCH  19  24
ENDBRANCH   8  16
BRANCH   1  28
ATOM     28  C   UNL     1       2.547   2.314  18.482  0.00  0.00    +0.000 C 
BRANCH  28  29
ATOM     29  C   UNL     1       1.357   1.968  19.383  0.00  0.00    +0.000 C 
BRANCH  29  31
ATOM     30  C   UNL     1       2.546   2.689  21.487  0.00  0.00    +0.000 C 
ATOM     31  C   UNL     1       1.290   2.837  20.644  0.00  0.00    +0.000 C 
ENDBRANCH  29  31
ENDBRANCH  28  29
ENDBRANCH   1  28
TORSDOF 8
ENDMDL
MODEL 2
REMARK VINA RESULT:      -6.9      6.093      9.997
REMARK  Name = 
REMARK  13 active torsions:
REMARK  status: ('A' for Active; 'I' for Inactive)
REMARK    1  A    between atoms: C_1  and  C_2
REMARK    2  A    between atoms: C_2  and  C_3
REMARK    3  A    between atoms: C_3  and  C_4
REMARK    4  A    between atoms: C_4  and  N_5
REMARK    5  A    between atoms: N_9  and  C_10
REMARK    6  A    between atoms: C_13  and  C_14
REMARK    7  A    between atoms: C_19  and  C_20
REMARK    8  A    between atoms: C_23  and  O_24
REMARK    9  A    between atoms: O_24  and  C_25
REMARK   10  A    between atoms: C_25  and  C_26
REMARK   11  A    between atoms: C_25  and  C_27
REMARK   12  A    between atoms: C_28  and  O_29
REMARK   13  A    between atoms: O_29  and  C_30
REMARK                            x       y       z     vdW  Elec       q    Type
REMARK                         _______ _______ _______ _____ _____    ______ ____
ROOT
ATOM      1  N   UNL     1      -0.172  11.053  21.398  0.00  0.00    +0.000 N 
ATOM      2  C   UNL     1      -0.052  12.344  21.901  0.00  0.00    +0.000 C 
ATOM      3  O   UNL     1      -0.469  12.687  23.003  0.00  0.00    +0.000 OA
ATOM      4  C   UNL     1       0.538  13.345  20.913  0.00  0.00    +0.000 C 
ATOM      5  N   UNL     1       1.535  12.705  20.048  0.00  0.00    +0.000 N 
ATOM      6  C   UNL     1       1.158  11.545  19.363  0.00  0.00    +0.000 C 
ATOM      7  O   UNL     1       1.732  11.143  18.352  0.00  0.00    +0.000 OA
ATOM      8  C   UNL     1      -0.080  10.819  19.943  0.00  0.00    +0.000 C 
ENDROOT
BRANCH   5   9
ATOM      9  C   UNL     1       2.684  13.484  19.571  0.00  0.00    +0.000 C 
ATOM     10  C   UNL     1       3.467  14.096  20.744  0.00  0.00    +0.000 C 
ATOM     11  C   UNL     1       4.621  14.971  20.266  0.00  0.00    +0.000 C 
ATOM     12  C   UNL     1       4.134  16.045  19.284  0.00  0.00    +0.000 C 
ATOM     13  C   UNL     1       5.296  16.927  18.830  0.00  0.00    +0.000 C 
ATOM     14  C   UNL     1       3.439  15.395  18.084  0.00  0.00    +0.000 C 
ATOM     15  C   UNL     1       2.264  14.528  18.527  0.00  0.00    +0.000 C 
ENDBRANCH   5   9
BRANCH   8  16
ATOM     16  C   UNL     1      -1.363  11.098  19.173  0.00  0.00    +0.000 A 
ATOM     17  C   UNL     1      -2.329  12.007  19.609  0.00  0.00    +0.000 A 
ATOM     18  C   UNL     1      -3.536  12.149  18.925  0.00  0.00    +0.000 A 
ATOM     19  C   UNL     1      -3.847  11.343  17.825  0.00  0.00    +0.000 A 
ATOM     20  C   UNL     1      -2.853  10.500  17.309  0.00  0.00    +0.000 A 
ATOM     21  C   UNL     1      -1.631  10.378  17.994  0.00  0.00    +0.000 A 
BRANCH  20  22
ATOM     22  O   UNL     1      -2.939   9.682  16.212  0.00  0.00    +0.000 OA
ATOM     23  C   UNL     1      -2.901  10.311  14.935  0.00  0.00    +0.000 C 
ENDBRANCH  20  22
BRANCH  19  24
ATOM     24  O   UNL     1      -5.091  11.351  17.251  0.00  0.00    +0.000 OA
BRANCH  24  25
ATOM     25  C   UNL     1      -6.161  11.905  18.035  0.00  0.00    +0.000 C 
ATOM     26  C   UNL     1      -6.996  12.808  17.133  0.00  0.00    +0.000 C 
ATOM     27  C   UNL     1      -6.997  10.763  18.597  0.00  0.00    +0.000 C 
ENDBRANCH  24  25
ENDBRANCH  19  24
ENDBRANCH   8  16
BRANCH   1  28
ATOM     28  C   UNL     1      -0.505   9.947  22.286  0.00  0.00    +0.000 C 
BRANCH  28  29
ATOM     29  C   UNL     1      -0.173   8.586  21.665  0.00  0.00    +0.000 C 
BRANCH  29  31
ATOM     30  C   UNL     1       1.775   7.736  20.308  0.00  0.00    +0.000 C 
ATOM     31  C   UNL     1       1.331   8.285  21.653  0.00  0.00    +0.000 C 
ENDBRANCH  29  31
ENDBRANCH  28  29
ENDBRANCH   1  28
TORSDOF 8
ENDMDL
MODEL 3
REMARK VINA RESULT:      -6.8      5.265      9.582
REMARK  Name = 
REMARK  13 active torsions:
REMARK  status: ('A' for Active; 'I' for Inactive)
REMARK    1  A    between atoms: C_1  and  C_2
REMARK    2  A    between atoms: C_2  and  C_3
REMARK    3  A    between atoms: C_3  and  C_4
REMARK    4  A    between atoms: C_4  and  N_5
REMARK    5  A    between atoms: N_9  and  C_10
REMARK    6  A    between atoms: C_13  and  C_14
REMARK    7  A    between atoms: C_19  and  C_20
REMARK    8  A    between atoms: C_23  and  O_24
REMARK    9  A    between atoms: O_24  and  C_25
REMARK   10  A    between atoms: C_25  and  C_26
REMARK   11  A    between atoms: C_25  and  C_27
REMARK   12  A    between atoms: C_28  and  O_29
REMARK   13  A    between atoms: O_29  and  C_30
REMARK                            x       y       z     vdW  Elec       q    Type
REMARK                         _______ _______ _______ _____ _____    ______ ____
ROOT
ATOM      1  N   UNL     1       0.380  10.189  20.680  0.00  0.00    +0.000 N 
ATOM      2  C   UNL     1       0.300  11.198  21.632  0.00  0.00    +0.000 C 
ATOM      3  O   UNL     1      -0.072  11.017  22.788  0.00  0.00    +0.000 OA
ATOM      4  C   UNL     1       0.598  12.592  21.089  0.00  0.00    +0.000 C 
ATOM      5  N   UNL     1       1.615  12.539  20.033  0.00  0.00    +0.000 N 
ATOM      6  C   UNL     1       1.404  11.660  18.965  0.00  0.00    +0.000 C 
ATOM      7  O   UNL     1       1.949  11.787  17.870  0.00  0.00    +0.000 OA
ATOM      8  C   UNL     1       0.382  10.530  19.244  0.00  0.00    +0.000 C 
ENDROOT
BRANCH   5   9
ATOM      9  C   UNL     1       2.549  13.659  19.872  0.00  0.00    +0.000 C 
ATOM     10  C   UNL     1       3.332  13.922  21.168  0.00  0.00    +0.000 C 
ATOM     11  C   UNL     1       4.254  15.132  21.043  0.00  0.00    +0.000 C 
ATOM     12  C   UNL     1       3.479  16.374  20.584  0.00  0.00    +0.000 C 
ATOM     13  C   UNL     1       4.410  17.582  20.483  0.00  0.00    +0.000 C 
ATOM     14  C   UNL     1       2.785  16.106  19.245  0.00  0.00    +0.000 C 
ATOM     15  C   UNL     1       1.839  14.913  19.342  0.00  0.00    +0.000 C 
ENDBRANCH   5   9
BRANCH   8  16
ATOM     16  C   UNL     1      -0.995  10.797  18.653  0.00  0.00    +0.000 A 
ATOM     17  C   UNL     1      -1.924  11.653  19.248  0.00  0.00    +0.000 A 
ATOM     18  C   UNL     1      -3.211  11.783  18.727  0.00  0.00    +0.000 A 
ATOM     19  C   UNL     1      -3.634  11.015  17.637  0.00  0.00    +0.000 A 
ATOM     20  C   UNL     1      -2.690  10.230  16.963  0.00  0.00    +0.000 A 
ATOM     21  C   UNL     1      -1.389  10.121  17.484  0.00  0.00    +0.000 A 
BRANCH  20  22
ATOM     22  O   UNL     1      -2.890   9.458  15.848  0.00  0.00    +0.000 OA
ATOM     23  C   UNL     1      -2.979  10.138  14.600  0.00  0.00    +0.000 C 
ENDBRANCH  20  22
BRANCH  19  24
ATOM     24  O   UNL     1      -4.941  11.005  17.224  0.00  0.00    +0.000 OA
BRANCH  24  25
ATOM     25  C   UNL     1      -5.897  11.644  18.086  0.00  0.00    +0.000 C 
ATOM     26  C   UNL     1      -6.683  12.657  17.261  0.00  0.00    +0.000 C 
ATOM     27  C   UNL     1      -6.815  10.579  18.672  0.00  0.00    +0.000 C 
ENDBRANCH  24  25
ENDBRANCH  19  24
ENDBRANCH   8  16
BRANCH   1  28
ATOM     28  C   UNL     1       0.344   8.790  21.088  0.00  0.00    +0.000 C 
BRANCH  28  29
ATOM     29  C   UNL     1       1.573   8.013  20.602  0.00  0.00    +0.000 C 
BRANCH  29  31
ATOM     30  C   UNL     1       2.359   5.741  19.842  0.00  0.00    +0.000 C 
ATOM     31  C   UNL     1       1.428   6.497  20.775  0.00  0.00    +0.000 C 
ENDBRANCH  29  31
ENDBRANCH  28  29
ENDBRANCH   1  28
TORSDOF 8
ENDMDL
MODEL 4
REMARK VINA RESULT:      -6.7      4.372      8.706
REMARK  Name = 
REMARK  13 active torsions:
REMARK  status: ('A' for Active; 'I' for Inactive)
REMARK    1  A    between atoms: C_1  and  C_2
REMARK    2  A    between atoms: C_2  and  C_3
REMARK    3  A    between atoms: C_3  and  C_4
REMARK    4  A    between atoms: C_4  and  N_5
REMARK    5  A    between atoms: N_9  and  C_10
REMARK    6  A    between atoms: C_13  and  C_14
REMARK    7  A    between atoms: C_19  and  C_20
REMARK    8  A    between atoms: C_23  and  O_24
REMARK    9  A    between atoms: O_24  and  C_25
REMARK   10  A    between atoms: C_25  and  C_26
REMARK   11  A    between atoms: C_25  and  C_27
REMARK   12  A    between atoms: C_28  and  O_29
REMARK   13  A    between atoms: O_29  and  C_30
REMARK                            x       y       z     vdW  Elec       q    Type
REMARK                         _______ _______ _______ _____ _____    ______ ____
ROOT
ATOM      1  N   UNL     1      -0.438  10.586  19.500  0.00  0.00    +0.000 N 
ATOM      2  C   UNL     1      -0.221   9.939  20.711  0.00  0.00    +0.000 C 
ATOM      3  O   UNL     1      -0.985  10.011  21.670  0.00  0.00    +0.000 OA
ATOM      4  C   UNL     1       1.122   9.220  20.801  0.00  0.00    +0.000 C 
ATOM      5  N   UNL     1       1.514   8.674  19.497  0.00  0.00    +0.000 N 
ATOM      6  C   UNL     1       1.526   9.544  18.401  0.00  0.00    +0.000 C 
ATOM      7  O   UNL     1       2.177   9.332  17.379  0.00  0.00    +0.000 OA
ATOM      8  C   UNL     1       0.693  10.836  18.586  0.00  0.00    +0.000 C 
ENDROOT
BRANCH   5   9
ATOM      9  C   UNL     1       2.287   7.428  19.437  0.00  0.00    +0.000 C 
ATOM     10  C   UNL     1       2.267   6.827  18.022  0.00  0.00    +0.000 C 
ATOM     11  C   UNL     1       3.002   5.492  17.958  0.00  0.00    +0.000 C 
ATOM     12  C   UNL     1       2.457   4.508  19.002  0.00  0.00    +0.000 C 
ATOM     13  C   UNL     1       3.187   3.169  18.913  0.00  0.00    +0.000 C 
ATOM     14  C   UNL     1       2.575   5.103  20.409  0.00  0.00    +0.000 C 
ATOM     15  C   UNL     1       1.832   6.431  20.513  0.00  0.00    +0.000 C 
ENDBRANCH   5   9
BRANCH   8  16
ATOM     16  C   UNL     1       1.534  12.056  18.936  0.00  0.00    +0.000 A 
ATOM     17  C   UNL     1       2.500  12.586  18.079  0.00  0.00    +0.000 A 
ATOM     18  C   UNL     1       3.318  13.638  18.488  0.00  0.00    +0.000 A 
ATOM     19  C   UNL     1       3.246  14.151  19.788  0.00  0.00    +0.000 A 
ATOM     20  C   UNL     1       2.217  13.707  20.628  0.00  0.00    +0.000 A 
ATOM     21  C   UNL     1       1.383  12.659  20.199  0.00  0.00    +0.000 A 
BRANCH  20  22
ATOM     22  O   UNL     1       1.942  14.125  21.904  0.00  0.00    +0.000 OA
ATOM     23  C   UNL     1       0.680  14.748  22.120  0.00  0.00    +0.000 C 
ENDBRANCH  20  22
BRANCH  19  24
ATOM     24  O   UNL     1       4.155  15.063  20.256  0.00  0.00    +0.000 OA
BRANCH  24  25
ATOM     25  C   UNL     1       5.290  15.335  19.417  0.00  0.00    +0.000 C 
ATOM     26  C   UNL     1       5.230  16.798  18.992  0.00  0.00    +0.000 C 
ATOM     27  C   UNL     1       6.561  15.040  20.203  0.00  0.00    +0.000 C 
ENDBRANCH  24  25
ENDBRANCH  19  24
ENDBRANCH   8  16
BRANCH   1  28
ATOM     28  C   UNL     1      -1.755  11.122  19.180  0.00  0.00    +0.000 C 
BRANCH  28  29
ATOM     29  C   UNL     1      -1.958  11.297  17.671  0.00  0.00    +0.000 C 
BRANCH  29  31
ATOM     30  C   UNL     1      -2.837  10.259  15.548  0.00  0.00    +0.000 C 
ATOM     31  C   UNL     1      -2.362   9.997  16.968  0.00  0.00    +0.000 C 
ENDBRANCH  29  31
ENDBRANCH  28  29
ENDBRANCH   1  28
TORSDOF 8
ENDMDL
MODEL 5
REMARK VINA RESULT:      -6.6      4.155      8.437
REMARK  Name = 
REMARK  13 active torsions:
REMARK  status: ('A' for Active; 'I' for Inactive)
REMARK    1  A    between atoms: C_1  and  C_2
REMARK    2  A    between atoms: C_2  and  C_3
REMARK    3  A    between atoms: C_3  and  C_4
REMARK    4  A    between atoms: C_4  and  N_5
REMARK    5  A    between atoms: N_9  and  C_10
REMARK    6  A    between atoms: C_13  and  C_14
REMARK    7  A    between atoms: C_19  and  C_20
REMARK    8  A    between atoms: C_23  and  O_24
REMARK    9  A    between atoms: O_24  and  C_25
REMARK   10  A    between atoms: C_25  and  C_26
REMARK   11  A    between atoms: C_25  and  C_27
REMARK   12  A    between atoms: C_28  and  O_29
REMARK   13  A    between atoms: O_29  and  C_30
REMARK                            x       y       z     vdW  Elec       q    Type
REMARK                         _______ _______ _______ _____ _____    ______ ____
ROOT
ATOM      1  N   UNL     1       1.749  12.797  19.219  0.00  0.00    +0.000 N 
ATOM      2  C   UNL     1       1.704  13.079  20.579  0.00  0.00    +0.000 C 
ATOM      3  O   UNL     1       2.614  13.630  21.192  0.00  0.00    +0.000 OA
ATOM      4  C   UNL     1       0.467  12.536  21.288  0.00  0.00    +0.000 C 
ATOM      5  N   UNL     1      -0.703  12.568  20.403  0.00  0.00    +0.000 N 
ATOM      6  C   UNL     1      -0.588  11.969  19.144  0.00  0.00    +0.000 C 
ATOM      7  O   UNL     1      -1.556  11.594  18.485  0.00  0.00    +0.000 OA
ATOM      8  C   UNL     1       0.865  11.758  18.653  0.00  0.00    +0.000 C 
ENDROOT
BRANCH   5   9
ATOM      9  C   UNL     1      -2.035  12.797  20.974  0.00  0.00    +0.000 C 
ATOM     10  C   UNL     1      -2.407  14.288  20.941  0.00  0.00    +0.000 C 
ATOM     11  C   UNL     1      -3.757  14.556  21.599  0.00  0.00    +0.000 C 
ATOM     12  C   UNL     1      -3.801  13.990  23.025  0.00  0.00    +0.000 C 
ATOM     13  C   UNL     1      -5.150  14.283  23.680  0.00  0.00    +0.000 C 
ATOM     14  C   UNL     1      -3.515  12.485  23.011  0.00  0.00    +0.000 C 
ATOM     15  C   UNL     1      -2.160  12.185  22.377  0.00  0.00    +0.000 C 
ENDBRANCH   5   9
BRANCH   8  16
ATOM     16  C   UNL     1       1.367  10.332  18.833  0.00  0.00    +0.000 A 
ATOM     17  C   UNL     1       2.013   9.620  17.821  0.00  0.00    +0.000 A 
ATOM     18  C   UNL     1       2.357   8.280  17.999  0.00  0.00    +0.000 A 
ATOM     19  C   UNL     1       2.011   7.590  19.165  0.00  0.00    +0.000 A 
ATOM     20  C   UNL     1       1.457   8.310  20.232  0.00  0.00    +0.000 A 
ATOM     21  C   UNL     1       1.132   9.666  20.050  0.00  0.00    +0.000 A 
BRANCH  20  22
ATOM     22  O   UNL     1       1.107   7.833  21.469  0.00  0.00    +0.000 OA
ATOM     23  C   UNL     1       0.471   8.748  22.355  0.00  0.00    +0.000 C 
ENDBRANCH  20  22
BRANCH  19  24
ATOM     24  O   UNL     1       2.189   6.236  19.284  0.00  0.00    +0.000 OA
BRANCH  24  25
ATOM     25  C   UNL     1       2.688   5.545  18.126  0.00  0.00    +0.000 C 
ATOM     26  C   UNL     1       4.050   4.955  18.472  0.00  0.00    +0.000 C 
ATOM     27  C   UNL     1       1.695   4.456  17.743  0.00  0.00    +0.000 C 
ENDBRANCH  24  25
ENDBRANCH  19  24
ENDBRANCH   8  16
BRANCH   1  28
ATOM     28  C   UNL     1       2.745  13.436  18.369  0.00  0.00    +0.000 C 
BRANCH  28  29
ATOM     29  C   UNL     1       2.486  14.937  18.202  0.00  0.00    +0.000 C 
BRANCH  29  31
ATOM     30  C   UNL     1       4.977  14.990  17.811  0.00  0.00    +0.000 C 
ATOM     31  C   UNL     1       3.649  15.673  17.527  0.00  0.00    +0.000 C 
ENDBRANCH  29  31
ENDBRANCH  28  29
ENDBRANCH   1  28
TORSDOF 8
ENDMDL
MODEL 6
REMARK VINA RESULT:      -6.6      0.805      1.296
REMARK  Name = 
REMARK  13 active torsions:
REMARK  status: ('A' for Active; 'I' for Inactive)
REMARK    1  A    between atoms: C_1  and  C_2
REMARK    2  A    between atoms: C_2  and  C_3
REMARK    3  A    between atoms: C_3  and  C_4
REMARK    4  A    between atoms: C_4  and  N_5
REMARK    5  A    between atoms: N_9  and  C_10
REMARK    6  A    between atoms: C_13  and  C_14
REMARK    7  A    between atoms: C_19  and  C_20
REMARK    8  A    between atoms: C_23  and  O_24
REMARK    9  A    between atoms: O_24  and  C_25
REMARK   10  A    between atoms: C_25  and  C_26
REMARK   11  A    between atoms: C_25  and  C_27
REMARK   12  A    between atoms: C_28  and  O_29
REMARK   13  A    between atoms: O_29  and  C_30
REMARK                            x       y       z     vdW  Elec       q    Type
REMARK                         _______ _______ _______ _____ _____    ______ ____
ROOT
ATOM      1  N   UNL     1       3.368   3.330  18.737  0.00  0.00    +0.000 N 
ATOM      2  C   UNL     1       2.136   3.460  18.107  0.00  0.00    +0.000 C 
ATOM      3  O   UNL     1       1.453   2.508  17.742  0.00  0.00    +0.000 OA
ATOM      4  C   UNL     1       1.748   4.901  17.789  0.00  0.00    +0.000 C 
ATOM      5  N   UNL     1       2.243   5.819  18.822  0.00  0.00    +0.000 N 
ATOM      6  C   UNL     1       3.603   5.765  19.147  0.00  0.00    +0.000 C 
ATOM      7  O   UNL     1       4.204   6.694  19.683  0.00  0.00    +0.000 OA
ATOM      8  C   UNL     1       4.321   4.458  18.732  0.00  0.00    +0.000 C 
ENDROOT
BRANCH   5   9
ATOM      9  C   UNL     1       1.469   7.021  19.151  0.00  0.00    +0.000 C 
ATOM     10  C   UNL     1       1.922   8.224  18.308  0.00  0.00    +0.000 C 
ATOM     11  C   UNL     1       1.180   9.501  18.689  0.00  0.00    +0.000 C 
ATOM     12  C   UNL     1       1.299   9.784  20.193  0.00  0.00    +0.000 C 
ATOM     13  C   UNL     1       0.570  11.076  20.558  0.00  0.00    +0.000 C 
ATOM     14  C   UNL     1       0.756   8.602  21.002  0.00  0.00    +0.000 C 
ATOM     15  C   UNL     1       1.492   7.311  20.659  0.00  0.00    +0.000 C 
ENDBRANCH   5   9
BRANCH   8  16
ATOM     16  C   UNL     1       5.137   4.592  17.453  0.00  0.00    +0.000 A 
ATOM     17  C   UNL     1       5.030   3.699  16.386  0.00  0.00    +0.000 A 
ATOM     18  C   UNL     1       5.875   3.803  15.281  0.00  0.00    +0.000 A 
ATOM     19  C   UNL     1       6.896   4.758  15.235  0.00  0.00    +0.000 A 
ATOM     20  C   UNL     1       6.954   5.727  16.245  0.00  0.00    +0.000 A 
ATOM     21  C   UNL     1       6.084   5.627  17.345  0.00  0.00    +0.000 A 
BRANCH  20  22
ATOM     22  O   UNL     1       7.834   6.773  16.348  0.00  0.00    +0.000 OA
ATOM     23  C   UNL     1       7.680   7.637  17.469  0.00  0.00    +0.000 C 
ENDBRANCH  20  22
BRANCH  19  24
ATOM     24  O   UNL     1       7.838   4.761  14.239  0.00  0.00    +0.000 OA
BRANCH  24  25
ATOM     25  C   UNL     1       7.397   5.170  12.934  0.00  0.00    +0.000 C 
ATOM     26  C   UNL     1       8.477   6.054  12.320  0.00  0.00    +0.000 C 
ATOM     27  C   UNL     1       7.156   3.926  12.088  0.00  0.00    +0.000 C 
ENDBRANCH  24  25
ENDBRANCH  19  24
ENDBRANCH   8  16
BRANCH   1  28
ATOM     28  C   UNL     1       3.772   2.049  19.302  0.00  0.00    +0.000 C 
BRANCH  28  29
ATOM     29  C   UNL     1       3.753   2.060  20.835  0.00  0.00    +0.000 C 
BRANCH  29  31
ATOM     30  C   UNL     1       2.178   3.773  21.807  0.00  0.00    +0.000 C 
ATOM     31  C   UNL     1       2.356   2.316  21.414  0.00  0.00    +0.000 C 
ENDBRANCH  29  31
ENDBRANCH  28  29
ENDBRANCH   1  28
TORSDOF 8
ENDMDL
MODEL 7
REMARK VINA RESULT:      -6.5      4.347      9.946
REMARK  Name = 
REMARK  13 active torsions:
REMARK  status: ('A' for Active; 'I' for Inactive)
REMARK    1  A    between atoms: C_1  and  C_2
REMARK    2  A    between atoms: C_2  and  C_3
REMARK    3  A    between atoms: C_3  and  C_4
REMARK    4  A    between atoms: C_4  and  N_5
REMARK    5  A    between atoms: N_9  and  C_10
REMARK    6  A    between atoms: C_13  and  C_14
REMARK    7  A    between atoms: C_19  and  C_20
REMARK    8  A    between atoms: C_23  and  O_24
REMARK    9  A    between atoms: O_24  and  C_25
REMARK   10  A    between atoms: C_25  and  C_26
REMARK   11  A    between atoms: C_25  and  C_27
REMARK   12  A    between atoms: C_28  and  O_29
REMARK   13  A    between atoms: O_29  and  C_30
REMARK                            x       y       z     vdW  Elec       q    Type
REMARK                         _______ _______ _______ _____ _____    ______ ____
ROOT
ATOM      1  N   UNL     1       1.202  11.691  19.601  0.00  0.00    +0.000 N 
ATOM      2  C   UNL     1       1.928  11.417  18.448  0.00  0.00    +0.000 C 
ATOM      3  O   UNL     1       2.603  12.252  17.853  0.00  0.00    +0.000 OA
ATOM      4  C   UNL     1       1.721  10.008  17.900  0.00  0.00    +0.000 C 
ATOM      5  N   UNL     1       1.516   9.046  18.989  0.00  0.00    +0.000 N 
ATOM      6  C   UNL     1       0.523   9.328  19.933  0.00  0.00    +0.000 C 
ATOM      7  O   UNL     1       0.000   8.467  20.639  0.00  0.00    +0.000 OA
ATOM      8  C   UNL     1       0.082  10.811  19.992  0.00  0.00    +0.000 C 
ENDROOT
BRANCH   5   9
ATOM      9  C   UNL     1       1.995   7.668  18.835  0.00  0.00    +0.000 C 
ATOM     10  C   UNL     1       2.287   7.024  20.200  0.00  0.00    +0.000 C 
ATOM     11  C   UNL     1       2.857   5.616  20.057  0.00  0.00    +0.000 C 
ATOM     12  C   UNL     1       4.093   5.607  19.146  0.00  0.00    +0.000 C 
ATOM     13  C   UNL     1       4.666   4.195  19.029  0.00  0.00    +0.000 C 
ATOM     14  C   UNL     1       3.743   6.172  17.766  0.00  0.00    +0.000 C 
ATOM     15  C   UNL     1       3.188   7.589  17.872  0.00  0.00    +0.000 C 
ENDBRANCH   5   9
BRANCH   8  16
ATOM     16  C   UNL     1      -1.225  11.086  19.261  0.00  0.00    +0.000 A 
ATOM     17  C   UNL     1      -2.177  11.996  19.723  0.00  0.00    +0.000 A 
ATOM     18  C   UNL     1      -3.405  12.134  19.076  0.00  0.00    +0.000 A 
ATOM     19  C   UNL     1      -3.749  11.324  17.989  0.00  0.00    +0.000 A 
ATOM     20  C   UNL     1      -2.771  10.480  17.446  0.00  0.00    +0.000 A 
ATOM     21  C   UNL     1      -1.529  10.362  18.093  0.00  0.00    +0.000 A 
BRANCH  20  22
ATOM     22  O   UNL     1      -2.891   9.658  16.356  0.00  0.00    +0.000 OA
ATOM     23  C   UNL     1      -2.820  10.273  15.074  0.00  0.00    +0.000 C 
ENDBRANCH  20  22
BRANCH  19  24
ATOM     24  O   UNL     1      -5.011  11.329  17.455  0.00  0.00    +0.000 OA
BRANCH  24  25
ATOM     25  C   UNL     1      -6.082  11.726  18.327  0.00  0.00    +0.000 C 
ATOM     26  C   UNL     1      -7.018  12.643  17.549  0.00  0.00    +0.000 C 
ATOM     27  C   UNL     1      -6.808  10.476  18.809  0.00  0.00    +0.000 C 
ENDBRANCH  24  25
ENDBRANCH  19  24
ENDBRANCH   8  16
BRANCH   1  28
ATOM     28  C   UNL     1       1.464  12.905  20.362  0.00  0.00    +0.000 C 
BRANCH  28  29
ATOM     29  C   UNL     1       0.522  13.050  21.563  0.00  0.00    +0.000 C 
BRANCH  29  31
ATOM     30  C   UNL     1       1.679  15.281  21.766  0.00  0.00    +0.000 C 
ATOM     31  C   UNL     1       0.415  14.493  22.068  0.00  0.00    +0.000 C 
ENDBRANCH  29  31
ENDBRANCH  28  29
ENDBRANCH   1  28
TORSDOF 8
ENDMDL
MODEL 8
REMARK VINA RESULT:      -6.5      5.329     10.018
REMARK  Name = 
REMARK  13 active torsions:
REMARK  status: ('A' for Active; 'I' for Inactive)
REMARK    1  A    between atoms: C_1  and  C_2
REMARK    2  A    between atoms: C_2  and  C_3
REMARK    3  A    between atoms: C_3  and  C_4
REMARK    4  A    between atoms: C_4  and  N_5
REMARK    5  A    between atoms: N_9  and  C_10
REMARK    6  A    between atoms: C_13  and  C_14
REMARK    7  A    between atoms: C_19  and  C_20
REMARK    8  A    between atoms: C_23  and  O_24
REMARK    9  A    between atoms: O_24  and  C_25
REMARK   10  A    between atoms: C_25  and  C_26
REMARK   11  A    between atoms: C_25  and  C_27
REMARK   12  A    between atoms: C_28  and  O_29
REMARK   13  A    between atoms: O_29  and  C_30
REMARK                            x       y       z     vdW  Elec       q    Type
REMARK                         _______ _______ _______ _____ _____    ______ ____
ROOT
ATOM      1  N   UNL     1       0.677  10.591  19.941  0.00  0.00    +0.000 N 
ATOM      2  C   UNL     1       0.467  10.967  21.263  0.00  0.00    +0.000 C 
ATOM      3  O   UNL     1       0.423  10.174  22.199  0.00  0.00    +0.000 OA
ATOM      4  C   UNL     1       0.172  12.453  21.449  0.00  0.00    +0.000 C 
ATOM      5  N   UNL     1       0.909  13.262  20.472  0.00  0.00    +0.000 N 
ATOM      6  C   UNL     1       0.783  12.929  19.118  0.00  0.00    +0.000 C 
ATOM      7  O   UNL     1       1.017  13.719  18.205  0.00  0.00    +0.000 OA
ATOM      8  C   UNL     1       0.270  11.494  18.846  0.00  0.00    +0.000 C 
ENDROOT
BRANCH   5   9
ATOM      9  C   UNL     1       1.368  14.605  20.845  0.00  0.00    +0.000 C 
ATOM     10  C   UNL     1       2.754  14.555  21.509  0.00  0.00    +0.000 C 
ATOM     11  C   UNL     1       3.215  15.934  21.972  0.00  0.00    +0.000 C 
ATOM     12  C   UNL     1       2.170  16.591  22.883  0.00  0.00    +0.000 C 
ATOM     13  C   UNL     1       2.654  17.961  23.357  0.00  0.00    +0.000 C 
ATOM     14  C   UNL     1       0.826  16.706  22.158  0.00  0.00    +0.000 C 
ATOM     15  C   UNL     1       0.326  15.340  21.699  0.00  0.00    +0.000 C 
ENDBRANCH   5   9
BRANCH   8  16
ATOM     16  C   UNL     1      -1.209  11.434  18.491  0.00  0.00    +0.000 A 
ATOM     17  C   UNL     1      -2.194  12.099  19.223  0.00  0.00    +0.000 A 
ATOM     18  C   UNL     1      -3.545  11.928  18.924  0.00  0.00    +0.000 A 
ATOM     19  C   UNL     1      -3.961  11.038  17.928  0.00  0.00    +0.000 A 
ATOM     20  C   UNL     1      -2.989  10.441  17.114  0.00  0.00    +0.000 A 
ATOM     21  C   UNL     1      -1.629  10.636  17.411  0.00  0.00    +0.000 A 
BRANCH  20  22
ATOM     22  O   UNL     1      -3.193   9.593  16.056  0.00  0.00    +0.000 OA
ATOM     23  C   UNL     1      -3.059  10.146  14.751  0.00  0.00    +0.000 C 
ENDBRANCH  20  22
BRANCH  19  24
ATOM     24  O   UNL     1      -5.283  10.731  17.739  0.00  0.00    +0.000 OA
BRANCH  24  25
ATOM     25  C   UNL     1      -6.197  11.149  18.767  0.00  0.00    +0.000 C 
ATOM     26  C   UNL     1      -7.177  12.146  18.158  0.00  0.00    +0.000 C 
ATOM     27  C   UNL     1      -6.922   9.921  19.304  0.00  0.00    +0.000 C 
ENDBRANCH  24  25
ENDBRANCH  19  24
ENDBRANCH   8  16
BRANCH   1  28
ATOM     28  C   UNL     1       1.187   9.263  19.628  0.00  0.00    +0.000 C 
BRANCH  28  29
ATOM     29  C   UNL     1       1.547   9.115  18.146  0.00  0.00    +0.000 C 
BRANCH  29  31
ATOM     30  C   UNL     1       2.465   6.775  18.342  0.00  0.00    +0.000 C 
ATOM     31  C   UNL     1       2.757   8.203  17.912  0.00  0.00    +0.000 C 
ENDBRANCH  29  31
ENDBRANCH  28  29
ENDBRANCH   1  28
TORSDOF 8
ENDMDL
MODEL 9
REMARK VINA RESULT:      -6.5      1.331      1.945
REMARK  Name = 
REMARK  13 active torsions:
REMARK  status: ('A' for Active; 'I' for Inactive)
REMARK    1  A    between atoms: C_1  and  C_2
REMARK    2  A    between atoms: C_2  and  C_3
REMARK    3  A    between atoms: C_3  and  C_4
REMARK    4  A    between atoms: C_4  and  N_5
REMARK    5  A    between atoms: N_9  and  C_10
REMARK    6  A    between atoms: C_13  and  C_14
REMARK    7  A    between atoms: C_19  and  C_20
REMARK    8  A    between atoms: C_23  and  O_24
REMARK    9  A    between atoms: O_24  and  C_25
REMARK   10  A    between atoms: C_25  and  C_26
REMARK   11  A    between atoms: C_25  and  C_27
REMARK   12  A    between atoms: C_28  and  O_29
REMARK   13  A    between atoms: O_29  and  C_30
REMARK                            x       y       z     vdW  Elec       q    Type
REMARK                         _______ _______ _______ _____ _____    ______ ____
ROOT
ATOM      1  N   UNL     1       3.596   3.595  18.374  0.00  0.00    +0.000 N 
ATOM      2  C   UNL     1       2.278   3.952  18.119  0.00  0.00    +0.000 C 
ATOM      3  O   UNL     1       1.348   3.150  18.085  0.00  0.00    +0.000 OA
ATOM      4  C   UNL     1       2.089   5.422  17.757  0.00  0.00    +0.000 C 
ATOM      5  N   UNL     1       3.042   6.269  18.483  0.00  0.00    +0.000 N 
ATOM      6  C   UNL     1       4.400   5.941  18.402  0.00  0.00    +0.000 C 
ATOM      7  O   UNL     1       5.302   6.748  18.625  0.00  0.00    +0.000 OA
ATOM      8  C   UNL     1       4.695   4.488  17.956  0.00  0.00    +0.000 C 
ENDROOT
BRANCH   5   9
ATOM      9  C   UNL     1       2.649   7.626  18.877  0.00  0.00    +0.000 C 
ATOM     10  C   UNL     1       1.767   7.608  20.136  0.00  0.00    +0.000 C 
ATOM     11  C   UNL     1       1.286   9.004  20.517  0.00  0.00    +0.000 C 
ATOM     12  C   UNL     1       0.582   9.690  19.339  0.00  0.00    +0.000 C 
ATOM     13  C   UNL     1       0.087  11.078  19.741  0.00  0.00    +0.000 C 
ATOM     14  C   UNL     1       1.520   9.772  18.131  0.00  0.00    +0.000 C 
ATOM     15  C   UNL     1       2.004   8.388  17.710  0.00  0.00    +0.000 C 
ENDBRANCH   5   9
BRANCH   8  16
ATOM     16  C   UNL     1       5.085   4.371  16.489  0.00  0.00    +0.000 A 
ATOM     17  C   UNL     1       4.337   3.646  15.560  0.00  0.00    +0.000 A 
ATOM     18  C   UNL     1       4.792   3.478  14.252  0.00  0.00    +0.000 A 
ATOM     19  C   UNL     1       6.037   3.972  13.847  0.00  0.00    +0.000 A 
ATOM     20  C   UNL     1       6.754   4.789  14.731  0.00  0.00    +0.000 A 
ATOM     21  C   UNL     1       6.277   4.969  16.042  0.00  0.00    +0.000 A 
BRANCH  20  22
ATOM     22  O   UNL     1       7.954   5.412  14.505  0.00  0.00    +0.000 OA
ATOM     23  C   UNL     1       8.281   5.707  13.151  0.00  0.00    +0.000 C 
ENDBRANCH  20  22
BRANCH  19  24
ATOM     24  O   UNL     1       6.571   3.669  12.622  0.00  0.00    +0.000 OA
BRANCH  24  25
ATOM     25  C   UNL     1       6.042   2.511  11.954  0.00  0.00    +0.000 C 
ATOM     26  C   UNL     1       4.804   2.935  11.171  0.00  0.00    +0.000 C 
ATOM     27  C   UNL     1       7.114   1.949  11.030  0.00  0.00    +0.000 C 
ENDBRANCH  24  25
ENDBRANCH  19  24
ENDBRANCH   8  16
BRANCH   1  28
ATOM     28  C   UNL     1       3.906   2.291  18.947  0.00  0.00    +0.000 C 
BRANCH  28  29
ATOM     29  C   UNL     1       4.106   2.358  20.465  0.00  0.00    +0.000 C 
BRANCH  29  31
ATOM     30  C   UNL     1       2.284   3.619  21.669  0.00  0.00    +0.000 C 
ATOM     31  C   UNL     1       2.791   2.250  21.246  0.00  0.00    +0.000 C 
ENDBRANCH  29  31
ENDBRANCH  28  29
ENDBRANCH   1  28
TORSDOF 8
ENDMDL
