MODEL 1
REMARK VINA RESULT:      -6.6      0.000      0.000
REMARK  Name = 
REMARK  6 active torsions:
REMARK  status: ('A' for Active; 'I' for Inactive)
REMARK    1  A    between atoms: C_1  and  O_2
REMARK    2  A    between atoms: O_2  and  C_3
REMARK    3  A    between atoms: C_7  and  C_8
REMARK    4  A    between atoms: N_10  and  N_11
REMARK    5  A    between atoms: C_12  and  C_14
REMARK    6  A    between atoms: C_17  and  C_18
REMARK                            x       y       z     vdW  Elec       q    Type
REMARK                         _______ _______ _______ _____ _____    ______ ____
ROOT
ATOM      1  C   UNL     1       8.478  10.484  17.980  0.00  0.00    +0.000 C 
ATOM      2  O   UNL     1       7.667  10.951  17.183  0.00  0.00    +0.000 OA
ATOM      3  N   UNL     1       8.597   9.127  18.199  0.00  0.00    +0.000 N 
ATOM      4  H   UNL     1       9.265   8.689  18.825  0.00  0.00    +0.000 HD
ENDROOT
BRANCH   1   9
ATOM      5  C   UNL     1      10.884  13.292  18.977  0.00  0.00    +0.000 A 
ATOM      6  C   UNL     1      11.071  12.989  20.328  0.00  0.00    +0.000 A 
ATOM      7  C   UNL     1      10.421  11.897  20.903  0.00  0.00    +0.000 A 
ATOM      8  C   UNL     1       9.581  11.099  20.125  0.00  0.00    +0.000 A 
ATOM      9  C   UNL     1       9.383  11.385  18.766  0.00  0.00    +0.000 A 
ATOM     10  C   UNL     1      10.040  12.491  18.203  0.00  0.00    +0.000 A 
BRANCH   5  12
ATOM     11  C   UNL     1      11.368  14.777  17.180  0.00  0.00    +0.000 C 
ATOM     12  O   UNL     1      11.577  14.385  18.533  0.00  0.00    +0.000 OA
ENDBRANCH   5  12
ENDBRANCH   1   9
BRANCH   3  13
ATOM     13  N   UNL     1       7.791   8.234  17.487  0.00  0.00    +0.000 N 
ATOM     14  C   UNL     1       7.672   6.944  17.964  0.00  0.00    +0.000 C 
ATOM     15  O   UNL     1       8.247   6.570  18.988  0.00  0.00    +0.000 OA
ATOM     16  H   UNL     1       7.317   8.553  16.643  0.00  0.00    +0.000 HD
BRANCH  14  17
ATOM     17  C   UNL     1       6.820   6.072  17.159  0.00  0.00    +0.000 A 
ATOM     18  C   UNL     1       5.601   5.589  17.601  0.00  0.00    +0.000 A 
ATOM     19  S   UNL     1       4.889   4.588  16.414  0.00  0.00    +0.000 S 
ATOM     20  C   UNL     1       6.245   4.851  15.392  0.00  0.00    +0.000 A 
ATOM     21  C   UNL     1       6.322   4.178  14.065  0.00  0.00    +0.000 C 
ATOM     22  N   UNL     1       7.176   5.649  15.877  0.00  0.00    +0.000 NA
ENDBRANCH  14  17
ENDBRANCH   3  13
TORSDOF 4
ENDMDL
MODEL 2
REMARK VINA RESULT:      -6.6      6.742      8.908
REMARK  Name = 
REMARK  6 active torsions:
REMARK  status: ('A' for Active; 'I' for Inactive)
REMARK    1  A    between atoms: C_1  and  O_2
REMARK    2  A    between atoms: O_2  and  C_3
REMARK    3  A    between atoms: C_7  and  C_8
REMARK    4  A    between atoms: N_10  and  N_11
REMARK    5  A    between atoms: C_12  and  C_14
REMARK    6  A    between atoms: C_17  and  C_18
REMARK                            x       y       z     vdW  Elec       q    Type
REMARK                         _______ _______ _______ _____ _____    ______ ____
ROOT
ATOM      1  C   UNL     1       4.185   6.018  18.427  0.00  0.00    +0.000 C 
ATOM      2  O   UNL     1       4.232   5.689  19.611  0.00  0.00    +0.000 OA
ATOM      3  N   UNL     1       3.292   6.960  17.960  0.00  0.00    +0.000 N 
ATOM      4  H   UNL     1       3.228   7.285  17.001  0.00  0.00    +0.000 HD
ENDROOT
BRANCH   1   9
ATOM      5  C   UNL     1       5.617   4.504  15.214  0.00  0.00    +0.000 A 
ATOM      6  C   UNL     1       6.917   4.213  15.636  0.00  0.00    +0.000 A 
ATOM      7  C   UNL     1       7.319   4.509  16.938  0.00  0.00    +0.000 A 
ATOM      8  C   UNL     1       6.419   5.099  17.827  0.00  0.00    +0.000 A 
ATOM      9  C   UNL     1       5.109   5.396  17.423  0.00  0.00    +0.000 A 
ATOM     10  C   UNL     1       4.720   5.096  16.107  0.00  0.00    +0.000 A 
BRANCH   5  12
ATOM     11  C   UNL     1       6.449   3.767  13.108  0.00  0.00    +0.000 C 
ATOM     12  O   UNL     1       5.346   4.164  13.916  0.00  0.00    +0.000 OA
ENDBRANCH   5  12
ENDBRANCH   1   9
BRANCH   3  13
ATOM     13  N   UNL     1       2.413   7.587  18.849  0.00  0.00    +0.000 N 
ATOM     14  C   UNL     1       1.894   8.815  18.491  0.00  0.00    +0.000 C 
ATOM     15  O   UNL     1       2.178   9.360  17.423  0.00  0.00    +0.000 OA
ATOM     16  H   UNL     1       2.181   7.128  19.729  0.00  0.00    +0.000 HD
BRANCH  14  17
ATOM     17  C   UNL     1       0.992   9.406  19.477  0.00  0.00    +0.000 A 
ATOM     18  C   UNL     1       0.175  10.488  19.201  0.00  0.00    +0.000 A 
ATOM     19  S   UNL     1      -0.726  10.925  20.586  0.00  0.00    +0.000 S 
ATOM     20  C   UNL     1       0.031   9.659  21.467  0.00  0.00    +0.000 A 
ATOM     21  C   UNL     1      -0.284   9.460  22.909  0.00  0.00    +0.000 C 
ATOM     22  N   UNL     1       0.892   8.928  20.786  0.00  0.00    +0.000 NA
ENDBRANCH  14  17
ENDBRANCH   3  13
TORSDOF 4
ENDMDL
MODEL 3
REMARK VINA RESULT:      -6.6      1.498      1.998
REMARK  Name = 
REMARK  6 active torsions:
REMARK  status: ('A' for Active; 'I' for Inactive)
REMARK    1  A    between atoms: C_1  and  O_2
REMARK    2  A    between atoms: O_2  and  C_3
REMARK    3  A    between atoms: C_7  and  C_8
REMARK    4  A    between atoms: N_10  and  N_11
REMARK    5  A    between atoms: C_12  and  C_14
REMARK    6  A    between atoms: C_17  and  C_18
REMARK                            x       y       z     vdW  Elec       q    Type
REMARK                         _______ _______ _______ _____ _____    ______ ____
ROOT
ATOM      1  C   UNL     1       8.634  10.009  18.279  0.00  0.00    +0.000 C 
ATOM      2  O   UNL     1       7.958  10.523  17.390  0.00  0.00    +0.000 OA
ATOM      3  N   UNL     1       8.635   8.650  18.511  0.00  0.00    +0.000 N 
ATOM      4  H   UNL     1       9.192   8.173  19.212  0.00  0.00    +0.000 HD
ENDROOT
BRANCH   1   9
ATOM      5  C   UNL     1       9.902  12.159  21.184  0.00  0.00    +0.000 A 
ATOM      6  C   UNL     1      11.195  12.441  20.738  0.00  0.00    +0.000 A 
ATOM      7  C   UNL     1      11.646  11.935  19.518  0.00  0.00    +0.000 A 
ATOM      8  C   UNL     1      10.801  11.145  18.737  0.00  0.00    +0.000 A 
ATOM      9  C   UNL     1       9.498  10.854  19.167  0.00  0.00    +0.000 A 
ATOM     10  C   UNL     1       9.060  11.366  20.400  0.00  0.00    +0.000 A 
BRANCH   5  12
ATOM     11  C   UNL     1       8.879  13.954  22.367  0.00  0.00    +0.000 C 
ATOM     12  O   UNL     1       9.578  12.714  22.393  0.00  0.00    +0.000 OA
ENDBRANCH   5  12
ENDBRANCH   1   9
BRANCH   3  13
ATOM     13  N   UNL     1       7.861   7.806  17.707  0.00  0.00    +0.000 N 
ATOM     14  C   UNL     1       7.645   6.514  18.141  0.00  0.00    +0.000 C 
ATOM     15  O   UNL     1       8.107   6.095  19.204  0.00  0.00    +0.000 OA
ATOM     16  H   UNL     1       7.481   8.162  16.831  0.00  0.00    +0.000 HD
BRANCH  14  17
ATOM     17  C   UNL     1       6.835   5.696  17.241  0.00  0.00    +0.000 A 
ATOM     18  C   UNL     1       5.670   5.063  17.638  0.00  0.00    +0.000 A 
ATOM     19  S   UNL     1       4.998   4.181  16.339  0.00  0.00    +0.000 S 
ATOM     20  C   UNL     1       6.297   4.686  15.335  0.00  0.00    +0.000 A 
ATOM     21  C   UNL     1       6.383   4.208  13.927  0.00  0.00    +0.000 C 
ATOM     22  N   UNL     1       7.181   5.481  15.906  0.00  0.00    +0.000 NA
ENDBRANCH  14  17
ENDBRANCH   3  13
TORSDOF 4
ENDMDL
MODEL 4
REMARK VINA RESULT:      -6.5      1.846      2.442
REMARK  Name = 
REMARK  6 active torsions:
REMARK  status: ('A' for Active; 'I' for Inactive)
REMARK    1  A    between atoms: C_1  and  O_2
REMARK    2  A    between atoms: O_2  and  C_3
REMARK    3  A    between atoms: C_7  and  C_8
REMARK    4  A    between atoms: N_10  and  N_11
REMARK    5  A    between atoms: C_12  and  C_14
REMARK    6  A    between atoms: C_17  and  C_18
REMARK                            x       y       z     vdW  Elec       q    Type
REMARK                         _______ _______ _______ _____ _____    ______ ____
ROOT
ATOM      1  C   UNL     1       8.566   9.669  18.332  0.00  0.00    +0.000 C 
ATOM      2  O   UNL     1       7.839  10.125  17.452  0.00  0.00    +0.000 OA
ATOM      3  N   UNL     1       8.595   8.325  18.641  0.00  0.00    +0.000 N 
ATOM      4  H   UNL     1       9.193   7.894  19.339  0.00  0.00    +0.000 HD
ENDROOT
BRANCH   1   9
ATOM      5  C   UNL     1       9.972  11.962  21.059  0.00  0.00    +0.000 A 
ATOM      6  C   UNL     1      11.220  12.264  20.509  0.00  0.00    +0.000 A 
ATOM      7  C   UNL     1      11.598  11.726  19.279  0.00  0.00    +0.000 A 
ATOM      8  C   UNL     1      10.724  10.883  18.590  0.00  0.00    +0.000 A 
ATOM      9  C   UNL     1       9.465  10.571  19.125  0.00  0.00    +0.000 A 
ATOM     10  C   UNL     1       9.101  11.117  20.367  0.00  0.00    +0.000 A 
BRANCH   5  12
ATOM     11  C   UNL     1       9.163  13.864  22.242  0.00  0.00    +0.000 C 
ATOM     12  O   UNL     1       9.719  12.553  22.268  0.00  0.00    +0.000 OA
ENDBRANCH   5  12
ENDBRANCH   1   9
BRANCH   3  13
ATOM     13  N   UNL     1       7.790   7.430  17.929  0.00  0.00    +0.000 N 
ATOM     14  C   UNL     1       7.594   6.171  18.458  0.00  0.00    +0.000 C 
ATOM     15  O   UNL     1       8.099   5.824  19.527  0.00  0.00    +0.000 OA
ATOM     16  H   UNL     1       7.375   7.726  17.046  0.00  0.00    +0.000 HD
BRANCH  14  17
ATOM     17  C   UNL     1       6.749   5.294  17.649  0.00  0.00    +0.000 A 
ATOM     18  C   UNL     1       7.136   4.799  16.416  0.00  0.00    +0.000 A 
ATOM     19  S   UNL     1       5.899   3.830  15.748  0.00  0.00    +0.000 S 
ATOM     20  C   UNL     1       4.925   4.134  17.130  0.00  0.00    +0.000 A 
ATOM     21  C   UNL     1       3.548   3.571  17.213  0.00  0.00    +0.000 C 
ATOM     22  N   UNL     1       5.475   4.894  18.056  0.00  0.00    +0.000 NA
ENDBRANCH  14  17
ENDBRANCH   3  13
TORSDOF 4
ENDMDL
MODEL 5
REMARK VINA RESULT:      -6.4      7.517      8.327
REMARK  Name = 
REMARK  6 active torsions:
REMARK  status: ('A' for Active; 'I' for Inactive)
REMARK    1  A    between atoms: C_1  and  O_2
REMARK    2  A    between atoms: O_2  and  C_3
REMARK    3  A    between atoms: C_7  and  C_8
REMARK    4  A    between atoms: N_10  and  N_11
REMARK    5  A    between atoms: C_12  and  C_14
REMARK    6  A    between atoms: C_17  and  C_18
REMARK                            x       y       z     vdW  Elec       q    Type
REMARK                         _______ _______ _______ _____ _____    ______ ____
ROOT
ATOM      1  C   UNL     1       1.265   8.681  20.272  0.00  0.00    +0.000 C 
ATOM      2  O   UNL     1       1.416   8.911  19.074  0.00  0.00    +0.000 OA
ATOM      3  N   UNL     1       1.754   7.538  20.870  0.00  0.00    +0.000 N 
ATOM      4  H   UNL     1       1.679   7.312  21.857  0.00  0.00    +0.000 HD
ENDROOT
BRANCH   1   9
ATOM      5  C   UNL     1      -0.283  11.876  21.708  0.00  0.00    +0.000 A 
ATOM      6  C   UNL     1      -0.866  11.368  22.872  0.00  0.00    +0.000 A 
ATOM      7  C   UNL     1      -0.762  10.010  23.178  0.00  0.00    +0.000 A 
ATOM      8  C   UNL     1      -0.070   9.155  22.318  0.00  0.00    +0.000 A 
ATOM      9  C   UNL     1       0.525   9.648  21.148  0.00  0.00    +0.000 A 
ATOM     10  C   UNL     1       0.408  11.016  20.851  0.00  0.00    +0.000 A 
BRANCH   5  12
ATOM     11  C   UNL     1       0.709  14.039  21.622  0.00  0.00    +0.000 C 
ATOM     12  O   UNL     1      -0.453  13.222  21.523  0.00  0.00    +0.000 OA
ENDBRANCH   5  12
ENDBRANCH   1   9
BRANCH   3  13
ATOM     13  N   UNL     1       2.464   6.604  20.110  0.00  0.00    +0.000 N 
ATOM     14  C   UNL     1       1.984   5.311  20.055  0.00  0.00    +0.000 C 
ATOM     15  O   UNL     1       0.959   4.968  20.647  0.00  0.00    +0.000 OA
ATOM     16  H   UNL     1       3.309   6.897  19.622  0.00  0.00    +0.000 HD
BRANCH  14  17
ATOM     17  C   UNL     1       2.788   4.396  19.248  0.00  0.00    +0.000 A 
ATOM     18  C   UNL     1       2.884   3.041  19.513  0.00  0.00    +0.000 A 
ATOM     19  S   UNL     1       3.920   2.285  18.384  0.00  0.00    +0.000 S 
ATOM     20  C   UNL     1       4.183   3.802  17.622  0.00  0.00    +0.000 A 
ATOM     21  C   UNL     1       5.113   3.905  16.463  0.00  0.00    +0.000 C 
ATOM     22  N   UNL     1       3.533   4.822  18.147  0.00  0.00    +0.000 NA
ENDBRANCH  14  17
ENDBRANCH   3  13
TORSDOF 4
ENDMDL
MODEL 6
REMARK VINA RESULT:      -6.4      7.624     10.357
REMARK  Name = 
REMARK  6 active torsions:
REMARK  status: ('A' for Active; 'I' for Inactive)
REMARK    1  A    between atoms: C_1  and  O_2
REMARK    2  A    between atoms: O_2  and  C_3
REMARK    3  A    between atoms: C_7  and  C_8
REMARK    4  A    between atoms: N_10  and  N_11
REMARK    5  A    between atoms: C_12  and  C_14
REMARK    6  A    between atoms: C_17  and  C_18
REMARK                            x       y       z     vdW  Elec       q    Type
REMARK                         _______ _______ _______ _____ _____    ______ ____
ROOT
ATOM      1  C   UNL     1       2.127   7.256  19.983  0.00  0.00    +0.000 C 
ATOM      2  O   UNL     1       2.090   7.964  18.980  0.00  0.00    +0.000 OA
ATOM      3  N   UNL     1       1.715   7.707  21.220  0.00  0.00    +0.000 N 
ATOM      4  H   UNL     1       1.701   7.157  22.072  0.00  0.00    +0.000 HD
ENDROOT
BRANCH   1   9
ATOM      5  C   UNL     1       4.337   4.188  19.368  0.00  0.00    +0.000 A 
ATOM      6  C   UNL     1       3.473   3.173  19.786  0.00  0.00    +0.000 A 
ATOM      7  C   UNL     1       2.199   3.483  20.264  0.00  0.00    +0.000 A 
ATOM      8  C   UNL     1       1.784   4.814  20.324  0.00  0.00    +0.000 A 
ATOM      9  C   UNL     1       2.636   5.847  19.905  0.00  0.00    +0.000 A 
ATOM     10  C   UNL     1       3.917   5.519  19.431  0.00  0.00    +0.000 A 
BRANCH   5  12
ATOM     11  C   UNL     1       6.352   4.697  18.206  0.00  0.00    +0.000 C 
ATOM     12  O   UNL     1       5.555   3.756  18.918  0.00  0.00    +0.000 OA
ENDBRANCH   5  12
ENDBRANCH   1   9
BRANCH   3  13
ATOM     13  N   UNL     1       1.217   9.007  21.355  0.00  0.00    +0.000 N 
ATOM     14  C   UNL     1      -0.099   9.162  21.738  0.00  0.00    +0.000 C 
ATOM     15  O   UNL     1      -0.833   8.198  21.963  0.00  0.00    +0.000 OA
ATOM     16  H   UNL     1       1.832   9.798  21.170  0.00  0.00    +0.000 HD
BRANCH  14  17
ATOM     17  C   UNL     1      -0.543  10.550  21.848  0.00  0.00    +0.000 A 
ATOM     18  C   UNL     1      -1.076  11.083  23.009  0.00  0.00    +0.000 A 
ATOM     19  S   UNL     1      -1.503  12.720  22.772  0.00  0.00    +0.000 S 
ATOM     20  C   UNL     1      -0.964  12.617  21.144  0.00  0.00    +0.000 A 
ATOM     21  C   UNL     1      -1.088  13.793  20.239  0.00  0.00    +0.000 C 
ATOM     22  N   UNL     1      -0.472  11.448  20.781  0.00  0.00    +0.000 NA
ENDBRANCH  14  17
ENDBRANCH   3  13
TORSDOF 4
ENDMDL
MODEL 7
REMARK VINA RESULT:      -6.4      7.149      9.450
REMARK  Name = 
REMARK  6 active torsions:
REMARK  status: ('A' for Active; 'I' for Inactive)
REMARK    1  A    between atoms: C_1  and  O_2
REMARK    2  A    between atoms: O_2  and  C_3
REMARK    3  A    between atoms: C_7  and  C_8
REMARK    4  A    between atoms: N_10  and  N_11
REMARK    5  A    between atoms: C_12  and  C_14
REMARK    6  A    between atoms: C_17  and  C_18
REMARK                            x       y       z     vdW  Elec       q    Type
REMARK                         _______ _______ _______ _____ _____    ______ ____
ROOT
ATOM      1  C   UNL     1       2.759   6.382  18.900  0.00  0.00    +0.000 C 
ATOM      2  O   UNL     1       2.309   5.872  19.924  0.00  0.00    +0.000 OA
ATOM      3  N   UNL     1       2.515   7.698  18.563  0.00  0.00    +0.000 N 
ATOM      4  H   UNL     1       2.881   8.173  17.745  0.00  0.00    +0.000 HD
ENDROOT
BRANCH   1   9
ATOM      5  C   UNL     1       5.247   5.371  16.170  0.00  0.00    +0.000 A 
ATOM      6  C   UNL     1       5.116   3.981  16.218  0.00  0.00    +0.000 A 
ATOM      7  C   UNL     1       4.239   3.386  17.125  0.00  0.00    +0.000 A 
ATOM      8  C   UNL     1       3.487   4.183  17.990  0.00  0.00    +0.000 A 
ATOM      9  C   UNL     1       3.602   5.580  17.954  0.00  0.00    +0.000 A 
ATOM     10  C   UNL     1       4.493   6.164  17.038  0.00  0.00    +0.000 A 
BRANCH   5  12
ATOM     11  C   UNL     1       6.860   4.853  14.497  0.00  0.00    +0.000 C 
ATOM     12  O   UNL     1       6.136   5.832  15.236  0.00  0.00    +0.000 OA
ENDBRANCH   5  12
ENDBRANCH   1   9
BRANCH   3  13
ATOM     13  N   UNL     1       1.747   8.502  19.411  0.00  0.00    +0.000 N 
ATOM     14  C   UNL     1       1.254   9.689  18.910  0.00  0.00    +0.000 C 
ATOM     15  O   UNL     1       1.469  10.049  17.751  0.00  0.00    +0.000 OA
ATOM     16  H   UNL     1       1.573   8.195  20.367  0.00  0.00    +0.000 HD
BRANCH  14  17
ATOM     17  C   UNL     1       0.470  10.475  19.861  0.00  0.00    +0.000 A 
ATOM     18  C   UNL     1       0.073  11.778  19.618  0.00  0.00    +0.000 A 
ATOM     19  S   UNL     1      -0.807  12.391  20.948  0.00  0.00    +0.000 S 
ATOM     20  C   UNL     1      -0.597  10.894  21.765  0.00  0.00    +0.000 A 
ATOM     21  C   UNL     1      -1.132  10.714  23.144  0.00  0.00    +0.000 C 
ATOM     22  N   UNL     1       0.068   9.971  21.099  0.00  0.00    +0.000 NA
ENDBRANCH  14  17
ENDBRANCH   3  13
TORSDOF 4
ENDMDL
MODEL 8
REMARK VINA RESULT:      -6.4      7.153      9.828
REMARK  Name = 
REMARK  6 active torsions:
REMARK  status: ('A' for Active; 'I' for Inactive)
REMARK    1  A    between atoms: C_1  and  O_2
REMARK    2  A    between atoms: O_2  and  C_3
REMARK    3  A    between atoms: C_7  and  C_8
REMARK    4  A    between atoms: N_10  and  N_11
REMARK    5  A    between atoms: C_12  and  C_14
REMARK    6  A    between atoms: C_17  and  C_18
REMARK                            x       y       z     vdW  Elec       q    Type
REMARK                         _______ _______ _______ _____ _____    ______ ____
ROOT
ATOM      1  C   UNL     1       2.546   7.548  18.344  0.00  0.00    +0.000 C 
ATOM      2  O   UNL     1       2.600   8.352  17.417  0.00  0.00    +0.000 OA
ATOM      3  N   UNL     1       1.929   7.843  19.542  0.00  0.00    +0.000 N 
ATOM      4  H   UNL     1       1.835   7.208  20.328  0.00  0.00    +0.000 HD
ENDROOT
BRANCH   1   9
ATOM      5  C   UNL     1       5.061   4.659  18.274  0.00  0.00    +0.000 A 
ATOM      6  C   UNL     1       4.216   3.605  17.917  0.00  0.00    +0.000 A 
ATOM      7  C   UNL     1       2.855   3.830  17.709  0.00  0.00    +0.000 A 
ATOM      8  C   UNL     1       2.333   5.116  17.857  0.00  0.00    +0.000 A 
ATOM      9  C   UNL     1       3.165   6.187  18.212  0.00  0.00    +0.000 A 
ATOM     10  C   UNL     1       4.532   5.944  18.422  0.00  0.00    +0.000 A 
BRANCH   5  12
ATOM     11  C   UNL     1       7.278   4.671  17.408  0.00  0.00    +0.000 C 
ATOM     12  O   UNL     1       6.373   4.310  18.446  0.00  0.00    +0.000 OA
ENDBRANCH   5  12
ENDBRANCH   1   9
BRANCH   3  13
ATOM     13  N   UNL     1       1.321   9.089  19.722  0.00  0.00    +0.000 N 
ATOM     14  C   UNL     1       0.955   9.454  21.002  0.00  0.00    +0.000 C 
ATOM     15  O   UNL     1       1.152   8.721  21.973  0.00  0.00    +0.000 OA
ATOM     16  H   UNL     1       1.164   9.690  18.914  0.00  0.00    +0.000 HD
BRANCH  14  17
ATOM     17  C   UNL     1       0.319  10.766  21.104  0.00  0.00    +0.000 A 
ATOM     18  C   UNL     1       0.147  11.608  20.019  0.00  0.00    +0.000 A 
ATOM     19  S   UNL     1      -0.611  13.060  20.506  0.00  0.00    +0.000 S 
ATOM     20  C   UNL     1      -0.657  12.484  22.124  0.00  0.00    +0.000 A 
ATOM     21  C   UNL     1      -1.210  13.342  23.208  0.00  0.00    +0.000 C 
ATOM     22  N   UNL     1      -0.160  11.276  22.312  0.00  0.00    +0.000 NA
ENDBRANCH  14  17
ENDBRANCH   3  13
TORSDOF 4
ENDMDL
MODEL 9
REMARK VINA RESULT:      -6.4      8.093     10.802
REMARK  Name = 
REMARK  6 active torsions:
REMARK  status: ('A' for Active; 'I' for Inactive)
REMARK    1  A    between atoms: C_1  and  O_2
REMARK    2  A    between atoms: O_2  and  C_3
REMARK    3  A    between atoms: C_7  and  C_8
REMARK    4  A    between atoms: N_10  and  N_11
REMARK    5  A    between atoms: C_12  and  C_14
REMARK    6  A    between atoms: C_17  and  C_18
REMARK                            x       y       z     vdW  Elec       q    Type
REMARK                         _______ _______ _______ _____ _____    ______ ____
ROOT
ATOM      1  C   UNL     1       2.162   7.442  19.708  0.00  0.00    +0.000 C 
ATOM      2  O   UNL     1       2.055   8.256  18.794  0.00  0.00    +0.000 OA
ATOM      3  N   UNL     1       1.827   7.748  21.011  0.00  0.00    +0.000 N 
ATOM      4  H   UNL     1       1.873   7.108  21.797  0.00  0.00    +0.000 HD
ENDROOT
BRANCH   1   9
ATOM      5  C   UNL     1       2.895   3.693  19.983  0.00  0.00    +0.000 A 
ATOM      6  C   UNL     1       3.704   3.515  18.858  0.00  0.00    +0.000 A 
ATOM      7  C   UNL     1       3.999   4.594  18.024  0.00  0.00    +0.000 A 
ATOM      8  C   UNL     1       3.485   5.859  18.315  0.00  0.00    +0.000 A 
ATOM      9  C   UNL     1       2.674   6.057  19.442  0.00  0.00    +0.000 A 
ATOM     10  C   UNL     1       2.382   4.960  20.270  0.00  0.00    +0.000 A 
BRANCH   5  12
ATOM     11  C   UNL     1       1.659   2.615  21.710  0.00  0.00    +0.000 C 
ATOM     12  O   UNL     1       2.683   2.559  20.721  0.00  0.00    +0.000 OA
ENDBRANCH   5  12
ENDBRANCH   1   9
BRANCH   3  13
ATOM     13  N   UNL     1       1.330   9.018  21.321  0.00  0.00    +0.000 N 
ATOM     14  C   UNL     1       0.008   9.123  21.703  0.00  0.00    +0.000 C 
ATOM     15  O   UNL     1      -0.731   8.140  21.779  0.00  0.00    +0.000 OA
ATOM     16  H   UNL     1       1.950   9.825  21.258  0.00  0.00    +0.000 HD
BRANCH  14  17
ATOM     17  C   UNL     1      -0.434  10.483  22.001  0.00  0.00    +0.000 A 
ATOM     18  C   UNL     1      -1.213  10.801  23.100  0.00  0.00    +0.000 A 
ATOM     19  S   UNL     1      -1.558  12.474  23.124  0.00  0.00    +0.000 S 
ATOM     20  C   UNL     1      -0.660  12.671  21.672  0.00  0.00    +0.000 A 
ATOM     21  C   UNL     1      -0.561  14.012  21.030  0.00  0.00    +0.000 C 
ATOM     22  N   UNL     1      -0.111  11.573  21.190  0.00  0.00    +0.000 NA
ENDBRANCH  14  17
ENDBRANCH   3  13
TORSDOF 4
ENDMDL
