MODEL 1
REMARK VINA RESULT:      -8.3      0.000      0.000
REMARK  Name = 
REMARK  4 active torsions:
REMARK  status: ('A' for Active; 'I' for Inactive)
REMARK    1  A    between atoms: C_5  and  C_6
REMARK    2  A    between atoms: C_6  and  C_7
REMARK    3  A    between atoms: C_7  and  C_8
REMARK    4  A    between atoms: C_12  and  C_13
REMARK                            x       y       z     vdW  Elec       q    Type
REMARK                         _______ _______ _______ _____ _____    ______ ____
ROOT
ATOM      1  C   UNL     1       7.325   7.777  17.322  0.00  0.00    +0.000 A 
ATOM      2  N   UNL     1       6.166   7.613  17.930  0.00  0.00    +0.000 NA
ATOM      3  C   UNL     1       5.707   6.378  17.540  0.00  0.00    +0.000 A 
ATOM      4  C   UNL     1       4.535   5.699  17.900  0.00  0.00    +0.000 A 
ATOM      5  C   UNL     1       4.291   4.418  17.371  0.00  0.00    +0.000 A 
ATOM      6  C   UNL     1       5.222   3.857  16.477  0.00  0.00    +0.000 A 
ATOM      7  C   UNL     1       6.395   4.522  16.103  0.00  0.00    +0.000 A 
ATOM      8  C   UNL     1       6.602   5.774  16.666  0.00  0.00    +0.000 A 
ATOM      9  N   UNL     1       7.626   6.675  16.557  0.00  0.00    +0.000 N 
ATOM     10  H   UNL     1       8.461   6.537  16.006  0.00  0.00    +0.000 HD
ENDROOT
BRANCH   5  11
ATOM     11  C   UNL     1       3.104   3.661  17.801  0.00  0.00    +0.000 A 
ATOM     12  C   UNL     1       1.806   4.111  17.946  0.00  0.00    +0.000 A 
ATOM     13  C   UNL     1       0.922   3.103  18.433  0.00  0.00    +0.000 A 
ATOM     14  C   UNL     1       1.567   1.906  18.631  0.00  0.00    +0.000 A 
ATOM     15  S   UNL     1       3.215   1.992  18.208  0.00  0.00    +0.000 S 
ENDBRANCH   5  11
BRANCH   1  16
ATOM     16  C   UNL     1       8.222   8.967  17.466  0.00  0.00    +0.000 C 
BRANCH  16  17
ATOM     17  C   UNL     1       8.821   9.121  18.867  0.00  0.00    +0.000 C 
BRANCH  17  22
ATOM     18  F   UNL     1      11.327  14.099  19.746  0.00  0.00    +0.000 F 
ATOM     19  C   UNL     1      10.724  12.923  19.533  0.00  0.00    +0.000 A 
ATOM     20  C   UNL     1      10.287  12.172  20.616  0.00  0.00    +0.000 A 
ATOM     21  C   UNL     1       9.662  10.944  20.395  0.00  0.00    +0.000 A 
ATOM     22  C   UNL     1       9.479  10.463  19.090  0.00  0.00    +0.000 A 
ATOM     23  C   UNL     1       9.920  11.239  18.007  0.00  0.00    +0.000 A 
ATOM     24  C   UNL     1      10.545  12.468  18.231  0.00  0.00    +0.000 A 
ENDBRANCH  17  22
ENDBRANCH  16  17
ENDBRANCH   1  16
TORSDOF 4
ENDMDL
MODEL 2
REMARK VINA RESULT:      -8.2      4.825      6.699
REMARK  Name = 
REMARK  4 active torsions:
REMARK  status: ('A' for Active; 'I' for Inactive)
REMARK    1  A    between atoms: C_5  and  C_6
REMARK    2  A    between atoms: C_6  and  C_7
REMARK    3  A    between atoms: C_7  and  C_8
REMARK    4  A    between atoms: C_12  and  C_13
REMARK                            x       y       z     vdW  Elec       q    Type
REMARK                         _______ _______ _______ _____ _____    ______ ____
ROOT
ATOM      1  C   UNL     1       3.372   5.239  18.462  0.00  0.00    +0.000 A 
ATOM      2  N   UNL     1       2.966   5.540  19.680  0.00  0.00    +0.000 NA
ATOM      3  C   UNL     1       2.377   6.777  19.587  0.00  0.00    +0.000 A 
ATOM      4  C   UNL     1       1.763   7.558  20.576  0.00  0.00    +0.000 A 
ATOM      5  C   UNL     1       1.211   8.804  20.225  0.00  0.00    +0.000 A 
ATOM      6  C   UNL     1       1.305   9.244  18.892  0.00  0.00    +0.000 A 
ATOM      7  C   UNL     1       1.918   8.480  17.892  0.00  0.00    +0.000 A 
ATOM      8  C   UNL     1       2.430   7.249  18.282  0.00  0.00    +0.000 A 
ATOM      9  N   UNL     1       3.051   6.249  17.586  0.00  0.00    +0.000 N 
ATOM     10  H   UNL     1       3.233   6.262  16.593  0.00  0.00    +0.000 HD
ENDROOT
BRANCH   5  11
ATOM     11  C   UNL     1       0.495   9.600  21.236  0.00  0.00    +0.000 A 
ATOM     12  C   UNL     1      -0.037   9.178  22.440  0.00  0.00    +0.000 A 
ATOM     13  C   UNL     1      -0.709  10.222  23.143  0.00  0.00    +0.000 A 
ATOM     14  C   UNL     1      -0.656  11.416  22.464  0.00  0.00    +0.000 A 
ATOM     15  S   UNL     1       0.216  11.283  21.007  0.00  0.00    +0.000 S 
ENDBRANCH   5  11
BRANCH   1  16
ATOM     16  C   UNL     1       4.048   3.965  18.060  0.00  0.00    +0.000 C 
BRANCH  16  17
ATOM     17  C   UNL     1       5.220   4.166  17.095  0.00  0.00    +0.000 C 
BRANCH  17  22
ATOM     18  F   UNL     1       8.879   8.076  18.872  0.00  0.00    +0.000 F 
ATOM     19  C   UNL     1       8.019   7.141  18.448  0.00  0.00    +0.000 A 
ATOM     20  C   UNL     1       7.330   7.333  17.258  0.00  0.00    +0.000 A 
ATOM     21  C   UNL     1       6.431   6.362  16.818  0.00  0.00    +0.000 A 
ATOM     22  C   UNL     1       6.214   5.198  17.572  0.00  0.00    +0.000 A 
ATOM     23  C   UNL     1       6.925   5.017  18.769  0.00  0.00    +0.000 A 
ATOM     24  C   UNL     1       7.825   5.991  19.206  0.00  0.00    +0.000 A 
ENDBRANCH  17  22
ENDBRANCH  16  17
ENDBRANCH   1  16
TORSDOF 4
ENDMDL
MODEL 3
REMARK VINA RESULT:      -8.2      6.475      9.084
REMARK  Name = 
REMARK  4 active torsions:
REMARK  status: ('A' for Active; 'I' for Inactive)
REMARK    1  A    between atoms: C_5  and  C_6
REMARK    2  A    between atoms: C_6  and  C_7
REMARK    3  A    between atoms: C_7  and  C_8
REMARK    4  A    between atoms: C_12  and  C_13
REMARK                            x       y       z     vdW  Elec       q    Type
REMARK                         _______ _______ _______ _____ _____    ______ ____
ROOT
ATOM      1  C   UNL     1       3.520   6.235  18.228  0.00  0.00    +0.000 A 
ATOM      2  N   UNL     1       3.087   6.410  19.461  0.00  0.00    +0.000 NA
ATOM      3  C   UNL     1       2.342   7.564  19.440  0.00  0.00    +0.000 A 
ATOM      4  C   UNL     1       1.640   8.200  20.473  0.00  0.00    +0.000 A 
ATOM      5  C   UNL     1       0.927   9.382  20.195  0.00  0.00    +0.000 A 
ATOM      6  C   UNL     1       0.954   9.906  18.889  0.00  0.00    +0.000 A 
ATOM      7  C   UNL     1       1.653   9.287  17.847  0.00  0.00    +0.000 A 
ATOM      8  C   UNL     1       2.323   8.113  18.165  0.00  0.00    +0.000 A 
ATOM      9  N   UNL     1       3.064   7.243  17.412  0.00  0.00    +0.000 N 
ATOM     10  H   UNL     1       3.235   7.337  16.421  0.00  0.00    +0.000 HD
ENDROOT
BRANCH   5  11
ATOM     11  C   UNL     1       0.122  10.018  21.250  0.00  0.00    +0.000 A 
ATOM     12  C   UNL     1      -0.183   9.531  22.507  0.00  0.00    +0.000 A 
ATOM     13  C   UNL     1      -1.035  10.405  23.247  0.00  0.00    +0.000 A 
ATOM     14  C   UNL     1      -1.341  11.543  22.540  0.00  0.00    +0.000 A 
ATOM     15  S   UNL     1      -0.589  11.567  21.011  0.00  0.00    +0.000 S 
ENDBRANCH   5  11
BRANCH   1  16
ATOM     16  C   UNL     1       4.352   5.084  17.753  0.00  0.00    +0.000 C 
BRANCH  16  17
ATOM     17  C   UNL     1       3.566   3.780  17.593  0.00  0.00    +0.000 C 
BRANCH  17  22
ATOM     18  F   UNL     1       0.797   2.341  22.293  0.00  0.00    +0.000 F 
ATOM     19  C   UNL     1       1.450   2.673  21.173  0.00  0.00    +0.000 A 
ATOM     20  C   UNL     1       2.839   2.671  21.165  0.00  0.00    +0.000 A 
ATOM     21  C   UNL     1       3.521   3.021  19.999  0.00  0.00    +0.000 A 
ATOM     22  C   UNL     1       2.814   3.381  18.841  0.00  0.00    +0.000 A 
ATOM     23  C   UNL     1       1.411   3.370  18.866  0.00  0.00    +0.000 A 
ATOM     24  C   UNL     1       0.731   3.018  20.034  0.00  0.00    +0.000 A 
ENDBRANCH  17  22
ENDBRANCH  16  17
ENDBRANCH   1  16
TORSDOF 4
ENDMDL
MODEL 4
REMARK VINA RESULT:      -8.1      6.502      9.135
REMARK  Name = 
REMARK  4 active torsions:
REMARK  status: ('A' for Active; 'I' for Inactive)
REMARK    1  A    between atoms: C_5  and  C_6
REMARK    2  A    between atoms: C_6  and  C_7
REMARK    3  A    between atoms: C_7  and  C_8
REMARK    4  A    between atoms: C_12  and  C_13
REMARK                            x       y       z     vdW  Elec       q    Type
REMARK                         _______ _______ _______ _____ _____    ______ ____
ROOT
ATOM      1  C   UNL     1       3.450   6.311  18.212  0.00  0.00    +0.000 A 
ATOM      2  N   UNL     1       3.035   6.491  19.451  0.00  0.00    +0.000 NA
ATOM      3  C   UNL     1       2.281   7.639  19.433  0.00  0.00    +0.000 A 
ATOM      4  C   UNL     1       1.591   8.279  20.472  0.00  0.00    +0.000 A 
ATOM      5  C   UNL     1       0.866   9.453  20.197  0.00  0.00    +0.000 A 
ATOM      6  C   UNL     1       0.868   9.968  18.887  0.00  0.00    +0.000 A 
ATOM      7  C   UNL     1       1.556   9.347  17.839  0.00  0.00    +0.000 A 
ATOM      8  C   UNL     1       2.239   8.179  18.154  0.00  0.00    +0.000 A 
ATOM      9  N   UNL     1       2.974   7.310  17.397  0.00  0.00    +0.000 N 
ATOM     10  H   UNL     1       3.129   7.398  16.402  0.00  0.00    +0.000 HD
ENDROOT
BRANCH   5  11
ATOM     11  C   UNL     1       0.072  10.091  21.260  0.00  0.00    +0.000 A 
ATOM     12  C   UNL     1      -0.236   9.598  22.513  0.00  0.00    +0.000 A 
ATOM     13  C   UNL     1      -1.074  10.477  23.263  0.00  0.00    +0.000 A 
ATOM     14  C   UNL     1      -1.367  11.625  22.566  0.00  0.00    +0.000 A 
ATOM     15  S   UNL     1      -0.619  11.652  21.036  0.00  0.00    +0.000 S 
ENDBRANCH   5  11
BRANCH   1  16
ATOM     16  C   UNL     1       4.283   5.162  17.733  0.00  0.00    +0.000 C 
BRANCH  16  17
ATOM     17  C   UNL     1       3.507   3.849  17.603  0.00  0.00    +0.000 C 
BRANCH  17  22
ATOM     18  F   UNL     1       0.797   2.314  22.308  0.00  0.00    +0.000 F 
ATOM     19  C   UNL     1       1.444   2.687  21.197  0.00  0.00    +0.000 A 
ATOM     20  C   UNL     1       0.717   3.080  20.081  0.00  0.00    +0.000 A 
ATOM     21  C   UNL     1       1.389   3.465  18.921  0.00  0.00    +0.000 A 
ATOM     22  C   UNL     1       2.792   3.452  18.874  0.00  0.00    +0.000 A 
ATOM     23  C   UNL     1       3.510   3.059  20.013  0.00  0.00    +0.000 A 
ATOM     24  C   UNL     1       2.834   2.675  21.174  0.00  0.00    +0.000 A 
ENDBRANCH  17  22
ENDBRANCH  16  17
ENDBRANCH   1  16
TORSDOF 4
ENDMDL
MODEL 5
REMARK VINA RESULT:      -8.1      0.618      1.173
REMARK  Name = 
REMARK  4 active torsions:
REMARK  status: ('A' for Active; 'I' for Inactive)
REMARK    1  A    between atoms: C_5  and  C_6
REMARK    2  A    between atoms: C_6  and  C_7
REMARK    3  A    between atoms: C_7  and  C_8
REMARK    4  A    between atoms: C_12  and  C_13
REMARK                            x       y       z     vdW  Elec       q    Type
REMARK                         _______ _______ _______ _____ _____    ______ ____
ROOT
ATOM      1  C   UNL     1       7.541   7.308  17.461  0.00  0.00    +0.000 A 
ATOM      2  N   UNL     1       6.572   7.023  18.309  0.00  0.00    +0.000 NA
ATOM      3  C   UNL     1       5.828   6.033  17.714  0.00  0.00    +0.000 A 
ATOM      4  C   UNL     1       4.695   5.354  18.183  0.00  0.00    +0.000 A 
ATOM      5  C   UNL     1       4.112   4.353  17.383  0.00  0.00    +0.000 A 
ATOM      6  C   UNL     1       4.670   4.073  16.122  0.00  0.00    +0.000 A 
ATOM      7  C   UNL     1       5.797   4.745  15.635  0.00  0.00    +0.000 A 
ATOM      8  C   UNL     1       6.349   5.709  16.469  0.00  0.00    +0.000 A 
ATOM      9  N   UNL     1       7.444   6.519  16.340  0.00  0.00    +0.000 N 
ATOM     10  H   UNL     1       8.070   6.523  15.547  0.00  0.00    +0.000 HD
ENDROOT
BRANCH   5  11
ATOM     11  C   UNL     1       2.971   3.577  17.896  0.00  0.00    +0.000 A 
ATOM     12  C   UNL     1       1.657   3.979  18.041  0.00  0.00    +0.000 A 
ATOM     13  C   UNL     1       0.831   2.971  18.621  0.00  0.00    +0.000 A 
ATOM     14  C   UNL     1       1.535   1.820  18.886  0.00  0.00    +0.000 A 
ATOM     15  S   UNL     1       3.167   1.949  18.416  0.00  0.00    +0.000 S 
ENDBRANCH   5  11
BRANCH   1  16
ATOM     16  C   UNL     1       8.629   8.311  17.689  0.00  0.00    +0.000 C 
BRANCH  16  17
ATOM     17  C   UNL     1       8.116   9.693  18.105  0.00  0.00    +0.000 C 
BRANCH  17  22
ATOM     18  F   UNL     1      12.135  13.093  20.135  0.00  0.00    +0.000 F 
ATOM     19  C   UNL     1      11.187  12.277  19.658  0.00  0.00    +0.000 A 
ATOM     20  C   UNL     1      11.069  12.094  18.286  0.00  0.00    +0.000 A 
ATOM     21  C   UNL     1      10.078  11.248  17.787  0.00  0.00    +0.000 A 
ATOM     22  C   UNL     1       9.199  10.588  18.660  0.00  0.00    +0.000 A 
ATOM     23  C   UNL     1       9.338  10.779  20.043  0.00  0.00    +0.000 A 
ATOM     24  C   UNL     1      10.331  11.627  20.540  0.00  0.00    +0.000 A 
ENDBRANCH  17  22
ENDBRANCH  16  17
ENDBRANCH   1  16
TORSDOF 4
ENDMDL
MODEL 6
REMARK VINA RESULT:      -8.1      0.695      1.335
REMARK  Name = 
REMARK  4 active torsions:
REMARK  status: ('A' for Active; 'I' for Inactive)
REMARK    1  A    between atoms: C_5  and  C_6
REMARK    2  A    between atoms: C_6  and  C_7
REMARK    3  A    between atoms: C_7  and  C_8
REMARK    4  A    between atoms: C_12  and  C_13
REMARK                            x       y       z     vdW  Elec       q    Type
REMARK                         _______ _______ _______ _____ _____    ______ ____
ROOT
ATOM      1  C   UNL     1       7.458   7.813  17.331  0.00  0.00    +0.000 A 
ATOM      2  N   UNL     1       6.330   7.601  17.982  0.00  0.00    +0.000 NA
ATOM      3  C   UNL     1       5.865   6.385  17.544  0.00  0.00    +0.000 A 
ATOM      4  C   UNL     1       4.717   5.673  17.919  0.00  0.00    +0.000 A 
ATOM      5  C   UNL     1       4.461   4.420  17.330  0.00  0.00    +0.000 A 
ATOM      6  C   UNL     1       5.354   3.922  16.364  0.00  0.00    +0.000 A 
ATOM      7  C   UNL     1       6.502   4.621  15.973  0.00  0.00    +0.000 A 
ATOM      8  C   UNL     1       6.724   5.843  16.597  0.00  0.00    +0.000 A 
ATOM      9  N   UNL     1       7.733   6.760  16.492  0.00  0.00    +0.000 N 
ATOM     10  H   UNL     1       8.542   6.663  15.896  0.00  0.00    +0.000 HD
ENDROOT
BRANCH   5  11
ATOM     11  C   UNL     1       3.303   3.626  17.771  0.00  0.00    +0.000 A 
ATOM     12  C   UNL     1       3.184   2.252  17.847  0.00  0.00    +0.000 A 
ATOM     13  C   UNL     1       1.889   1.831  18.274  0.00  0.00    +0.000 A 
ATOM     14  C   UNL     1       1.061   2.898  18.529  0.00  0.00    +0.000 A 
ATOM     15  S   UNL     1       1.846   4.389  18.280  0.00  0.00    +0.000 S 
ENDBRANCH   5  11
BRANCH   1  16
ATOM     16  C   UNL     1       8.349   9.004  17.502  0.00  0.00    +0.000 C 
BRANCH  16  17
ATOM     17  C   UNL     1       8.733   9.284  18.958  0.00  0.00    +0.000 C 
BRANCH  17  22
ATOM     18  F   UNL     1      11.699  14.047  19.550  0.00  0.00    +0.000 F 
ATOM     19  C   UNL     1      11.004  12.911  19.414  0.00  0.00    +0.000 A 
ATOM     20  C   UNL     1      10.740  12.418  18.143  0.00  0.00    +0.000 A 
ATOM     21  C   UNL     1      10.012  11.237  17.999  0.00  0.00    +0.000 A 
ATOM     22  C   UNL     1       9.540  10.549  19.129  0.00  0.00    +0.000 A 
ATOM     23  C   UNL     1       9.823  11.058  20.405  0.00  0.00    +0.000 A 
ATOM     24  C   UNL     1      10.553  12.241  20.546  0.00  0.00    +0.000 A 
ENDBRANCH  17  22
ENDBRANCH  16  17
ENDBRANCH   1  16
TORSDOF 4
ENDMDL
MODEL 7
REMARK VINA RESULT:      -7.9      5.782      7.881
REMARK  Name = 
REMARK  4 active torsions:
REMARK  status: ('A' for Active; 'I' for Inactive)
REMARK    1  A    between atoms: C_5  and  C_6
REMARK    2  A    between atoms: C_6  and  C_7
REMARK    3  A    between atoms: C_7  and  C_8
REMARK    4  A    between atoms: C_12  and  C_13
REMARK                            x       y       z     vdW  Elec       q    Type
REMARK                         _______ _______ _______ _____ _____    ______ ____
ROOT
ATOM      1  C   UNL     1       3.152   5.496  18.860  0.00  0.00    +0.000 A 
ATOM      2  N   UNL     1       2.600   5.791  20.021  0.00  0.00    +0.000 NA
ATOM      3  C   UNL     1       2.094   7.062  19.885  0.00  0.00    +0.000 A 
ATOM      4  C   UNL     1       1.394   7.854  20.806  0.00  0.00    +0.000 A 
ATOM      5  C   UNL     1       0.960   9.136  20.420  0.00  0.00    +0.000 A 
ATOM      6  C   UNL     1       1.258   9.600  19.125  0.00  0.00    +0.000 A 
ATOM      7  C   UNL     1       1.960   8.825  18.195  0.00  0.00    +0.000 A 
ATOM      8  C   UNL     1       2.349   7.559  18.614  0.00  0.00    +0.000 A 
ATOM      9  N   UNL     1       3.006   6.541  17.979  0.00  0.00    +0.000 N 
ATOM     10  H   UNL     1       3.322   6.566  17.021  0.00  0.00    +0.000 HD
ENDROOT
BRANCH   5  11
ATOM     11  C   UNL     1       0.155   9.948  21.348  0.00  0.00    +0.000 A 
ATOM     12  C   UNL     1      -0.301   9.610  22.608  0.00  0.00    +0.000 A 
ATOM     13  C   UNL     1      -1.099  10.634  23.200  0.00  0.00    +0.000 A 
ATOM     14  C   UNL     1      -1.215  11.732  22.382  0.00  0.00    +0.000 A 
ATOM     15  S   UNL     1      -0.349  11.538  20.928  0.00  0.00    +0.000 S 
ENDBRANCH   5  11
BRANCH   1  16
ATOM     16  C   UNL     1       3.809   4.195  18.516  0.00  0.00    +0.000 C 
BRANCH  16  17
ATOM     17  C   UNL     1       5.333   4.284  18.404  0.00  0.00    +0.000 C 
BRANCH  17  22
ATOM     18  F   UNL     1       7.207   4.773  13.105  0.00  0.00    +0.000 F 
ATOM     19  C   UNL     1       6.756   4.666  14.361  0.00  0.00    +0.000 A 
ATOM     20  C   UNL     1       7.597   4.978  15.420  0.00  0.00    +0.000 A 
ATOM     21  C   UNL     1       7.130   4.862  16.729  0.00  0.00    +0.000 A 
ATOM     22  C   UNL     1       5.819   4.427  16.981  0.00  0.00    +0.000 A 
ATOM     23  C   UNL     1       4.980   4.123  15.898  0.00  0.00    +0.000 A 
ATOM     24  C   UNL     1       5.451   4.241  14.588  0.00  0.00    +0.000 A 
ENDBRANCH  17  22
ENDBRANCH  16  17
ENDBRANCH   1  16
TORSDOF 4
ENDMDL
MODEL 8
REMARK VINA RESULT:      -7.9      4.885      6.642
REMARK  Name = 
REMARK  4 active torsions:
REMARK  status: ('A' for Active; 'I' for Inactive)
REMARK    1  A    between atoms: C_5  and  C_6
REMARK    2  A    between atoms: C_6  and  C_7
REMARK    3  A    between atoms: C_7  and  C_8
REMARK    4  A    between atoms: C_12  and  C_13
REMARK                            x       y       z     vdW  Elec       q    Type
REMARK                         _______ _______ _______ _____ _____    ______ ____
ROOT
ATOM      1  C   UNL     1       3.296   5.460  18.558  0.00  0.00    +0.000 A 
ATOM      2  N   UNL     1       2.807   5.782  19.739  0.00  0.00    +0.000 NA
ATOM      3  C   UNL     1       2.225   7.017  19.583  0.00  0.00    +0.000 A 
ATOM      4  C   UNL     1       1.546   7.815  20.514  0.00  0.00    +0.000 A 
ATOM      5  C   UNL     1       1.018   9.053  20.104  0.00  0.00    +0.000 A 
ATOM      6  C   UNL     1       1.203   9.469  18.772  0.00  0.00    +0.000 A 
ATOM      7  C   UNL     1       1.882   8.688  17.831  0.00  0.00    +0.000 A 
ATOM      8  C   UNL     1       2.367   7.465  18.277  0.00  0.00    +0.000 A 
ATOM      9  N   UNL     1       3.035   6.453  17.644  0.00  0.00    +0.000 N 
ATOM     10  H   UNL     1       3.284   6.449  16.665  0.00  0.00    +0.000 HD
ENDROOT
BRANCH   5  11
ATOM     11  C   UNL     1       0.234   9.866  21.049  0.00  0.00    +0.000 A 
ATOM     12  C   UNL     1      -0.489  11.016  20.797  0.00  0.00    +0.000 A 
ATOM     13  C   UNL     1      -1.084  11.564  21.972  0.00  0.00    +0.000 A 
ATOM     14  C   UNL     1      -0.812  10.806  23.086  0.00  0.00    +0.000 A 
ATOM     15  S   UNL     1       0.129   9.436  22.712  0.00  0.00    +0.000 S 
ENDBRANCH   5  11
BRANCH   1  16
ATOM     16  C   UNL     1       3.998   4.180  18.226  0.00  0.00    +0.000 C 
BRANCH  16  17
ATOM     17  C   UNL     1       5.152   4.348  17.234  0.00  0.00    +0.000 C 
BRANCH  17  22
ATOM     18  F   UNL     1       9.019   8.110  18.885  0.00  0.00    +0.000 F 
ATOM     19  C   UNL     1       8.093   7.225  18.496  0.00  0.00    +0.000 A 
ATOM     20  C   UNL     1       7.876   6.083  19.255  0.00  0.00    +0.000 A 
ATOM     21  C   UNL     1       6.915   5.157  18.847  0.00  0.00    +0.000 A 
ATOM     22  C   UNL     1       6.173   5.370  17.675  0.00  0.00    +0.000 A 
ATOM     23  C   UNL     1       6.400   6.534  16.925  0.00  0.00    +0.000 A 
ATOM     24  C   UNL     1       7.363   7.459  17.335  0.00  0.00    +0.000 A 
ENDBRANCH  17  22
ENDBRANCH  16  17
ENDBRANCH   1  16
TORSDOF 4
ENDMDL
MODEL 9
REMARK VINA RESULT:      -7.8      5.958      8.054
REMARK  Name = 
REMARK  4 active torsions:
REMARK  status: ('A' for Active; 'I' for Inactive)
REMARK    1  A    between atoms: C_5  and  C_6
REMARK    2  A    between atoms: C_6  and  C_7
REMARK    3  A    between atoms: C_7  and  C_8
REMARK    4  A    between atoms: C_12  and  C_13
REMARK                            x       y       z     vdW  Elec       q    Type
REMARK                         _______ _______ _______ _____ _____    ______ ____
ROOT
ATOM      1  C   UNL     1       6.684   5.119  14.975  0.00  0.00    +0.000 A 
ATOM      2  N   UNL     1       6.312   4.104  15.730  0.00  0.00    +0.000 NA
ATOM      3  C   UNL     1       5.342   4.594  16.571  0.00  0.00    +0.000 A 
ATOM      4  C   UNL     1       4.597   3.940  17.562  0.00  0.00    +0.000 A 
ATOM      5  C   UNL     1       3.636   4.665  18.291  0.00  0.00    +0.000 A 
ATOM      6  C   UNL     1       3.460   6.035  18.019  0.00  0.00    +0.000 A 
ATOM      7  C   UNL     1       4.198   6.705  17.037  0.00  0.00    +0.000 A 
ATOM      8  C   UNL     1       5.120   5.943  16.330  0.00  0.00    +0.000 A 
ATOM      9  N   UNL     1       5.971   6.247  15.304  0.00  0.00    +0.000 N 
ATOM     10  H   UNL     1       6.049   7.154  14.866  0.00  0.00    +0.000 HD
ENDROOT
BRANCH   5  11
ATOM     11  C   UNL     1       2.792   3.975  19.280  0.00  0.00    +0.000 A 
ATOM     12  C   UNL     1       1.486   4.252  19.635  0.00  0.00    +0.000 A 
ATOM     13  C   UNL     1       1.002   3.401  20.673  0.00  0.00    +0.000 A 
ATOM     14  C   UNL     1       1.947   2.485  21.068  0.00  0.00    +0.000 A 
ATOM     15  S   UNL     1       3.393   2.636  20.179  0.00  0.00    +0.000 S 
ENDBRANCH   5  11
BRANCH   1  16
ATOM     16  C   UNL     1       7.703   5.060  13.880  0.00  0.00    +0.000 C 
BRANCH  16  17
ATOM     17  C   UNL     1       7.096   5.033  12.474  0.00  0.00    +0.000 C 
BRANCH  17  22
ATOM     18  F   UNL     1       5.696  -0.131  10.683  0.00  0.00    +0.000 F 
ATOM     19  C   UNL     1       6.033   1.090  11.117  0.00  0.00    +0.000 A 
ATOM     20  C   UNL     1       5.041   1.962  11.544  0.00  0.00    +0.000 A 
ATOM     21  C   UNL     1       5.391   3.236  11.992  0.00  0.00    +0.000 A 
ATOM     22  C   UNL     1       6.734   3.642  12.008  0.00  0.00    +0.000 A 
ATOM     23  C   UNL     1       7.724   2.744  11.580  0.00  0.00    +0.000 A 
ATOM     24  C   UNL     1       7.371   1.469  11.133  0.00  0.00    +0.000 A 
ENDBRANCH  17  22
ENDBRANCH  16  17
ENDBRANCH   1  16
TORSDOF 4
ENDMDL
