MODEL 1
REMARK VINA RESULT:      -7.7      0.000      0.000
REMARK  Name = 
REMARK  6 active torsions:
REMARK  status: ('A' for Active; 'I' for Inactive)
REMARK    1  A    between atoms: C_2  and  O_3
REMARK    2  A    between atoms: O_3  and  C_4
REMARK    3  A    between atoms: C_4  and  C_5
REMARK    4  A    between atoms: C_4  and  C_11
REMARK    5  A    between atoms: C_5  and  N_6
REMARK    6  A    between atoms: C_22  and  C_24
REMARK                            x       y       z     vdW  Elec       q    Type
REMARK                         _______ _______ _______ _____ _____    ______ ____
ROOT
ATOM      1  O   UNL     1       4.481   7.214  16.377  0.00  0.00    +0.000 OA
ATOM      2  C   UNL     1       3.988   6.937  17.457  0.00  0.00    +0.000 C 
ATOM      3  N   UNL     1       3.109   7.749  18.168  0.00  0.00    +0.000 N 
ATOM      4  C   UNL     1       2.561   7.298  19.445  0.00  0.00    +0.000 C 
ATOM      5  C   UNL     1       1.999   8.431  20.296  0.00  0.00    +0.000 C 
ATOM      6  N   UNL     1       1.045   9.230  19.534  0.00  0.00    +0.000 N 
ATOM      7  C   UNL     1      -0.208   9.492  20.107  0.00  0.00    +0.000 C 
ATOM      8  O   UNL     1      -0.518   8.945  21.169  0.00  0.00    +0.000 OA
ATOM      9  C   UNL     1       1.613   9.811  18.313  0.00  0.00    +0.000 C 
ATOM     10  C   UNL     1       2.393   8.798  17.445  0.00  0.00    +0.000 C 
ENDROOT
BRANCH   7  11
ATOM     11  C   UNL     1      -1.168  10.349  19.434  0.00  0.00    +0.000 A 
ATOM     12  C   UNL     1      -1.931  10.093  18.306  0.00  0.00    +0.000 A 
ATOM     13  C   UNL     1      -2.715  11.243  18.060  0.00  0.00    +0.000 A 
ATOM     14  C   UNL     1      -2.423  12.121  19.075  0.00  0.00    +0.000 A 
ATOM     15  O   UNL     1      -1.507  11.584  19.922  0.00  0.00    +0.000 OA
ENDBRANCH   7  11
BRANCH   2  16
ATOM     16  O   UNL     1       4.247   5.792  18.139  0.00  0.00    +0.000 OA
BRANCH  16  17
ATOM     17  C   UNL     1       3.608   4.571  17.710  0.00  0.00    +0.000 C 
BRANCH  17  18
ATOM     18  C   UNL     1       2.891   3.916  18.892  0.00  0.00    +0.000 A 
ATOM     19  C   UNL     1       3.630   3.323  19.935  0.00  0.00    +0.000 A 
ATOM     20  C   UNL     1       2.981   2.765  21.043  0.00  0.00    +0.000 A 
ATOM     21  C   UNL     1       1.592   2.783  21.120  0.00  0.00    +0.000 A 
ATOM     22 CL   UNL     1       0.793   2.089  22.477  0.00  0.00    +0.000 Cl
ATOM     23  C   UNL     1       0.843   3.367  20.102  0.00  0.00    +0.000 A 
ATOM     24  C   UNL     1       1.490   3.930  19.000  0.00  0.00    +0.000 A 
ENDBRANCH  17  18
BRANCH  17  25
ATOM     25  C   UNL     1       4.746   3.643  17.240  0.00  0.00    +0.000 C 
BRANCH  25  26
ATOM     26  N   UNL     1       5.665   4.226  16.277  0.00  0.00    +0.000 N 
ATOM     27  C   UNL     1       5.419   4.370  14.937  0.00  0.00    +0.000 A 
ATOM     28  C   UNL     1       6.570   4.909  14.418  0.00  0.00    +0.000 A 
ATOM     29  N   UNL     1       7.494   5.119  15.406  0.00  0.00    +0.000 NA
ATOM     30  C   UNL     1       6.917   4.715  16.517  0.00  0.00    +0.000 A 
ENDBRANCH  25  26
ENDBRANCH  17  25
ENDBRANCH  16  17
ENDBRANCH   2  16
TORSDOF 6
ENDMDL
MODEL 2
REMARK VINA RESULT:      -7.6      3.557      5.395
REMARK  Name = 
REMARK  6 active torsions:
REMARK  status: ('A' for Active; 'I' for Inactive)
REMARK    1  A    between atoms: C_2  and  O_3
REMARK    2  A    between atoms: O_3  and  C_4
REMARK    3  A    between atoms: C_4  and  C_5
REMARK    4  A    between atoms: C_4  and  C_11
REMARK    5  A    between atoms: C_5  and  N_6
REMARK    6  A    between atoms: C_22  and  C_24
REMARK                            x       y       z     vdW  Elec       q    Type
REMARK                         _______ _______ _______ _____ _____    ______ ____
ROOT
ATOM      1  O   UNL     1       1.650   6.610  20.845  0.00  0.00    +0.000 OA
ATOM      2  C   UNL     1       1.874   7.238  19.825  0.00  0.00    +0.000 C 
ATOM      3  N   UNL     1       1.577   8.584  19.631  0.00  0.00    +0.000 N 
ATOM      4  C   UNL     1       1.916   9.237  18.369  0.00  0.00    +0.000 C 
ATOM      5  C   UNL     1       1.150  10.535  18.136  0.00  0.00    +0.000 C 
ATOM      6  N   UNL     1       1.287  11.432  19.280  0.00  0.00    +0.000 N 
ATOM      7  C   UNL     1       1.668  12.760  19.039  0.00  0.00    +0.000 C 
ATOM      8  O   UNL     1       1.997  13.103  17.900  0.00  0.00    +0.000 OA
ATOM      9  C   UNL     1       0.822  10.845  20.541  0.00  0.00    +0.000 C 
ATOM     10  C   UNL     1       1.371   9.425  20.808  0.00  0.00    +0.000 C 
ENDROOT
BRANCH   7  11
ATOM     11  C   UNL     1       1.739  13.720  20.127  0.00  0.00    +0.000 A 
ATOM     12  C   UNL     1       0.830  14.701  20.489  0.00  0.00    +0.000 A 
ATOM     13  C   UNL     1       1.358  15.364  21.620  0.00  0.00    +0.000 A 
ATOM     14  C   UNL     1       2.536  14.723  21.915  0.00  0.00    +0.000 A 
ATOM     15  O   UNL     1       2.766  13.716  21.033  0.00  0.00    +0.000 OA
ENDBRANCH   7  11
BRANCH   2  16
ATOM     16  O   UNL     1       2.430   6.700  18.708  0.00  0.00    +0.000 OA
BRANCH  16  17
ATOM     17  C   UNL     1       3.216   5.496  18.839  0.00  0.00    +0.000 C 
BRANCH  17  18
ATOM     18  C   UNL     1       4.161   5.360  17.643  0.00  0.00    +0.000 A 
ATOM     19  C   UNL     1       4.598   4.089  17.221  0.00  0.00    +0.000 A 
ATOM     20  C   UNL     1       5.423   3.953  16.097  0.00  0.00    +0.000 A 
ATOM     21  C   UNL     1       5.828   5.080  15.389  0.00  0.00    +0.000 A 
ATOM     22 CL   UNL     1       6.850   4.915  14.015  0.00  0.00    +0.000 Cl
ATOM     23  C   UNL     1       5.404   6.345  15.787  0.00  0.00    +0.000 A 
ATOM     24  C   UNL     1       4.576   6.481  16.903  0.00  0.00    +0.000 A 
ENDBRANCH  17  18
BRANCH  17  25
ATOM     25  C   UNL     1       2.207   4.331  18.813  0.00  0.00    +0.000 C 
BRANCH  25  26
ATOM     26  N   UNL     1       2.140   3.541  20.031  0.00  0.00    +0.000 N 
ATOM     27  C   UNL     1       0.986   3.182  20.677  0.00  0.00    +0.000 A 
ATOM     28  C   UNL     1       1.400   2.499  21.794  0.00  0.00    +0.000 A 
ATOM     29  N   UNL     1       2.766   2.411  21.829  0.00  0.00    +0.000 NA
ATOM     30  C   UNL     1       3.184   3.032  20.747  0.00  0.00    +0.000 A 
ENDBRANCH  25  26
ENDBRANCH  17  25
ENDBRANCH  16  17
ENDBRANCH   2  16
TORSDOF 6
ENDMDL
MODEL 3
REMARK VINA RESULT:      -7.5      3.311      4.978
REMARK  Name = 
REMARK  6 active torsions:
REMARK  status: ('A' for Active; 'I' for Inactive)
REMARK    1  A    between atoms: C_2  and  O_3
REMARK    2  A    between atoms: O_3  and  C_4
REMARK    3  A    between atoms: C_4  and  C_5
REMARK    4  A    between atoms: C_4  and  C_11
REMARK    5  A    between atoms: C_5  and  N_6
REMARK    6  A    between atoms: C_22  and  C_24
REMARK                            x       y       z     vdW  Elec       q    Type
REMARK                         _______ _______ _______ _____ _____    ______ ____
ROOT
ATOM      1  O   UNL     1       1.673   6.121  20.946  0.00  0.00    +0.000 OA
ATOM      2  C   UNL     1       2.042   6.712  19.945  0.00  0.00    +0.000 C 
ATOM      3  N   UNL     1       1.742   8.037  19.641  0.00  0.00    +0.000 N 
ATOM      4  C   UNL     1       2.262   8.647  18.420  0.00  0.00    +0.000 C 
ATOM      5  C   UNL     1       1.507   9.905  18.004  0.00  0.00    +0.000 C 
ATOM      6  N   UNL     1       1.430  10.855  19.109  0.00  0.00    +0.000 N 
ATOM      7  C   UNL     1       1.806  12.183  18.869  0.00  0.00    +0.000 C 
ATOM      8  O   UNL     1       2.306  12.489  17.782  0.00  0.00    +0.000 OA
ATOM      9  C   UNL     1       0.784  10.306  20.306  0.00  0.00    +0.000 C 
ATOM     10  C   UNL     1       1.323   8.920  20.727  0.00  0.00    +0.000 C 
ENDROOT
BRANCH   7  11
ATOM     11  C   UNL     1       1.672  13.193  19.906  0.00  0.00    +0.000 A 
ATOM     12  C   UNL     1       2.637  13.705  20.758  0.00  0.00    +0.000 A 
ATOM     13  C   UNL     1       2.005  14.670  21.574  0.00  0.00    +0.000 A 
ATOM     14  C   UNL     1       0.701  14.728  21.146  0.00  0.00    +0.000 A 
ATOM     15  O   UNL     1       0.494  13.856  20.126  0.00  0.00    +0.000 OA
ENDBRANCH   7  11
BRANCH   2  16
ATOM     16  O   UNL     1       2.787   6.147  18.960  0.00  0.00    +0.000 OA
BRANCH  16  17
ATOM     17  C   UNL     1       4.092   5.628  19.293  0.00  0.00    +0.000 C 
BRANCH  17  18
ATOM     18  C   UNL     1       4.945   5.515  18.027  0.00  0.00    +0.000 A 
ATOM     19  C   UNL     1       6.128   4.751  18.030  0.00  0.00    +0.000 A 
ATOM     20  C   UNL     1       6.887   4.603  16.863  0.00  0.00    +0.000 A 
ATOM     21  C   UNL     1       6.482   5.222  15.684  0.00  0.00    +0.000 A 
ATOM     22 CL   UNL     1       7.419   5.050  14.252  0.00  0.00    +0.000 Cl
ATOM     23  C   UNL     1       5.314   5.979  15.659  0.00  0.00    +0.000 A 
ATOM     24  C   UNL     1       4.553   6.121  16.821  0.00  0.00    +0.000 A 
ENDBRANCH  17  18
BRANCH  17  25
ATOM     25  C   UNL     1       3.850   4.214  19.859  0.00  0.00    +0.000 C 
BRANCH  25  26
ATOM     26  N   UNL     1       2.860   3.422  19.149  0.00  0.00    +0.000 N 
ATOM     27  C   UNL     1       1.650   3.030  19.658  0.00  0.00    +0.000 A 
ATOM     28  C   UNL     1       1.078   2.265  18.671  0.00  0.00    +0.000 A 
ATOM     29  N   UNL     1       1.894   2.205  17.573  0.00  0.00    +0.000 NA
ATOM     30  C   UNL     1       2.951   2.923  17.882  0.00  0.00    +0.000 A 
ENDBRANCH  25  26
ENDBRANCH  17  25
ENDBRANCH  16  17
ENDBRANCH   2  16
TORSDOF 6
ENDMDL
MODEL 4
REMARK VINA RESULT:      -7.4      3.682      8.842
REMARK  Name = 
REMARK  6 active torsions:
REMARK  status: ('A' for Active; 'I' for Inactive)
REMARK    1  A    between atoms: C_2  and  O_3
REMARK    2  A    between atoms: O_3  and  C_4
REMARK    3  A    between atoms: C_4  and  C_5
REMARK    4  A    between atoms: C_4  and  C_11
REMARK    5  A    between atoms: C_5  and  N_6
REMARK    6  A    between atoms: C_22  and  C_24
REMARK                            x       y       z     vdW  Elec       q    Type
REMARK                         _______ _______ _______ _____ _____    ______ ____
ROOT
ATOM      1  O   UNL     1      -0.272  10.935  21.592  0.00  0.00    +0.000 OA
ATOM      2  C   UNL     1       0.055  10.547  20.484  0.00  0.00    +0.000 C 
ATOM      3  N   UNL     1       0.811   9.408  20.224  0.00  0.00    +0.000 N 
ATOM      4  C   UNL     1       1.120   9.028  18.847  0.00  0.00    +0.000 C 
ATOM      5  C   UNL     1       2.292   8.059  18.737  0.00  0.00    +0.000 C 
ATOM      6  N   UNL     1       2.093   6.900  19.601  0.00  0.00    +0.000 N 
ATOM      7  C   UNL     1       2.253   5.623  19.044  0.00  0.00    +0.000 C 
ATOM      8  O   UNL     1       2.433   5.506  17.829  0.00  0.00    +0.000 OA
ATOM      9  C   UNL     1       1.917   7.249  21.015  0.00  0.00    +0.000 C 
ATOM     10  C   UNL     1       0.888   8.376  21.256  0.00  0.00    +0.000 C 
ENDROOT
BRANCH   7  11
ATOM     11  C   UNL     1       2.150   4.434  19.872  0.00  0.00    +0.000 A 
ATOM     12  C   UNL     1       1.017   3.752  20.287  0.00  0.00    +0.000 A 
ATOM     13  C   UNL     1       1.449   2.656  21.067  0.00  0.00    +0.000 A 
ATOM     14  C   UNL     1       2.822   2.700  21.048  0.00  0.00    +0.000 A 
ATOM     15  O   UNL     1       3.256   3.756  20.313  0.00  0.00    +0.000 OA
ENDBRANCH   7  11
BRANCH   2  16
ATOM     16  O   UNL     1      -0.257  11.193  19.330  0.00  0.00    +0.000 OA
BRANCH  16  17
ATOM     17  C   UNL     1      -0.999  12.429  19.409  0.00  0.00    +0.000 C 
BRANCH  17  18
ATOM     18  C   UNL     1      -2.470  12.175  19.070  0.00  0.00    +0.000 A 
ATOM     19  C   UNL     1      -2.820  11.444  17.918  0.00  0.00    +0.000 A 
ATOM     20  C   UNL     1      -4.161  11.166  17.627  0.00  0.00    +0.000 A 
ATOM     21  C   UNL     1      -5.167  11.620  18.475  0.00  0.00    +0.000 A 
ATOM     22 CL   UNL     1      -6.816  11.288  18.114  0.00  0.00    +0.000 Cl
ATOM     23  C   UNL     1      -4.842  12.340  19.621  0.00  0.00    +0.000 A 
ATOM     24  C   UNL     1      -3.504  12.612  19.915  0.00  0.00    +0.000 A 
ENDBRANCH  17  18
BRANCH  17  25
ATOM     25  C   UNL     1      -0.392  13.353  18.335  0.00  0.00    +0.000 C 
BRANCH  25  26
ATOM     26  N   UNL     1       0.943  13.848  18.624  0.00  0.00    +0.000 N 
ATOM     27  C   UNL     1       1.233  14.915  19.434  0.00  0.00    +0.000 A 
ATOM     28  C   UNL     1       2.597  15.051  19.372  0.00  0.00    +0.000 A 
ATOM     29  N   UNL     1       3.144  14.084  18.571  0.00  0.00    +0.000 NA
ATOM     30  C   UNL     1       2.127  13.364  18.148  0.00  0.00    +0.000 A 
ENDBRANCH  25  26
ENDBRANCH  17  25
ENDBRANCH  16  17
ENDBRANCH   2  16
TORSDOF 6
ENDMDL
MODEL 5
REMARK VINA RESULT:      -7.3      3.583      5.435
REMARK  Name = 
REMARK  6 active torsions:
REMARK  status: ('A' for Active; 'I' for Inactive)
REMARK    1  A    between atoms: C_2  and  O_3
REMARK    2  A    between atoms: O_3  and  C_4
REMARK    3  A    between atoms: C_4  and  C_5
REMARK    4  A    between atoms: C_4  and  C_11
REMARK    5  A    between atoms: C_5  and  N_6
REMARK    6  A    between atoms: C_22  and  C_24
REMARK                            x       y       z     vdW  Elec       q    Type
REMARK                         _______ _______ _______ _____ _____    ______ ____
ROOT
ATOM      1  O   UNL     1       1.600   6.656  20.895  0.00  0.00    +0.000 OA
ATOM      2  C   UNL     1       1.806   7.280  19.869  0.00  0.00    +0.000 C 
ATOM      3  N   UNL     1       1.516   8.628  19.680  0.00  0.00    +0.000 N 
ATOM      4  C   UNL     1       1.831   9.278  18.409  0.00  0.00    +0.000 C 
ATOM      5  C   UNL     1       1.071  10.581  18.193  0.00  0.00    +0.000 C 
ATOM      6  N   UNL     1       1.242  11.479  19.331  0.00  0.00    +0.000 N 
ATOM      7  C   UNL     1       1.629  12.803  19.080  0.00  0.00    +0.000 C 
ATOM      8  O   UNL     1       1.934  13.142  17.933  0.00  0.00    +0.000 OA
ATOM      9  C   UNL     1       0.802  10.897  20.604  0.00  0.00    +0.000 C 
ATOM     10  C   UNL     1       1.345   9.473  20.860  0.00  0.00    +0.000 C 
ENDROOT
BRANCH   7  11
ATOM     11  C   UNL     1       1.734  13.764  20.164  0.00  0.00    +0.000 A 
ATOM     12  C   UNL     1       0.772  14.626  20.665  0.00  0.00    +0.000 A 
ATOM     13  C   UNL     1       1.367  15.348  21.725  0.00  0.00    +0.000 A 
ATOM     14  C   UNL     1       2.644  14.856  21.843  0.00  0.00    +0.000 A 
ATOM     15  O   UNL     1       2.869  13.885  20.921  0.00  0.00    +0.000 OA
ENDBRANCH   7  11
BRANCH   2  16
ATOM     16  O   UNL     1       2.331   6.736  18.740  0.00  0.00    +0.000 OA
BRANCH  16  17
ATOM     17  C   UNL     1       3.122   5.535  18.856  0.00  0.00    +0.000 C 
BRANCH  17  18
ATOM     18  C   UNL     1       4.022   5.384  17.627  0.00  0.00    +0.000 A 
ATOM     19  C   UNL     1       4.579   6.519  17.008  0.00  0.00    +0.000 A 
ATOM     20  C   UNL     1       5.442   6.386  15.913  0.00  0.00    +0.000 A 
ATOM     21  C   UNL     1       5.751   5.122  15.419  0.00  0.00    +0.000 A 
ATOM     22 CL   UNL     1       6.803   4.957  14.068  0.00  0.00    +0.000 Cl
ATOM     23  C   UNL     1       5.214   3.987  16.019  0.00  0.00    +0.000 A 
ATOM     24  C   UNL     1       4.359   4.119  17.115  0.00  0.00    +0.000 A 
ENDBRANCH  17  18
BRANCH  17  25
ATOM     25  C   UNL     1       2.114   4.368  18.883  0.00  0.00    +0.000 C 
BRANCH  25  26
ATOM     26  N   UNL     1       2.172   3.525  20.065  0.00  0.00    +0.000 N 
ATOM     27  C   UNL     1       3.266   2.809  20.473  0.00  0.00    +0.000 A 
ATOM     28  C   UNL     1       2.851   2.127  21.590  0.00  0.00    +0.000 A 
ATOM     29  N   UNL     1       1.549   2.429  21.884  0.00  0.00    +0.000 NA
ATOM     30  C   UNL     1       1.170   3.285  20.961  0.00  0.00    +0.000 A 
ENDBRANCH  25  26
ENDBRANCH  17  25
ENDBRANCH  16  17
ENDBRANCH   2  16
TORSDOF 6
ENDMDL
MODEL 6
REMARK VINA RESULT:      -7.3      2.696      4.537
REMARK  Name = 
REMARK  6 active torsions:
REMARK  status: ('A' for Active; 'I' for Inactive)
REMARK    1  A    between atoms: C_2  and  O_3
REMARK    2  A    between atoms: O_3  and  C_4
REMARK    3  A    between atoms: C_4  and  C_5
REMARK    4  A    between atoms: C_4  and  C_11
REMARK    5  A    between atoms: C_5  and  N_6
REMARK    6  A    between atoms: C_22  and  C_24
REMARK                            x       y       z     vdW  Elec       q    Type
REMARK                         _______ _______ _______ _____ _____    ______ ____
ROOT
ATOM      1  O   UNL     1       4.175   7.120  16.651  0.00  0.00    +0.000 OA
ATOM      2  C   UNL     1       3.600   6.762  17.664  0.00  0.00    +0.000 C 
ATOM      3  N   UNL     1       2.834   7.585  18.485  0.00  0.00    +0.000 N 
ATOM      4  C   UNL     1       2.168   7.035  19.663  0.00  0.00    +0.000 C 
ATOM      5  C   UNL     1       1.762   8.097  20.678  0.00  0.00    +0.000 C 
ATOM      6  N   UNL     1       0.981   9.153  20.042  0.00  0.00    +0.000 N 
ATOM      7  C   UNL     1      -0.236   9.524  20.631  0.00  0.00    +0.000 C 
ATOM      8  O   UNL     1      -0.674   8.876  21.586  0.00  0.00    +0.000 OA
ATOM      9  C   UNL     1       1.685   9.817  18.940  0.00  0.00    +0.000 C 
ATOM     10  C   UNL     1       2.327   8.839  17.931  0.00  0.00    +0.000 C 
ENDROOT
BRANCH   7  11
ATOM     11  C   UNL     1      -1.018  10.624  20.093  0.00  0.00    +0.000 A 
ATOM     12  C   UNL     1      -1.169  11.912  20.582  0.00  0.00    +0.000 A 
ATOM     13  C   UNL     1      -2.023  12.601  19.690  0.00  0.00    +0.000 A 
ATOM     14  C   UNL     1      -2.308  11.712  18.682  0.00  0.00    +0.000 A 
ATOM     15  O   UNL     1      -1.690  10.524  18.904  0.00  0.00    +0.000 OA
ENDBRANCH   7  11
BRANCH   2  16
ATOM     16  O   UNL     1       3.644   5.496  18.155  0.00  0.00    +0.000 OA
BRANCH  16  17
ATOM     17  C   UNL     1       4.924   4.838  18.255  0.00  0.00    +0.000 C 
BRANCH  17  18
ATOM     18  C   UNL     1       5.517   4.639  16.859  0.00  0.00    +0.000 A 
ATOM     19  C   UNL     1       4.770   3.997  15.852  0.00  0.00    +0.000 A 
ATOM     20  C   UNL     1       5.288   3.855  14.558  0.00  0.00    +0.000 A 
ATOM     21  C   UNL     1       6.556   4.342  14.257  0.00  0.00    +0.000 A 
ATOM     22 CL   UNL     1       7.197   4.160  12.671  0.00  0.00    +0.000 Cl
ATOM     23  C   UNL     1       7.309   4.982  15.237  0.00  0.00    +0.000 A 
ATOM     24  C   UNL     1       6.791   5.130  16.525  0.00  0.00    +0.000 A 
ENDBRANCH  17  18
BRANCH  17  25
ATOM     25  C   UNL     1       4.639   3.456  18.878  0.00  0.00    +0.000 C 
BRANCH  25  26
ATOM     26  N   UNL     1       3.240   3.178  19.158  0.00  0.00    +0.000 N 
ATOM     27  C   UNL     1       2.360   2.598  18.283  0.00  0.00    +0.000 A 
ATOM     28  C   UNL     1       1.157   2.582  18.945  0.00  0.00    +0.000 A 
ATOM     29  N   UNL     1       1.289   3.110  20.201  0.00  0.00    +0.000 NA
ATOM     30  C   UNL     1       2.557   3.445  20.308  0.00  0.00    +0.000 A 
ENDBRANCH  25  26
ENDBRANCH  17  25
ENDBRANCH  16  17
ENDBRANCH   2  16
TORSDOF 6
ENDMDL
MODEL 7
REMARK VINA RESULT:      -7.3      3.148      5.321
REMARK  Name = 
REMARK  6 active torsions:
REMARK  status: ('A' for Active; 'I' for Inactive)
REMARK    1  A    between atoms: C_2  and  O_3
REMARK    2  A    between atoms: O_3  and  C_4
REMARK    3  A    between atoms: C_4  and  C_5
REMARK    4  A    between atoms: C_4  and  C_11
REMARK    5  A    between atoms: C_5  and  N_6
REMARK    6  A    between atoms: C_22  and  C_24
REMARK                            x       y       z     vdW  Elec       q    Type
REMARK                         _______ _______ _______ _____ _____    ______ ____
ROOT
ATOM      1  O   UNL     1       1.745   7.436  21.470  0.00  0.00    +0.000 OA
ATOM      2  C   UNL     1       1.672   7.949  20.366  0.00  0.00    +0.000 C 
ATOM      3  N   UNL     1       0.954   9.101  20.063  0.00  0.00    +0.000 N 
ATOM      4  C   UNL     1       0.962   9.638  18.704  0.00  0.00    +0.000 C 
ATOM      5  C   UNL     1      -0.189  10.599  18.427  0.00  0.00    +0.000 C 
ATOM      6  N   UNL     1      -0.243  11.650  19.438  0.00  0.00    +0.000 N 
ATOM      7  C   UNL     1      -0.319  12.982  19.007  0.00  0.00    +0.000 C 
ATOM      8  O   UNL     1      -0.213  13.240  17.804  0.00  0.00    +0.000 OA
ATOM      9  C   UNL     1      -0.391  11.139  20.805  0.00  0.00    +0.000 C 
ATOM     10  C   UNL     1       0.596  10.003  21.156  0.00  0.00    +0.000 C 
ENDROOT
BRANCH   7  11
ATOM     11  C   UNL     1      -0.460  14.066  19.964  0.00  0.00    +0.000 A 
ATOM     12  C   UNL     1      -1.605  14.733  20.368  0.00  0.00    +0.000 A 
ATOM     13  C   UNL     1      -1.213  15.698  21.324  0.00  0.00    +0.000 A 
ATOM     14  C   UNL     1       0.142  15.537  21.484  0.00  0.00    +0.000 A 
ATOM     15  O   UNL     1       0.603  14.542  20.684  0.00  0.00    +0.000 OA
ENDBRANCH   7  11
BRANCH   2  16
ATOM     16  O   UNL     1       2.272   7.447  19.255  0.00  0.00    +0.000 OA
BRANCH  16  17
ATOM     17  C   UNL     1       2.883   6.142  19.329  0.00  0.00    +0.000 C 
BRANCH  17  18
ATOM     18  C   UNL     1       3.757   5.906  18.095  0.00  0.00    +0.000 A 
ATOM     19  C   UNL     1       4.049   4.596  17.668  0.00  0.00    +0.000 A 
ATOM     20  C   UNL     1       4.807   4.372  16.512  0.00  0.00    +0.000 A 
ATOM     21  C   UNL     1       5.290   5.450  15.776  0.00  0.00    +0.000 A 
ATOM     22 CL   UNL     1       6.231   5.177  14.362  0.00  0.00    +0.000 Cl
ATOM     23  C   UNL     1       5.010   6.752  16.179  0.00  0.00    +0.000 A 
ATOM     24  C   UNL     1       4.248   6.976  17.328  0.00  0.00    +0.000 A 
ENDBRANCH  17  18
BRANCH  17  25
ATOM     25  C   UNL     1       1.718   5.131  19.315  0.00  0.00    +0.000 C 
BRANCH  25  26
ATOM     26  N   UNL     1       1.756   4.126  20.363  0.00  0.00    +0.000 N 
ATOM     27  C   UNL     1       0.953   3.018  20.425  0.00  0.00    +0.000 A 
ATOM     28  C   UNL     1       1.297   2.392  21.598  0.00  0.00    +0.000 A 
ATOM     29  N   UNL     1       2.301   3.072  22.233  0.00  0.00    +0.000 NA
ATOM     30  C   UNL     1       2.569   4.102  21.460  0.00  0.00    +0.000 A 
ENDBRANCH  25  26
ENDBRANCH  17  25
ENDBRANCH  16  17
ENDBRANCH   2  16
TORSDOF 6
ENDMDL
MODEL 8
REMARK VINA RESULT:      -7.3      3.376      5.012
REMARK  Name = 
REMARK  6 active torsions:
REMARK  status: ('A' for Active; 'I' for Inactive)
REMARK    1  A    between atoms: C_2  and  O_3
REMARK    2  A    between atoms: O_3  and  C_4
REMARK    3  A    between atoms: C_4  and  C_5
REMARK    4  A    between atoms: C_4  and  C_11
REMARK    5  A    between atoms: C_5  and  N_6
REMARK    6  A    between atoms: C_22  and  C_24
REMARK                            x       y       z     vdW  Elec       q    Type
REMARK                         _______ _______ _______ _____ _____    ______ ____
ROOT
ATOM      1  O   UNL     1       1.916   5.792  20.922  0.00  0.00    +0.000 OA
ATOM      2  C   UNL     1       2.239   6.390  19.910  0.00  0.00    +0.000 C 
ATOM      3  N   UNL     1       1.886   7.702  19.608  0.00  0.00    +0.000 N 
ATOM      4  C   UNL     1       2.355   8.323  18.371  0.00  0.00    +0.000 C 
ATOM      5  C   UNL     1       1.547   9.552  17.969  0.00  0.00    +0.000 C 
ATOM      6  N   UNL     1       1.465  10.505  19.072  0.00  0.00    +0.000 N 
ATOM      7  C   UNL     1       1.790  11.844  18.817  0.00  0.00    +0.000 C 
ATOM      8  O   UNL     1       2.252  12.161  17.716  0.00  0.00    +0.000 OA
ATOM      9  C   UNL     1       0.868   9.940  20.287  0.00  0.00    +0.000 C 
ATOM     10  C   UNL     1       1.465   8.576  20.700  0.00  0.00    +0.000 C 
ENDROOT
BRANCH   7  11
ATOM     11  C   UNL     1       1.648  12.854  19.852  0.00  0.00    +0.000 A 
ATOM     12  C   UNL     1       0.496  13.331  20.456  0.00  0.00    +0.000 A 
ATOM     13  C   UNL     1       0.892  14.299  21.407  0.00  0.00    +0.000 A 
ATOM     14  C   UNL     1       2.264  14.326  21.366  0.00  0.00    +0.000 A 
ATOM     15  O   UNL     1       2.732  13.443  20.446  0.00  0.00    +0.000 OA
ENDBRANCH   7  11
BRANCH   2  16
ATOM     16  O   UNL     1       2.978   5.845  18.909  0.00  0.00    +0.000 OA
BRANCH  16  17
ATOM     17  C   UNL     1       4.338   5.452  19.190  0.00  0.00    +0.000 C 
BRANCH  17  18
ATOM     18  C   UNL     1       5.124   5.328  17.883  0.00  0.00    +0.000 A 
ATOM     19  C   UNL     1       4.618   5.884  16.692  0.00  0.00    +0.000 A 
ATOM     20  C   UNL     1       5.355   5.818  15.502  0.00  0.00    +0.000 A 
ATOM     21  C   UNL     1       6.596   5.189  15.485  0.00  0.00    +0.000 A 
ATOM     22 CL   UNL     1       7.497   5.097  14.022  0.00  0.00    +0.000 Cl
ATOM     23  C   UNL     1       7.115   4.637  16.652  0.00  0.00    +0.000 A 
ATOM     24  C   UNL     1       6.385   4.709  17.840  0.00  0.00    +0.000 A 
ENDBRANCH  17  18
BRANCH  17  25
ATOM     25  C   UNL     1       4.247   4.062  19.851  0.00  0.00    +0.000 C 
BRANCH  25  26
ATOM     26  N   UNL     1       3.287   3.151  19.251  0.00  0.00    +0.000 N 
ATOM     27  C   UNL     1       3.391   2.606  17.999  0.00  0.00    +0.000 A 
ATOM     28  C   UNL     1       2.249   1.862  17.836  0.00  0.00    +0.000 A 
ATOM     29  N   UNL     1       1.470   1.921  18.961  0.00  0.00    +0.000 NA
ATOM     30  C   UNL     1       2.127   2.690  19.802  0.00  0.00    +0.000 A 
ENDBRANCH  25  26
ENDBRANCH  17  25
ENDBRANCH  16  17
ENDBRANCH   2  16
TORSDOF 6
ENDMDL
MODEL 9
REMARK VINA RESULT:      -7.2      3.034      4.494
REMARK  Name = 
REMARK  6 active torsions:
REMARK  status: ('A' for Active; 'I' for Inactive)
REMARK    1  A    between atoms: C_2  and  O_3
REMARK    2  A    between atoms: O_3  and  C_4
REMARK    3  A    between atoms: C_4  and  C_5
REMARK    4  A    between atoms: C_4  and  C_11
REMARK    5  A    between atoms: C_5  and  N_6
REMARK    6  A    between atoms: C_22  and  C_24
REMARK                            x       y       z     vdW  Elec       q    Type
REMARK                         _______ _______ _______ _____ _____    ______ ____
ROOT
ATOM      1  O   UNL     1       2.475   8.376  17.552  0.00  0.00    +0.000 OA
ATOM      2  C   UNL     1       2.084   7.988  18.640  0.00  0.00    +0.000 C 
ATOM      3  N   UNL     1       1.650   8.811  19.675  0.00  0.00    +0.000 N 
ATOM      4  C   UNL     1       1.179   8.229  20.930  0.00  0.00    +0.000 C 
ATOM      5  C   UNL     1       1.171   9.219  22.089  0.00  0.00    +0.000 C 
ATOM      6  N   UNL     1       0.442  10.432  21.733  0.00  0.00    +0.000 N 
ATOM      7  C   UNL     1      -0.546  10.894  22.613  0.00  0.00    +0.000 C 
ATOM      8  O   UNL     1      -0.861  10.210  23.590  0.00  0.00    +0.000 OA
ATOM      9  C   UNL     1       0.984  11.113  20.552  0.00  0.00    +0.000 C 
ATOM     10  C   UNL     1       1.235  10.174  19.350  0.00  0.00    +0.000 C 
ENDROOT
BRANCH   7  11
ATOM     11  C   UNL     1      -1.247  12.141  22.354  0.00  0.00    +0.000 A 
ATOM     12  C   UNL     1      -2.282  12.395  21.468  0.00  0.00    +0.000 A 
ATOM     13  C   UNL     1      -2.620  13.761  21.600  0.00  0.00    +0.000 A 
ATOM     14  C   UNL     1      -1.807  14.255  22.591  0.00  0.00    +0.000 A 
ATOM     15  O   UNL     1      -0.989  13.281  23.067  0.00  0.00    +0.000 OA
ENDBRANCH   7  11
BRANCH   2  16
ATOM     16  O   UNL     1       2.038   6.682  19.009  0.00  0.00    +0.000 OA
BRANCH  16  17
ATOM     17  C   UNL     1       3.168   6.122  19.711  0.00  0.00    +0.000 C 
BRANCH  17  18
ATOM     18  C   UNL     1       4.199   5.602  18.706  0.00  0.00    +0.000 A 
ATOM     19  C   UNL     1       3.855   5.444  17.350  0.00  0.00    +0.000 A 
ATOM     20  C   UNL     1       4.807   5.016  16.416  0.00  0.00    +0.000 A 
ATOM     21  C   UNL     1       6.107   4.733  16.825  0.00  0.00    +0.000 A 
ATOM     22 CL   UNL     1       7.275   4.197  15.680  0.00  0.00    +0.000 Cl
ATOM     23  C   UNL     1       6.468   4.887  18.160  0.00  0.00    +0.000 A 
ATOM     24  C   UNL     1       5.521   5.320  19.090  0.00  0.00    +0.000 A 
ENDBRANCH  17  18
BRANCH  17  25
ATOM     25  C   UNL     1       2.614   4.931  20.518  0.00  0.00    +0.000 C 
BRANCH  25  26
ATOM     26  N   UNL     1       2.245   3.766  19.732  0.00  0.00    +0.000 N 
ATOM     27  C   UNL     1       2.989   2.621  19.618  0.00  0.00    +0.000 A 
ATOM     28  C   UNL     1       2.289   1.826  18.744  0.00  0.00    +0.000 A 
ATOM     29  N   UNL     1       1.134   2.443  18.347  0.00  0.00    +0.000 NA
ATOM     30  C   UNL     1       1.125   3.602  18.969  0.00  0.00    +0.000 A 
ENDBRANCH  25  26
ENDBRANCH  17  25
ENDBRANCH  16  17
ENDBRANCH   2  16
TORSDOF 6
ENDMDL
