MODEL 1
REMARK VINA RESULT:      -7.7      0.000      0.000
REMARK  Name = 
REMARK  8 active torsions:
REMARK  status: ('A' for Active; 'I' for Inactive)
REMARK    1  A    between atoms: C_1  and  C_2
REMARK    2  A    between atoms: C_2  and  C_3
REMARK    3  A    between atoms: C_2  and  N_4
REMARK    4  A    between atoms: N_4  and  C_5
REMARK    5  A    between atoms: C_10  and  N_11
REMARK    6  A    between atoms: C_14  and  O_15
REMARK    7  A    between atoms: O_15  and  C_16
REMARK    8  A    between atoms: N_28  and  C_29
REMARK                            x       y       z     vdW  Elec       q    Type
REMARK                         _______ _______ _______ _____ _____    ______ ____
ROOT
ATOM      1  C   UNL     1      -0.365  11.385  18.361  0.00  0.00    +0.000 A 
ATOM      2  N   UNL     1      -0.763  12.681  18.386  0.00  0.00    +0.000 NA
ATOM      3  C   UNL     1      -0.051  13.523  19.173  0.00  0.00    +0.000 A 
ATOM      4  C   UNL     1       1.054  13.090  19.893  0.00  0.00    +0.000 A 
ATOM      5  N   UNL     1       1.479  11.807  19.845  0.00  0.00    +0.000 NA
ATOM      6  C   UNL     1       0.779  10.932  19.078  0.00  0.00    +0.000 A 
ATOM      7  C   UNL     1       1.777  14.021  20.823  0.00  0.00    +0.000 C 
ATOM      8  C   UNL     1       1.514  15.494  20.500  0.00  0.00    +0.000 C 
ATOM      9  N   UNL     1       0.070  15.730  20.349  0.00  0.00    +0.000 NA
ATOM     10  C   UNL     1      -0.225  17.152  20.210  0.00  0.00    +0.000 C 
ATOM     11  C   UNL     1      -0.440  14.983  19.180  0.00  0.00    +0.000 C 
ENDROOT
BRANCH   6  12
ATOM     12  N   UNL     1       1.278   9.638  18.965  0.00  0.00    +0.000 N 
ATOM     13  C   UNL     1       0.747   8.649  19.890  0.00  0.00    +0.000 C 
ATOM     14  C   UNL     1       1.922   7.768  20.273  0.00  0.00    +0.000 C 
ATOM     15  C   UNL     1       2.551   7.091  19.045  0.00  0.00    +0.000 C 
ATOM     16  C   UNL     1       2.848   8.119  17.932  0.00  0.00    +0.000 C 
ATOM     17  C   UNL     1       1.667   9.064  17.674  0.00  0.00    +0.000 C 
BRANCH  15  18
ATOM     18  O   UNL     1       1.681   6.089  18.500  0.00  0.00    +0.000 OA
BRANCH  18  19
ATOM     19  C   UNL     1       2.169   4.811  18.405  0.00  0.00    +0.000 A 
ATOM     20  C   UNL     1       3.201   4.413  17.549  0.00  0.00    +0.000 A 
ATOM     21  C   UNL     1       3.686   3.103  17.580  0.00  0.00    +0.000 A 
ATOM     22  C   UNL     1       3.117   2.185  18.449  0.00  0.00    +0.000 A 
ATOM     23  F   UNL     1       3.582   0.927  18.470  0.00  0.00    +0.000 F 
ATOM     24  C   UNL     1       2.075   2.544  19.290  0.00  0.00    +0.000 A 
ATOM     25  C   UNL     1       1.618   3.860  19.272  0.00  0.00    +0.000 A 
ATOM     26  F   UNL     1       0.614   4.198  20.093  0.00  0.00    +0.000 F 
ENDBRANCH  18  19
ENDBRANCH  15  18
ENDBRANCH   6  12
BRANCH   1  27
ATOM     27  N   UNL     1      -1.080  10.498  17.532  0.00  0.00    +0.000 N 
ATOM     28  H   UNL     1      -0.440  10.133  16.832  0.00  0.00    +0.000 HD
BRANCH  27  30
ATOM     29  C   UNL     1      -2.588  10.338  15.654  0.00  0.00    +0.000 C 
ATOM     30  C   UNL     1      -2.379  10.945  17.045  0.00  0.00    +0.000 C 
ATOM     31  C   UNL     1      -3.492  10.441  17.976  0.00  0.00    +0.000 C 
ENDBRANCH  27  30
ENDBRANCH   1  27
TORSDOF 5
ENDMDL
MODEL 2
REMARK VINA RESULT:      -7.5      0.922      1.286
REMARK  Name = 
REMARK  8 active torsions:
REMARK  status: ('A' for Active; 'I' for Inactive)
REMARK    1  A    between atoms: C_1  and  C_2
REMARK    2  A    between atoms: C_2  and  C_3
REMARK    3  A    between atoms: C_2  and  N_4
REMARK    4  A    between atoms: N_4  and  C_5
REMARK    5  A    between atoms: C_10  and  N_11
REMARK    6  A    between atoms: C_14  and  O_15
REMARK    7  A    between atoms: O_15  and  C_16
REMARK    8  A    between atoms: N_28  and  C_29
REMARK                            x       y       z     vdW  Elec       q    Type
REMARK                         _______ _______ _______ _____ _____    ______ ____
ROOT
ATOM      1  C   UNL     1      -0.452  11.306  18.420  0.00  0.00    +0.000 A 
ATOM      2  N   UNL     1      -0.922  12.574  18.518  0.00  0.00    +0.000 NA
ATOM      3  C   UNL     1      -0.294  13.391  19.397  0.00  0.00    +0.000 A 
ATOM      4  C   UNL     1       0.800  12.964  20.138  0.00  0.00    +0.000 A 
ATOM      5  N   UNL     1       1.297  11.712  20.019  0.00  0.00    +0.000 NA
ATOM      6  C   UNL     1       0.681  10.862  19.158  0.00  0.00    +0.000 A 
ATOM      7  C   UNL     1       1.428  13.859  21.167  0.00  0.00    +0.000 C 
ATOM      8  C   UNL     1       1.098  15.337  20.937  0.00  0.00    +0.000 C 
ATOM      9  N   UNL     1      -0.348  15.508  20.733  0.00  0.00    +0.000 NA
ATOM     10  C   UNL     1      -0.715  16.920  20.682  0.00  0.00    +0.000 C 
ATOM     11  C   UNL     1      -0.763  14.825  19.490  0.00  0.00    +0.000 C 
ENDROOT
BRANCH   6  12
ATOM     12  N   UNL     1       1.256   9.606  18.977  0.00  0.00    +0.000 N 
ATOM     13  C   UNL     1       0.737   8.525  19.799  0.00  0.00    +0.000 C 
ATOM     14  C   UNL     1       1.940   7.680  20.176  0.00  0.00    +0.000 C 
ATOM     15  C   UNL     1       2.661   7.130  18.936  0.00  0.00    +0.000 C 
ATOM     16  C   UNL     1       2.953   8.252  17.917  0.00  0.00    +0.000 C 
ATOM     17  C   UNL     1       1.735   9.151  17.669  0.00  0.00    +0.000 C 
BRANCH  15  18
ATOM     18  O   UNL     1       1.875   6.128  18.277  0.00  0.00    +0.000 OA
BRANCH  18  19
ATOM     19  C   UNL     1       2.273   4.823  18.408  0.00  0.00    +0.000 A 
ATOM     20  C   UNL     1       1.654   3.879  19.235  0.00  0.00    +0.000 A 
ATOM     21  C   UNL     1       2.082   2.549  19.242  0.00  0.00    +0.000 A 
ATOM     22  C   UNL     1       3.148   2.171  18.440  0.00  0.00    +0.000 A 
ATOM     23  F   UNL     1       3.559   0.894  18.456  0.00  0.00    +0.000 F 
ATOM     24  C   UNL     1       3.798   3.090  17.631  0.00  0.00    +0.000 A 
ATOM     25  C   UNL     1       3.346   4.407  17.610  0.00  0.00    +0.000 A 
ATOM     26  F   UNL     1       3.977   5.287  16.819  0.00  0.00    +0.000 F 
ENDBRANCH  18  19
ENDBRANCH  15  18
ENDBRANCH   6  12
BRANCH   1  27
ATOM     27  N   UNL     1      -1.080  10.447  17.495  0.00  0.00    +0.000 N 
ATOM     28  H   UNL     1      -0.454  10.323  16.703  0.00  0.00    +0.000 HD
BRANCH  27  30
ATOM     29  C   UNL     1      -2.632  10.622  15.655  0.00  0.00    +0.000 C 
ATOM     30  C   UNL     1      -2.475  10.720  17.176  0.00  0.00    +0.000 C 
ATOM     31  C   UNL     1      -3.380   9.668  17.834  0.00  0.00    +0.000 C 
ENDBRANCH  27  30
ENDBRANCH   1  27
TORSDOF 5
ENDMDL
MODEL 3
REMARK VINA RESULT:      -7.4      3.699      6.236
REMARK  Name = 
REMARK  8 active torsions:
REMARK  status: ('A' for Active; 'I' for Inactive)
REMARK    1  A    between atoms: C_1  and  C_2
REMARK    2  A    between atoms: C_2  and  C_3
REMARK    3  A    between atoms: C_2  and  N_4
REMARK    4  A    between atoms: N_4  and  C_5
REMARK    5  A    between atoms: C_10  and  N_11
REMARK    6  A    between atoms: C_14  and  O_15
REMARK    7  A    between atoms: O_15  and  C_16
REMARK    8  A    between atoms: N_28  and  C_29
REMARK                            x       y       z     vdW  Elec       q    Type
REMARK                         _______ _______ _______ _____ _____    ______ ____
ROOT
ATOM      1  C   UNL     1       2.115   6.436  20.468  0.00  0.00    +0.000 A 
ATOM      2  N   UNL     1       1.214   7.301  20.996  0.00  0.00    +0.000 NA
ATOM      3  C   UNL     1       1.024   8.466  20.330  0.00  0.00    +0.000 A 
ATOM      4  C   UNL     1       1.692   8.747  19.146  0.00  0.00    +0.000 A 
ATOM      5  N   UNL     1       2.565   7.874  18.595  0.00  0.00    +0.000 NA
ATOM      6  C   UNL     1       2.792   6.703  19.244  0.00  0.00    +0.000 A 
ATOM      7  C   UNL     1       1.530  10.078  18.470  0.00  0.00    +0.000 C 
ATOM      8  C   UNL     1       0.251  10.802  18.903  0.00  0.00    +0.000 C 
ATOM      9  N   UNL     1       0.145  10.809  20.369  0.00  0.00    +0.000 NA
ATOM     10  C   UNL     1      -0.970  11.638  20.817  0.00  0.00    +0.000 C 
ATOM     11  C   UNL     1      -0.012   9.426  20.866  0.00  0.00    +0.000 C 
ENDROOT
BRANCH   6  12
ATOM     12  N   UNL     1       3.622   5.775  18.622  0.00  0.00    +0.000 N 
ATOM     13  C   UNL     1       3.839   5.945  17.194  0.00  0.00    +0.000 C 
ATOM     14  C   UNL     1       3.864   4.544  16.610  0.00  0.00    +0.000 C 
ATOM     15  C   UNL     1       4.973   3.685  17.237  0.00  0.00    +0.000 C 
ATOM     16  C   UNL     1       4.920   3.743  18.778  0.00  0.00    +0.000 C 
ATOM     17  C   UNL     1       4.769   5.175  19.308  0.00  0.00    +0.000 C 
BRANCH  15  18
ATOM     18  O   UNL     1       6.272   4.129  16.822  0.00  0.00    +0.000 OA
BRANCH  18  19
ATOM     19  C   UNL     1       6.520   4.194  15.476  0.00  0.00    +0.000 A 
ATOM     20  C   UNL     1       5.982   3.321  14.523  0.00  0.00    +0.000 A 
ATOM     21  C   UNL     1       6.229   3.515  13.162  0.00  0.00    +0.000 A 
ATOM     22  C   UNL     1       7.036   4.567  12.757  0.00  0.00    +0.000 A 
ATOM     23  F   UNL     1       7.274   4.744  11.449  0.00  0.00    +0.000 F 
ATOM     24  C   UNL     1       7.604   5.430  13.680  0.00  0.00    +0.000 A 
ATOM     25  C   UNL     1       7.330   5.246  15.033  0.00  0.00    +0.000 A 
ATOM     26  F   UNL     1       7.880   6.090  15.917  0.00  0.00    +0.000 F 
ENDBRANCH  18  19
ENDBRANCH  15  18
ENDBRANCH   6  12
BRANCH   1  27
ATOM     27  N   UNL     1       2.311   5.210  21.136  0.00  0.00    +0.000 N 
ATOM     28  H   UNL     1       3.274   4.920  20.990  0.00  0.00    +0.000 HD
BRANCH  27  30
ATOM     29  C   UNL     1       1.207   3.883  19.450  0.00  0.00    +0.000 C 
ATOM     30  C   UNL     1       1.295   4.183  20.949  0.00  0.00    +0.000 C 
ATOM     31  C   UNL     1       1.704   2.898  21.686  0.00  0.00    +0.000 C 
ENDBRANCH  27  30
ENDBRANCH   1  27
TORSDOF 5
ENDMDL
MODEL 4
REMARK VINA RESULT:      -7.4      0.909      1.036
REMARK  Name = 
REMARK  8 active torsions:
REMARK  status: ('A' for Active; 'I' for Inactive)
REMARK    1  A    between atoms: C_1  and  C_2
REMARK    2  A    between atoms: C_2  and  C_3
REMARK    3  A    between atoms: C_2  and  N_4
REMARK    4  A    between atoms: N_4  and  C_5
REMARK    5  A    between atoms: C_10  and  N_11
REMARK    6  A    between atoms: C_14  and  O_15
REMARK    7  A    between atoms: O_15  and  C_16
REMARK    8  A    between atoms: N_28  and  C_29
REMARK                            x       y       z     vdW  Elec       q    Type
REMARK                         _______ _______ _______ _____ _____    ______ ____
ROOT
ATOM      1  C   UNL     1      -0.573  11.365  18.551  0.00  0.00    +0.000 A 
ATOM      2  N   UNL     1      -0.989  12.648  18.412  0.00  0.00    +0.000 NA
ATOM      3  C   UNL     1      -0.154  13.614  18.864  0.00  0.00    +0.000 A 
ATOM      4  C   UNL     1       1.085  13.309  19.412  0.00  0.00    +0.000 A 
ATOM      5  N   UNL     1       1.523  12.034  19.521  0.00  0.00    +0.000 NA
ATOM      6  C   UNL     1       0.704  11.040  19.092  0.00  0.00    +0.000 A 
ATOM      7  C   UNL     1       1.958  14.389  19.984  0.00  0.00    +0.000 C 
ATOM      8  C   UNL     1       1.598  15.778  19.448  0.00  0.00    +0.000 C 
ATOM      9  N   UNL     1       0.149  16.001  19.554  0.00  0.00    +0.000 NA
ATOM     10  C   UNL     1      -0.204  17.376  19.212  0.00  0.00    +0.000 C 
ATOM     11  C   UNL     1      -0.569  15.054  18.675  0.00  0.00    +0.000 C 
ENDROOT
BRANCH   6  12
ATOM     12  N   UNL     1       1.201   9.740  19.126  0.00  0.00    +0.000 N 
ATOM     13  C   UNL     1       0.727   8.886  20.203  0.00  0.00    +0.000 C 
ATOM     14  C   UNL     1       1.926   8.061  20.634  0.00  0.00    +0.000 C 
ATOM     15  C   UNL     1       2.487   7.223  19.474  0.00  0.00    +0.000 C 
ATOM     16  C   UNL     1       2.716   8.092  18.219  0.00  0.00    +0.000 C 
ATOM     17  C   UNL     1       1.519   8.997  17.904  0.00  0.00    +0.000 C 
BRANCH  15  18
ATOM     18  O   UNL     1       1.593   6.160  19.119  0.00  0.00    +0.000 OA
BRANCH  18  19
ATOM     19  C   UNL     1       2.119   4.898  19.015  0.00  0.00    +0.000 A 
ATOM     20  C   UNL     1       2.998   4.322  19.938  0.00  0.00    +0.000 A 
ATOM     21  C   UNL     1       3.419   2.998  19.789  0.00  0.00    +0.000 A 
ATOM     22  C   UNL     1       2.980   2.261  18.700  0.00  0.00    +0.000 A 
ATOM     23  F   UNL     1       3.393   0.993  18.558  0.00  0.00    +0.000 F 
ATOM     24  C   UNL     1       2.131   2.814  17.755  0.00  0.00    +0.000 A 
ATOM     25  C   UNL     1       1.694   4.126  17.927  0.00  0.00    +0.000 A 
ATOM     26  F   UNL     1       0.867   4.650  17.011  0.00  0.00    +0.000 F 
ENDBRANCH  18  19
ENDBRANCH  15  18
ENDBRANCH   6  12
BRANCH   1  27
ATOM     27  N   UNL     1      -1.420  10.348  18.067  0.00  0.00    +0.000 N 
ATOM     28  H   UNL     1      -0.838   9.591  17.717  0.00  0.00    +0.000 HD
BRANCH  27  30
ATOM     29  C   UNL     1      -2.432   9.951  15.913  0.00  0.00    +0.000 C 
ATOM     30  C   UNL     1      -2.527  10.756  17.212  0.00  0.00    +0.000 C 
ATOM     31  C   UNL     1      -3.864  10.434  17.895  0.00  0.00    +0.000 C 
ENDBRANCH  27  30
ENDBRANCH   1  27
TORSDOF 5
ENDMDL
MODEL 5
REMARK VINA RESULT:      -7.2      2.233      2.292
REMARK  Name = 
REMARK  8 active torsions:
REMARK  status: ('A' for Active; 'I' for Inactive)
REMARK    1  A    between atoms: C_1  and  C_2
REMARK    2  A    between atoms: C_2  and  C_3
REMARK    3  A    between atoms: C_2  and  N_4
REMARK    4  A    between atoms: N_4  and  C_5
REMARK    5  A    between atoms: C_10  and  N_11
REMARK    6  A    between atoms: C_14  and  O_15
REMARK    7  A    between atoms: O_15  and  C_16
REMARK    8  A    between atoms: N_28  and  C_29
REMARK                            x       y       z     vdW  Elec       q    Type
REMARK                         _______ _______ _______ _____ _____    ______ ____
ROOT
ATOM      1  C   UNL     1      -1.448  11.425  18.967  0.00  0.00    +0.000 A 
ATOM      2  N   UNL     1      -2.234  12.446  19.391  0.00  0.00    +0.000 NA
ATOM      3  C   UNL     1      -2.157  12.769  20.704  0.00  0.00    +0.000 A 
ATOM      4  C   UNL     1      -1.290  12.114  21.568  0.00  0.00    +0.000 A 
ATOM      5  N   UNL     1      -0.477  11.120  21.145  0.00  0.00    +0.000 NA
ATOM      6  C   UNL     1      -0.539  10.759  19.837  0.00  0.00    +0.000 A 
ATOM      7  C   UNL     1      -1.282  12.432  23.036  0.00  0.00    +0.000 C 
ATOM      8  C   UNL     1      -1.888  13.805  23.341  0.00  0.00    +0.000 C 
ATOM      9  N   UNL     1      -3.183  13.949  22.659  0.00  0.00    +0.000 NA
ATOM     10  C   UNL     1      -3.864  15.175  23.066  0.00  0.00    +0.000 C 
ATOM     11  C   UNL     1      -2.982  13.936  21.195  0.00  0.00    +0.000 C 
ENDROOT
BRANCH   6  12
ATOM     12  N   UNL     1       0.365   9.798  19.393  0.00  0.00    +0.000 N 
ATOM     13  C   UNL     1       0.396   8.541  20.124  0.00  0.00    +0.000 C 
ATOM     14  C   UNL     1       1.858   8.136  20.187  0.00  0.00    +0.000 C 
ATOM     15  C   UNL     1       2.464   7.972  18.785  0.00  0.00    +0.000 C 
ATOM     16  C   UNL     1       2.172   9.204  17.903  0.00  0.00    +0.000 C 
ATOM     17  C   UNL     1       0.704   9.645  17.976  0.00  0.00    +0.000 C 
BRANCH  15  18
ATOM     18  O   UNL     1       1.934   6.817  18.120  0.00  0.00    +0.000 OA
BRANCH  18  19
ATOM     19  C   UNL     1       2.575   5.621  18.320  0.00  0.00    +0.000 A 
ATOM     20  C   UNL     1       3.784   5.470  19.008  0.00  0.00    +0.000 A 
ATOM     21  C   UNL     1       4.321   4.200  19.231  0.00  0.00    +0.000 A 
ATOM     22  C   UNL     1       3.661   3.084  18.740  0.00  0.00    +0.000 A 
ATOM     23  F   UNL     1       4.185   1.867  18.951  0.00  0.00    +0.000 F 
ATOM     24  C   UNL     1       2.476   3.206  18.032  0.00  0.00    +0.000 A 
ATOM     25  C   UNL     1       1.933   4.474  17.839  0.00  0.00    +0.000 A 
ATOM     26  F   UNL     1       0.784   4.580  17.158  0.00  0.00    +0.000 F 
ENDBRANCH  18  19
ENDBRANCH  15  18
ENDBRANCH   6  12
BRANCH   1  27
ATOM     27  N   UNL     1      -1.498  11.088  17.599  0.00  0.00    +0.000 N 
ATOM     28  H   UNL     1      -0.931  11.757  17.086  0.00  0.00    +0.000 HD
BRANCH  27  30
ATOM     29  C   UNL     1      -2.627  10.551  15.535  0.00  0.00    +0.000 C 
ATOM     30  C   UNL     1      -2.809  10.792  17.036  0.00  0.00    +0.000 C 
ATOM     31  C   UNL     1      -3.380   9.516  17.675  0.00  0.00    +0.000 C 
ENDBRANCH  27  30
ENDBRANCH   1  27
TORSDOF 5
ENDMDL
MODEL 6
REMARK VINA RESULT:      -7.2      4.090      6.734
REMARK  Name = 
REMARK  8 active torsions:
REMARK  status: ('A' for Active; 'I' for Inactive)
REMARK    1  A    between atoms: C_1  and  C_2
REMARK    2  A    between atoms: C_2  and  C_3
REMARK    3  A    between atoms: C_2  and  N_4
REMARK    4  A    between atoms: N_4  and  C_5
REMARK    5  A    between atoms: C_10  and  N_11
REMARK    6  A    between atoms: C_14  and  O_15
REMARK    7  A    between atoms: O_15  and  C_16
REMARK    8  A    between atoms: N_28  and  C_29
REMARK                            x       y       z     vdW  Elec       q    Type
REMARK                         _______ _______ _______ _____ _____    ______ ____
ROOT
ATOM      1  C   UNL     1       2.461   5.788  19.975  0.00  0.00    +0.000 A 
ATOM      2  N   UNL     1       1.601   6.300  20.890  0.00  0.00    +0.000 NA
ATOM      3  C   UNL     1       1.258   7.602  20.744  0.00  0.00    +0.000 A 
ATOM      4  C   UNL     1       1.734   8.369  19.689  0.00  0.00    +0.000 A 
ATOM      5  N   UNL     1       2.562   7.855  18.751  0.00  0.00    +0.000 NA
ATOM      6  C   UNL     1       2.939   6.557  18.876  0.00  0.00    +0.000 A 
ATOM      7  C   UNL     1       1.407   9.831  19.593  0.00  0.00    +0.000 C 
ATOM      8  C   UNL     1       0.169  10.209  20.410  0.00  0.00    +0.000 C 
ATOM      9  N   UNL     1       0.274   9.662  21.771  0.00  0.00    +0.000 NA
ATOM     10  C   UNL     1      -0.807  10.148  22.624  0.00  0.00    +0.000 C 
ATOM     11  C   UNL     1       0.262   8.185  21.719  0.00  0.00    +0.000 C 
ENDROOT
BRANCH   6  12
ATOM     12  N   UNL     1       3.718   6.015  17.857  0.00  0.00    +0.000 N 
ATOM     13  C   UNL     1       3.114   4.957  17.063  0.00  0.00    +0.000 C 
ATOM     14  C   UNL     1       4.225   3.959  16.791  0.00  0.00    +0.000 C 
ATOM     15  C   UNL     1       5.400   4.605  16.042  0.00  0.00    +0.000 C 
ATOM     16  C   UNL     1       5.856   5.907  16.736  0.00  0.00    +0.000 C 
ATOM     17  C   UNL     1       4.679   6.821  17.100  0.00  0.00    +0.000 C 
BRANCH  15  18
ATOM     18  O   UNL     1       5.044   4.926  14.691  0.00  0.00    +0.000 OA
BRANCH  18  19
ATOM     19  C   UNL     1       5.596   4.165  13.693  0.00  0.00    +0.000 A 
ATOM     20  C   UNL     1       4.899   3.216  12.936  0.00  0.00    +0.000 A 
ATOM     21  C   UNL     1       5.528   2.545  11.884  0.00  0.00    +0.000 A 
ATOM     22  C   UNL     1       6.861   2.805  11.608  0.00  0.00    +0.000 A 
ATOM     23  F   UNL     1       7.460   2.152  10.601  0.00  0.00    +0.000 F 
ATOM     24  C   UNL     1       7.583   3.720  12.357  0.00  0.00    +0.000 A 
ATOM     25  C   UNL     1       6.941   4.405  13.386  0.00  0.00    +0.000 A 
ATOM     26  F   UNL     1       7.646   5.292  14.101  0.00  0.00    +0.000 F 
ENDBRANCH  18  19
ENDBRANCH  15  18
ENDBRANCH   6  12
BRANCH   1  27
ATOM     27  N   UNL     1       2.813   4.429  20.099  0.00  0.00    +0.000 N 
ATOM     28  H   UNL     1       3.358   4.167  19.282  0.00  0.00    +0.000 HD
BRANCH  27  30
ATOM     29  C   UNL     1       1.549   2.519  19.337  0.00  0.00    +0.000 C 
ATOM     30  C   UNL     1       1.759   3.503  20.492  0.00  0.00    +0.000 C 
ATOM     31  C   UNL     1       2.190   2.715  21.738  0.00  0.00    +0.000 C 
ENDBRANCH  27  30
ENDBRANCH   1  27
TORSDOF 5
ENDMDL
MODEL 7
REMARK VINA RESULT:      -7.0      4.025      9.112
REMARK  Name = 
REMARK  8 active torsions:
REMARK  status: ('A' for Active; 'I' for Inactive)
REMARK    1  A    between atoms: C_1  and  C_2
REMARK    2  A    between atoms: C_2  and  C_3
REMARK    3  A    between atoms: C_2  and  N_4
REMARK    4  A    between atoms: N_4  and  C_5
REMARK    5  A    between atoms: C_10  and  N_11
REMARK    6  A    between atoms: C_14  and  O_15
REMARK    7  A    between atoms: O_15  and  C_16
REMARK    8  A    between atoms: N_28  and  C_29
REMARK                            x       y       z     vdW  Elec       q    Type
REMARK                         _______ _______ _______ _____ _____    ______ ____
ROOT
ATOM      1  C   UNL     1       2.821   5.950  19.688  0.00  0.00    +0.000 A 
ATOM      2  N   UNL     1       3.775   5.106  19.222  0.00  0.00    +0.000 NA
ATOM      3  C   UNL     1       4.410   5.473  18.083  0.00  0.00    +0.000 A 
ATOM      4  C   UNL     1       4.125   6.670  17.441  0.00  0.00    +0.000 A 
ATOM      5  N   UNL     1       3.200   7.534  17.919  0.00  0.00    +0.000 NA
ATOM      6  C   UNL     1       2.533   7.190  19.051  0.00  0.00    +0.000 A 
ATOM      7  C   UNL     1       4.781   7.017  16.135  0.00  0.00    +0.000 C 
ATOM      8  C   UNL     1       6.073   6.229  15.902  0.00  0.00    +0.000 C 
ATOM      9  N   UNL     1       5.844   4.798  16.145  0.00  0.00    +0.000 NA
ATOM     10  C   UNL     1       7.007   4.001  15.767  0.00  0.00    +0.000 C 
ATOM     11  C   UNL     1       5.514   4.578  17.569  0.00  0.00    +0.000 C 
ENDROOT
BRANCH   6  12
ATOM     12  N   UNL     1       1.650   8.126  19.583  0.00  0.00    +0.000 N 
ATOM     13  C   UNL     1       1.584   8.212  21.033  0.00  0.00    +0.000 C 
ATOM     14  C   UNL     1       0.121   8.441  21.366  0.00  0.00    +0.000 C 
ATOM     15  C   UNL     1      -0.419   9.723  20.714  0.00  0.00    +0.000 C 
ATOM     16  C   UNL     1      -0.084   9.766  19.208  0.00  0.00    +0.000 C 
ATOM     17  C   UNL     1       1.379   9.404  18.920  0.00  0.00    +0.000 C 
BRANCH  15  18
ATOM     18  O   UNL     1       0.141  10.894  21.324  0.00  0.00    +0.000 OA
BRANCH  18  19
ATOM     19  C   UNL     1      -0.726  11.884  21.708  0.00  0.00    +0.000 A 
ATOM     20  C   UNL     1      -0.952  13.066  20.993  0.00  0.00    +0.000 A 
ATOM     21  C   UNL     1      -1.915  13.983  21.422  0.00  0.00    +0.000 A 
ATOM     22  C   UNL     1      -2.632  13.728  22.581  0.00  0.00    +0.000 A 
ATOM     23  F   UNL     1      -3.551  14.615  22.991  0.00  0.00    +0.000 F 
ATOM     24  C   UNL     1      -2.410  12.579  23.323  0.00  0.00    +0.000 A 
ATOM     25  C   UNL     1      -1.468  11.658  22.873  0.00  0.00    +0.000 A 
ATOM     26  F   UNL     1      -1.264  10.547  23.595  0.00  0.00    +0.000 F 
ENDBRANCH  18  19
ENDBRANCH  15  18
ENDBRANCH   6  12
BRANCH   1  27
ATOM     27  N   UNL     1       2.163   5.595  20.883  0.00  0.00    +0.000 N 
ATOM     28  H   UNL     1       2.822   5.701  21.650  0.00  0.00    +0.000 HD
BRANCH  27  30
ATOM     29  C   UNL     1       1.183   3.954  19.411  0.00  0.00    +0.000 C 
ATOM     30  C   UNL     1       1.382   4.366  20.872  0.00  0.00    +0.000 C 
ATOM     31  C   UNL     1       2.147   3.250  21.600  0.00  0.00    +0.000 C 
ENDBRANCH  27  30
ENDBRANCH   1  27
TORSDOF 5
ENDMDL
MODEL 8
REMARK VINA RESULT:      -7.0      2.838      4.712
REMARK  Name = 
REMARK  8 active torsions:
REMARK  status: ('A' for Active; 'I' for Inactive)
REMARK    1  A    between atoms: C_1  and  C_2
REMARK    2  A    between atoms: C_2  and  C_3
REMARK    3  A    between atoms: C_2  and  N_4
REMARK    4  A    between atoms: N_4  and  C_5
REMARK    5  A    between atoms: C_10  and  N_11
REMARK    6  A    between atoms: C_14  and  O_15
REMARK    7  A    between atoms: O_15  and  C_16
REMARK    8  A    between atoms: N_28  and  C_29
REMARK                            x       y       z     vdW  Elec       q    Type
REMARK                         _______ _______ _______ _____ _____    ______ ____
ROOT
ATOM      1  C   UNL     1      -2.134  12.017  20.193  0.00  0.00    +0.000 A 
ATOM      2  N   UNL     1      -3.322  12.658  20.320  0.00  0.00    +0.000 NA
ATOM      3  C   UNL     1      -4.243  12.432  19.353  0.00  0.00    +0.000 A 
ATOM      4  C   UNL     1      -3.999  11.559  18.301  0.00  0.00    +0.000 A 
ATOM      5  N   UNL     1      -2.830  10.888  18.188  0.00  0.00    +0.000 NA
ATOM      6  C   UNL     1      -1.878  11.103  19.132  0.00  0.00    +0.000 A 
ATOM      7  C   UNL     1      -5.001  11.388  17.197  0.00  0.00    +0.000 C 
ATOM      8  C   UNL     1      -6.409  11.828  17.610  0.00  0.00    +0.000 C 
ATOM      9  N   UNL     1      -6.361  13.158  18.233  0.00  0.00    +0.000 NA
ATOM     10  C   UNL     1      -7.703  13.677  18.482  0.00  0.00    +0.000 C 
ATOM     11  C   UNL     1      -5.594  13.092  19.495  0.00  0.00    +0.000 C 
ENDROOT
BRANCH   6  12
ATOM     12  N   UNL     1      -0.716  10.340  19.055  0.00  0.00    +0.000 N 
ATOM     13  C   UNL     1      -0.553   9.295  20.053  0.00  0.00    +0.000 C 
ATOM     14  C   UNL     1       0.922   9.297  20.415  0.00  0.00    +0.000 C 
ATOM     15  C   UNL     1       1.810   9.031  19.189  0.00  0.00    +0.000 C 
ATOM     16  C   UNL     1       1.431   9.958  18.015  0.00  0.00    +0.000 C 
ATOM     17  C   UNL     1      -0.083  10.013  17.774  0.00  0.00    +0.000 C 
BRANCH  15  18
ATOM     18  O   UNL     1       1.686   7.675  18.740  0.00  0.00    +0.000 OA
BRANCH  18  19
ATOM     19  C   UNL     1       2.840   6.952  18.583  0.00  0.00    +0.000 A 
ATOM     20  C   UNL     1       3.772   7.151  17.559  0.00  0.00    +0.000 A 
ATOM     21  C   UNL     1       4.961   6.417  17.526  0.00  0.00    +0.000 A 
ATOM     22  C   UNL     1       5.202   5.465  18.503  0.00  0.00    +0.000 A 
ATOM     23  F   UNL     1       6.342   4.759  18.463  0.00  0.00    +0.000 F 
ATOM     24  C   UNL     1       4.285   5.227  19.514  0.00  0.00    +0.000 A 
ATOM     25  C   UNL     1       3.116   5.983  19.555  0.00  0.00    +0.000 A 
ATOM     26  F   UNL     1       2.237   5.749  20.540  0.00  0.00    +0.000 F 
ENDBRANCH  18  19
ENDBRANCH  15  18
ENDBRANCH   6  12
BRANCH   1  27
ATOM     27  N   UNL     1      -1.170  12.223  21.201  0.00  0.00    +0.000 N 
ATOM     28  H   UNL     1      -0.359  11.649  20.986  0.00  0.00    +0.000 HD
BRANCH  27  30
ATOM     29  C   UNL     1      -1.048  10.936  23.239  0.00  0.00    +0.000 C 
ATOM     30  C   UNL     1      -1.634  12.189  22.581  0.00  0.00    +0.000 C 
ATOM     31  C   UNL     1      -1.127  13.426  23.338  0.00  0.00    +0.000 C 
ENDBRANCH  27  30
ENDBRANCH   1  27
TORSDOF 5
ENDMDL
MODEL 9
REMARK VINA RESULT:      -7.0      4.313      9.229
REMARK  Name = 
REMARK  8 active torsions:
REMARK  status: ('A' for Active; 'I' for Inactive)
REMARK    1  A    between atoms: C_1  and  C_2
REMARK    2  A    between atoms: C_2  and  C_3
REMARK    3  A    between atoms: C_2  and  N_4
REMARK    4  A    between atoms: N_4  and  C_5
REMARK    5  A    between atoms: C_10  and  N_11
REMARK    6  A    between atoms: C_14  and  O_15
REMARK    7  A    between atoms: O_15  and  C_16
REMARK    8  A    between atoms: N_28  and  C_29
REMARK                            x       y       z     vdW  Elec       q    Type
REMARK                         _______ _______ _______ _____ _____    ______ ____
ROOT
ATOM      1  C   UNL     1       2.780   5.895  19.686  0.00  0.00    +0.000 A 
ATOM      2  N   UNL     1       3.701   5.035  19.184  0.00  0.00    +0.000 NA
ATOM      3  C   UNL     1       4.333   5.412  18.047  0.00  0.00    +0.000 A 
ATOM      4  C   UNL     1       4.079   6.635  17.442  0.00  0.00    +0.000 A 
ATOM      5  N   UNL     1       3.189   7.514  17.956  0.00  0.00    +0.000 NA
ATOM      6  C   UNL     1       2.525   7.161  19.087  0.00  0.00    +0.000 A 
ATOM      7  C   UNL     1       4.729   6.997  16.138  0.00  0.00    +0.000 C 
ATOM      8  C   UNL     1       5.992   6.174  15.865  0.00  0.00    +0.000 C 
ATOM      9  N   UNL     1       5.720   4.745  16.072  0.00  0.00    +0.000 NA
ATOM     10  C   UNL     1       6.851   3.922  15.656  0.00  0.00    +0.000 C 
ATOM     11  C   UNL     1       5.400   4.497  17.494  0.00  0.00    +0.000 C 
ENDROOT
BRANCH   6  12
ATOM     12  N   UNL     1       1.680   8.110  19.656  0.00  0.00    +0.000 N 
ATOM     13  C   UNL     1       1.641   8.164  21.109  0.00  0.00    +0.000 C 
ATOM     14  C   UNL     1       0.191   8.428  21.473  0.00  0.00    +0.000 C 
ATOM     15  C   UNL     1      -0.320   9.741  20.861  0.00  0.00    +0.000 C 
ATOM     16  C   UNL     1      -0.010   9.809  19.350  0.00  0.00    +0.000 C 
ATOM     17  C   UNL     1       1.436   9.411  19.028  0.00  0.00    +0.000 C 
BRANCH  15  18
ATOM     18  O   UNL     1       0.285  10.880  21.489  0.00  0.00    +0.000 OA
BRANCH  18  19
ATOM     19  C   UNL     1      -0.545  11.781  22.102  0.00  0.00    +0.000 A 
ATOM     20  C   UNL     1      -1.677  11.440  22.852  0.00  0.00    +0.000 A 
ATOM     21  C   UNL     1      -2.418  12.426  23.508  0.00  0.00    +0.000 A 
ATOM     22  C   UNL     1      -2.042  13.754  23.391  0.00  0.00    +0.000 A 
ATOM     23  F   UNL     1      -2.762  14.697  24.018  0.00  0.00    +0.000 F 
ATOM     24  C   UNL     1      -0.942  14.124  22.633  0.00  0.00    +0.000 A 
ATOM     25  C   UNL     1      -0.192  13.132  22.006  0.00  0.00    +0.000 A 
ATOM     26  F   UNL     1       0.873  13.499  21.280  0.00  0.00    +0.000 F 
ENDBRANCH  18  19
ENDBRANCH  15  18
ENDBRANCH   6  12
BRANCH   1  27
ATOM     27  N   UNL     1       2.127   5.529  20.880  0.00  0.00    +0.000 N 
ATOM     28  H   UNL     1       2.794   5.610  21.643  0.00  0.00    +0.000 HD
BRANCH  27  30
ATOM     29  C   UNL     1       1.153   3.902  19.387  0.00  0.00    +0.000 C 
ATOM     30  C   UNL     1       1.325   4.313  20.853  0.00  0.00    +0.000 C 
ATOM     31  C   UNL     1       2.054   3.186  21.599  0.00  0.00    +0.000 C 
ENDBRANCH  27  30
ENDBRANCH   1  27
TORSDOF 5
ENDMDL
