MODEL 1
REMARK VINA RESULT:      -8.2      0.000      0.000
REMARK  Name = 
REMARK  5 active torsions:
REMARK  status: ('A' for Active; 'I' for Inactive)
REMARK    1  A    between atoms: C_2  and  C_3
REMARK    2  A    between atoms: C_3  and  N_4
REMARK    3  A    between atoms: C_7  and  C_8
REMARK    4  A    between atoms: N_11  and  N_12
REMARK    5  A    between atoms: C_20  and  N_21
REMARK                            x       y       z     vdW  Elec       q    Type
REMARK                         _______ _______ _______ _____ _____    ______ ____
ROOT
ATOM      1  N   UNL     1       2.579   6.788  19.745  0.00  0.00    +0.000 NA
ATOM      2  C   UNL     1       2.103   7.886  19.247  0.00  0.00    +0.000 C 
ATOM      3  C   UNL     1       2.269   8.503  17.838  0.00  0.00    +0.000 C 
ATOM      4  O   UNL     1       2.668   7.977  16.823  0.00  0.00    +0.000 OA
ATOM      5  N   UNL     1       1.829   9.808  17.971  0.00  0.00    +0.000 N 
ATOM      6  C   UNL     1       1.315  10.036  19.240  0.00  0.00    +0.000 A 
ATOM      7  C   UNL     1       0.786  11.210  19.733  0.00  0.00    +0.000 A 
ATOM      8  C   UNL     1       0.285  11.194  21.043  0.00  0.00    +0.000 A 
ATOM      9  C   UNL     1       0.304   9.998  21.811  0.00  0.00    +0.000 A 
ATOM     10  C   UNL     1       0.865   8.819  21.304  0.00  0.00    +0.000 A 
ATOM     11  C   UNL     1       1.379   8.886  20.025  0.00  0.00    +0.000 A 
ATOM     12  H   UNL     1       1.826  10.457  17.196  0.00  0.00    +0.000 HD
ENDROOT
BRANCH   1  20
ATOM     13  N   UNL     1       1.819   4.099  18.954  0.00  0.00    +0.000 N 
ATOM     14  C   UNL     1       1.649   2.885  18.309  0.00  0.00    +0.000 C 
ATOM     15  O   UNL     1       0.677   2.145  18.426  0.00  0.00    +0.000 OA
ATOM     16  C   UNL     1       2.868   2.493  17.514  0.00  0.00    +0.000 C 
ATOM     17  C   UNL     1       3.702   1.529  18.346  0.00  0.00    +0.000 C 
ATOM     18  S   UNL     1       3.773   4.032  17.262  0.00  0.00    +0.000 S 
ATOM     19  C   UNL     1       2.859   4.871  18.504  0.00  0.00    +0.000 C 
ATOM     20  N   UNL     1       3.279   6.052  18.818  0.00  0.00    +0.000 NA
BRANCH  13  21
ATOM     21  C   UNL     1       0.926   4.414  20.053  0.00  0.00    +0.000 C 
BRANCH  21  23
ATOM     22  C   UNL     1       2.311   3.186  21.749  0.00  0.00    +0.000 C 
ATOM     23  C   UNL     1       1.124   3.457  21.189  0.00  0.00    +0.000 C 
ENDBRANCH  21  23
ENDBRANCH  13  21
ENDBRANCH   1  20
BRANCH   9  24
ATOM     24  N   UNL     1      -0.277   9.997  23.157  0.00  0.00    +0.000 N 
ATOM     25  O   UNL     1       0.404   9.526  24.078  0.00  0.00    +0.000 OA
ATOM     26  O   UNL     1      -1.413  10.472  23.291  0.00  0.00    +0.000 OA
ENDBRANCH   9  24
TORSDOF 4
ENDMDL
MODEL 2
REMARK VINA RESULT:      -7.1      4.653      8.292
REMARK  Name = 
REMARK  5 active torsions:
REMARK  status: ('A' for Active; 'I' for Inactive)
REMARK    1  A    between atoms: C_2  and  C_3
REMARK    2  A    between atoms: C_3  and  N_4
REMARK    3  A    between atoms: C_7  and  C_8
REMARK    4  A    between atoms: N_11  and  N_12
REMARK    5  A    between atoms: C_20  and  N_21
REMARK                            x       y       z     vdW  Elec       q    Type
REMARK                         _______ _______ _______ _____ _____    ______ ____
ROOT
ATOM      1  N   UNL     1       4.457   4.831  16.492  0.00  0.00    +0.000 NA
ATOM      2  C   UNL     1       5.627   4.948  15.946  0.00  0.00    +0.000 C 
ATOM      3  C   UNL     1       6.885   5.709  16.425  0.00  0.00    +0.000 C 
ATOM      4  O   UNL     1       7.131   6.150  17.526  0.00  0.00    +0.000 OA
ATOM      5  N   UNL     1       7.709   5.761  15.315  0.00  0.00    +0.000 N 
ATOM      6  C   UNL     1       7.171   5.039  14.258  0.00  0.00    +0.000 A 
ATOM      7  C   UNL     1       7.709   4.864  13.001  0.00  0.00    +0.000 A 
ATOM      8  C   UNL     1       7.001   4.053  12.101  0.00  0.00    +0.000 A 
ATOM      9  C   UNL     1       5.791   3.419  12.496  0.00  0.00    +0.000 A 
ATOM     10  C   UNL     1       5.247   3.624  13.769  0.00  0.00    +0.000 A 
ATOM     11  C   UNL     1       5.954   4.458  14.611  0.00  0.00    +0.000 A 
ATOM     12  H   UNL     1       8.615   6.209  15.336  0.00  0.00    +0.000 HD
ENDROOT
BRANCH   1  20
ATOM     13  N   UNL     1       2.488   4.121  18.506  0.00  0.00    +0.000 N 
ATOM     14  C   UNL     1       1.767   3.933  19.673  0.00  0.00    +0.000 C 
ATOM     15  O   UNL     1       0.963   3.028  19.878  0.00  0.00    +0.000 OA
ATOM     16  C   UNL     1       1.988   5.052  20.659  0.00  0.00    +0.000 C 
ATOM     17  C   UNL     1       0.839   6.044  20.533  0.00  0.00    +0.000 C 
ATOM     18  S   UNL     1       3.532   5.826  20.145  0.00  0.00    +0.000 S 
ATOM     19  C   UNL     1       3.498   5.045  18.573  0.00  0.00    +0.000 C 
ATOM     20  N   UNL     1       4.391   5.437  17.724  0.00  0.00    +0.000 NA
BRANCH  13  21
ATOM     21  C   UNL     1       2.085   3.370  17.331  0.00  0.00    +0.000 C 
BRANCH  21  23
ATOM     22  C   UNL     1       3.699   1.591  18.059  0.00  0.00    +0.000 C 
ATOM     23  C   UNL     1       2.591   1.961  17.404  0.00  0.00    +0.000 C 
ENDBRANCH  21  23
ENDBRANCH  13  21
ENDBRANCH   1  20
BRANCH   9  24
ATOM     24  N   UNL     1       5.102   2.532  11.553  0.00  0.00    +0.000 N 
ATOM     25  O   UNL     1       5.645   1.456  11.273  0.00  0.00    +0.000 OA
ATOM     26  O   UNL     1       4.015   2.913  11.099  0.00  0.00    +0.000 OA
ENDBRANCH   9  24
TORSDOF 4
ENDMDL
MODEL 3
REMARK VINA RESULT:      -7.0      2.873      7.731
REMARK  Name = 
REMARK  5 active torsions:
REMARK  status: ('A' for Active; 'I' for Inactive)
REMARK    1  A    between atoms: C_2  and  C_3
REMARK    2  A    between atoms: C_3  and  N_4
REMARK    3  A    between atoms: C_7  and  C_8
REMARK    4  A    between atoms: N_11  and  N_12
REMARK    5  A    between atoms: C_20  and  N_21
REMARK                            x       y       z     vdW  Elec       q    Type
REMARK                         _______ _______ _______ _____ _____    ______ ____
ROOT
ATOM      1  N   UNL     1       2.489   7.521  19.489  0.00  0.00    +0.000 NA
ATOM      2  C   UNL     1       2.579   6.237  19.344  0.00  0.00    +0.000 C 
ATOM      3  C   UNL     1       2.046   5.087  20.230  0.00  0.00    +0.000 C 
ATOM      4  O   UNL     1       1.219   5.132  21.112  0.00  0.00    +0.000 OA
ATOM      5  N   UNL     1       2.706   3.958  19.776  0.00  0.00    +0.000 N 
ATOM      6  C   UNL     1       3.484   4.246  18.663  0.00  0.00    +0.000 A 
ATOM      7  C   UNL     1       4.275   3.376  17.944  0.00  0.00    +0.000 A 
ATOM      8  C   UNL     1       4.945   3.887  16.822  0.00  0.00    +0.000 A 
ATOM      9  C   UNL     1       4.781   5.246  16.438  0.00  0.00    +0.000 A 
ATOM     10  C   UNL     1       3.992   6.123  17.192  0.00  0.00    +0.000 A 
ATOM     11  C   UNL     1       3.380   5.590  18.308  0.00  0.00    +0.000 A 
ATOM     12  H   UNL     1       2.552   3.045  20.181  0.00  0.00    +0.000 HD
ENDROOT
BRANCH   1  20
ATOM     13  N   UNL     1       0.514   9.651  19.431  0.00  0.00    +0.000 N 
ATOM     14  C   UNL     1      -0.545  10.509  19.676  0.00  0.00    +0.000 C 
ATOM     15  O   UNL     1      -1.124  11.188  18.833  0.00  0.00    +0.000 OA
ATOM     16  C   UNL     1      -0.853  10.620  21.148  0.00  0.00    +0.000 C 
ATOM     17  C   UNL     1      -0.178  11.871  21.692  0.00  0.00    +0.000 C 
ATOM     18  S   UNL     1      -0.116   9.150  21.888  0.00  0.00    +0.000 S 
ATOM     19  C   UNL     1       0.855   8.817  20.464  0.00  0.00    +0.000 C 
ATOM     20  N   UNL     1       1.730   7.872  20.581  0.00  0.00    +0.000 NA
BRANCH  13  21
ATOM     21  C   UNL     1       1.180   9.745  18.145  0.00  0.00    +0.000 C 
BRANCH  21  23
ATOM     22  C   UNL     1       2.201  12.037  18.201  0.00  0.00    +0.000 C 
ATOM     23  C   UNL     1       2.329  10.704  18.211  0.00  0.00    +0.000 C 
ENDBRANCH  21  23
ENDBRANCH  13  21
ENDBRANCH   1  20
BRANCH   9  24
ATOM     24  N   UNL     1       5.449   5.739  15.229  0.00  0.00    +0.000 N 
ATOM     25  O   UNL     1       6.150   4.940  14.593  0.00  0.00    +0.000 OA
ATOM     26  O   UNL     1       5.267   6.923  14.917  0.00  0.00    +0.000 OA
ENDBRANCH   9  24
TORSDOF 4
ENDMDL
MODEL 4
REMARK VINA RESULT:      -6.7      4.819      8.293
REMARK  Name = 
REMARK  5 active torsions:
REMARK  status: ('A' for Active; 'I' for Inactive)
REMARK    1  A    between atoms: C_2  and  C_3
REMARK    2  A    between atoms: C_3  and  N_4
REMARK    3  A    between atoms: C_7  and  C_8
REMARK    4  A    between atoms: N_11  and  N_12
REMARK    5  A    between atoms: C_20  and  N_21
REMARK                            x       y       z     vdW  Elec       q    Type
REMARK                         _______ _______ _______ _____ _____    ______ ____
ROOT
ATOM      1  N   UNL     1       4.075   4.931  16.248  0.00  0.00    +0.000 NA
ATOM      2  C   UNL     1       5.305   5.056  15.858  0.00  0.00    +0.000 C 
ATOM      3  C   UNL     1       6.472   5.871  16.463  0.00  0.00    +0.000 C 
ATOM      4  O   UNL     1       6.558   6.367  17.564  0.00  0.00    +0.000 OA
ATOM      5  N   UNL     1       7.436   5.895  15.471  0.00  0.00    +0.000 N 
ATOM      6  C   UNL     1       7.060   5.112  14.388  0.00  0.00    +0.000 A 
ATOM      7  C   UNL     1       7.765   4.895  13.223  0.00  0.00    +0.000 A 
ATOM      8  C   UNL     1       7.201   4.026  12.278  0.00  0.00    +0.000 A 
ATOM      9  C   UNL     1       5.963   3.378  12.538  0.00  0.00    +0.000 A 
ATOM     10  C   UNL     1       5.248   3.625  13.716  0.00  0.00    +0.000 A 
ATOM     11  C   UNL     1       5.819   4.514  14.604  0.00  0.00    +0.000 A 
ATOM     12  H   UNL     1       8.321   6.368  15.591  0.00  0.00    +0.000 HD
ENDROOT
BRANCH   1  20
ATOM     13  N   UNL     1       3.694   3.560  18.781  0.00  0.00    +0.000 N 
ATOM     14  C   UNL     1       3.588   3.209  20.115  0.00  0.00    +0.000 C 
ATOM     15  O   UNL     1       3.759   2.082  20.573  0.00  0.00    +0.000 OA
ATOM     16  C   UNL     1       3.111   4.358  20.966  0.00  0.00    +0.000 C 
ATOM     17  C   UNL     1       1.610   4.216  21.177  0.00  0.00    +0.000 C 
ATOM     18  S   UNL     1       3.459   5.833  19.989  0.00  0.00    +0.000 S 
ATOM     19  C   UNL     1       3.698   4.906  18.519  0.00  0.00    +0.000 C 
ATOM     20  N   UNL     1       3.832   5.591  17.430  0.00  0.00    +0.000 NA
BRANCH  13  21
ATOM     21  C   UNL     1       3.747   2.492  17.799  0.00  0.00    +0.000 C 
BRANCH  21  23
ATOM     22  C   UNL     1       1.296   2.143  18.216  0.00  0.00    +0.000 C 
ATOM     23  C   UNL     1       2.365   2.059  17.413  0.00  0.00    +0.000 C 
ENDBRANCH  21  23
ENDBRANCH  13  21
ENDBRANCH   1  20
BRANCH   9  24
ATOM     24  N   UNL     1       5.425   2.431  11.556  0.00  0.00    +0.000 N 
ATOM     25  O   UNL     1       6.132   1.465  11.241  0.00  0.00    +0.000 OA
ATOM     26  O   UNL     1       4.293   2.655  11.106  0.00  0.00    +0.000 OA
ENDBRANCH   9  24
TORSDOF 4
ENDMDL
MODEL 5
REMARK VINA RESULT:      -6.4      2.457      6.812
REMARK  Name = 
REMARK  5 active torsions:
REMARK  status: ('A' for Active; 'I' for Inactive)
REMARK    1  A    between atoms: C_2  and  C_3
REMARK    2  A    between atoms: C_3  and  N_4
REMARK    3  A    between atoms: C_7  and  C_8
REMARK    4  A    between atoms: N_11  and  N_12
REMARK    5  A    between atoms: C_20  and  N_21
REMARK                            x       y       z     vdW  Elec       q    Type
REMARK                         _______ _______ _______ _____ _____    ______ ____
ROOT
ATOM      1  N   UNL     1       2.109   7.681  19.113  0.00  0.00    +0.000 NA
ATOM      2  C   UNL     1       2.932   6.807  18.626  0.00  0.00    +0.000 C 
ATOM      3  C   UNL     1       3.888   6.895  17.414  0.00  0.00    +0.000 C 
ATOM      4  O   UNL     1       4.257   7.877  16.810  0.00  0.00    +0.000 OA
ATOM      5  N   UNL     1       4.268   5.587  17.169  0.00  0.00    +0.000 N 
ATOM      6  C   UNL     1       3.761   4.729  18.136  0.00  0.00    +0.000 A 
ATOM      7  C   UNL     1       3.933   3.363  18.220  0.00  0.00    +0.000 A 
ATOM      8  C   UNL     1       3.357   2.706  19.317  0.00  0.00    +0.000 A 
ATOM      9  C   UNL     1       2.650   3.437  20.311  0.00  0.00    +0.000 A 
ATOM     10  C   UNL     1       2.466   4.820  20.199  0.00  0.00    +0.000 A 
ATOM     11  C   UNL     1       3.017   5.424  19.088  0.00  0.00    +0.000 A 
ATOM     12  H   UNL     1       4.899   5.340  16.419  0.00  0.00    +0.000 HD
ENDROOT
BRANCH   1  20
ATOM     13  N   UNL     1       0.690  10.055  20.003  0.00  0.00    +0.000 N 
ATOM     14  C   UNL     1       0.241  11.344  20.235  0.00  0.00    +0.000 C 
ATOM     15  O   UNL     1      -0.357  11.722  21.238  0.00  0.00    +0.000 OA
ATOM     16  C   UNL     1       0.463  12.242  19.045  0.00  0.00    +0.000 C 
ATOM     17  C   UNL     1      -0.831  12.317  18.246  0.00  0.00    +0.000 C 
ATOM     18  S   UNL     1       1.741  11.420  18.075  0.00  0.00    +0.000 S 
ATOM     19  C   UNL     1       1.536   9.903  18.935  0.00  0.00    +0.000 C 
ATOM     20  N   UNL     1       2.180   8.888  18.459  0.00  0.00    +0.000 NA
BRANCH  13  21
ATOM     21  C   UNL     1       0.198   8.998  20.868  0.00  0.00    +0.000 C 
BRANCH  21  23
ATOM     22  C   UNL     1       0.215   9.341  23.355  0.00  0.00    +0.000 C 
ATOM     23  C   UNL     1       0.858   9.064  22.212  0.00  0.00    +0.000 C 
ENDBRANCH  21  23
ENDBRANCH  13  21
ENDBRANCH   1  20
BRANCH   9  24
ATOM     24  N   UNL     1       2.107   2.730  21.475  0.00  0.00    +0.000 N 
ATOM     25  O   UNL     1       2.905   2.138  22.213  0.00  0.00    +0.000 OA
ATOM     26  O   UNL     1       0.882   2.774  21.650  0.00  0.00    +0.000 OA
ENDBRANCH   9  24
TORSDOF 4
ENDMDL
MODEL 6
REMARK VINA RESULT:      -6.1      2.814      7.559
REMARK  Name = 
REMARK  5 active torsions:
REMARK  status: ('A' for Active; 'I' for Inactive)
REMARK    1  A    between atoms: C_2  and  C_3
REMARK    2  A    between atoms: C_3  and  N_4
REMARK    3  A    between atoms: C_7  and  C_8
REMARK    4  A    between atoms: N_11  and  N_12
REMARK    5  A    between atoms: C_20  and  N_21
REMARK                            x       y       z     vdW  Elec       q    Type
REMARK                         _______ _______ _______ _____ _____    ______ ____
ROOT
ATOM      1  N   UNL     1       2.377   7.355  19.846  0.00  0.00    +0.000 NA
ATOM      2  C   UNL     1       2.445   6.107  19.503  0.00  0.00    +0.000 C 
ATOM      3  C   UNL     1       1.745   4.864  20.100  0.00  0.00    +0.000 C 
ATOM      4  O   UNL     1       0.796   4.815  20.850  0.00  0.00    +0.000 OA
ATOM      5  N   UNL     1       2.427   3.785  19.564  0.00  0.00    +0.000 N 
ATOM      6  C   UNL     1       3.373   4.201  18.637  0.00  0.00    +0.000 A 
ATOM      7  C   UNL     1       4.234   3.412  17.904  0.00  0.00    +0.000 A 
ATOM      8  C   UNL     1       5.082   4.056  16.991  0.00  0.00    +0.000 A 
ATOM      9  C   UNL     1       5.025   5.466  16.819  0.00  0.00    +0.000 A 
ATOM     10  C   UNL     1       4.161   6.256  17.588  0.00  0.00    +0.000 A 
ATOM     11  C   UNL     1       3.370   5.589  18.500  0.00  0.00    +0.000 A 
ATOM     12  H   UNL     1       2.183   2.830  19.785  0.00  0.00    +0.000 HD
ENDROOT
BRANCH   1  20
ATOM     13  N   UNL     1       0.654   9.690  19.967  0.00  0.00    +0.000 N 
ATOM     14  C   UNL     1      -0.346  10.610  20.234  0.00  0.00    +0.000 C 
ATOM     15  O   UNL     1      -0.702  11.516  19.487  0.00  0.00    +0.000 OA
ATOM     16  C   UNL     1      -0.896  10.456  21.630  0.00  0.00    +0.000 C 
ATOM     17  C   UNL     1      -0.213  11.472  22.535  0.00  0.00    +0.000 C 
ATOM     18  S   UNL     1      -0.443   8.784  22.125  0.00  0.00    +0.000 S 
ATOM     19  C   UNL     1       0.727   8.625  20.827  0.00  0.00    +0.000 C 
ATOM     20  N   UNL     1       1.475   7.571  20.861  0.00  0.00    +0.000 NA
BRANCH  13  21
ATOM     21  C   UNL     1       1.541   9.958  18.850  0.00  0.00    +0.000 C 
BRANCH  21  23
ATOM     22  C   UNL     1      -0.172   9.102  17.227  0.00  0.00    +0.000 C 
ATOM     23  C   UNL     1       1.101   9.204  17.631  0.00  0.00    +0.000 C 
ENDBRANCH  21  23
ENDBRANCH  13  21
ENDBRANCH   1  20
BRANCH   9  24
ATOM     24  N   UNL     1       5.884   6.106  15.818  0.00  0.00    +0.000 N 
ATOM     25  O   UNL     1       7.095   5.847  15.848  0.00  0.00    +0.000 OA
ATOM     26  O   UNL     1       5.344   6.862  14.999  0.00  0.00    +0.000 OA
ENDBRANCH   9  24
TORSDOF 4
ENDMDL
MODEL 7
REMARK VINA RESULT:      -6.1      2.746      7.025
REMARK  Name = 
REMARK  5 active torsions:
REMARK  status: ('A' for Active; 'I' for Inactive)
REMARK    1  A    between atoms: C_2  and  C_3
REMARK    2  A    between atoms: C_3  and  N_4
REMARK    3  A    between atoms: C_7  and  C_8
REMARK    4  A    between atoms: N_11  and  N_12
REMARK    5  A    between atoms: C_20  and  N_21
REMARK                            x       y       z     vdW  Elec       q    Type
REMARK                         _______ _______ _______ _____ _____    ______ ____
ROOT
ATOM      1  N   UNL     1       0.959   8.785  19.939  0.00  0.00    +0.000 NA
ATOM      2  C   UNL     1       1.828   8.140  19.225  0.00  0.00    +0.000 C 
ATOM      3  C   UNL     1       2.618   8.577  17.970  0.00  0.00    +0.000 C 
ATOM      4  O   UNL     1       2.786   9.693  17.531  0.00  0.00    +0.000 OA
ATOM      5  N   UNL     1       3.134   7.403  17.451  0.00  0.00    +0.000 N 
ATOM      6  C   UNL     1       2.858   6.325  18.281  0.00  0.00    +0.000 A 
ATOM      7  C   UNL     1       3.213   5.006  18.092  0.00  0.00    +0.000 A 
ATOM      8  C   UNL     1       2.856   4.090  19.093  0.00  0.00    +0.000 A 
ATOM      9  C   UNL     1       2.180   4.525  20.265  0.00  0.00    +0.000 A 
ATOM     10  C   UNL     1       1.806   5.864  20.432  0.00  0.00    +0.000 A 
ATOM     11  C   UNL     1       2.143   6.726  19.409  0.00  0.00    +0.000 A 
ATOM     12  H   UNL     1       3.702   7.386  16.615  0.00  0.00    +0.000 HD
ENDROOT
BRANCH   1  20
ATOM     13  N   UNL     1      -0.499  10.777  21.468  0.00  0.00    +0.000 N 
ATOM     14  C   UNL     1      -1.021  11.942  22.005  0.00  0.00    +0.000 C 
ATOM     15  O   UNL     1      -1.466  12.068  23.142  0.00  0.00    +0.000 OA
ATOM     16  C   UNL     1      -1.101  13.048  20.984  0.00  0.00    +0.000 C 
ATOM     17  C   UNL     1      -2.516  13.094  20.426  0.00  0.00    +0.000 C 
ATOM     18  S   UNL     1       0.058  12.568  19.689  0.00  0.00    +0.000 S 
ATOM     19  C   UNL     1       0.155  10.915  20.271  0.00  0.00    +0.000 C 
ATOM     20  N   UNL     1       0.798  10.084  19.519  0.00  0.00    +0.000 NA
BRANCH  13  21
ATOM     21  C   UNL     1      -0.727   9.537  22.187  0.00  0.00    +0.000 C 
BRANCH  21  23
ATOM     22  C   UNL     1       1.560   9.276  23.186  0.00  0.00    +0.000 C 
ATOM     23  C   UNL     1       0.234   9.401  23.328  0.00  0.00    +0.000 C 
ENDBRANCH  21  23
ENDBRANCH  13  21
ENDBRANCH   1  20
BRANCH   9  24
ATOM     24  N   UNL     1       1.869   3.554  21.319  0.00  0.00    +0.000 N 
ATOM     25  O   UNL     1       2.572   3.567  22.339  0.00  0.00    +0.000 OA
ATOM     26  O   UNL     1       0.919   2.784  21.127  0.00  0.00    +0.000 OA
ENDBRANCH   9  24
TORSDOF 4
ENDMDL
MODEL 8
REMARK VINA RESULT:      -6.0      5.183      8.943
REMARK  Name = 
REMARK  5 active torsions:
REMARK  status: ('A' for Active; 'I' for Inactive)
REMARK    1  A    between atoms: C_2  and  C_3
REMARK    2  A    between atoms: C_3  and  N_4
REMARK    3  A    between atoms: C_7  and  C_8
REMARK    4  A    between atoms: N_11  and  N_12
REMARK    5  A    between atoms: C_20  and  N_21
REMARK                            x       y       z     vdW  Elec       q    Type
REMARK                         _______ _______ _______ _____ _____    ______ ____
ROOT
ATOM      1  N   UNL     1      -2.145  12.185  19.991  0.00  0.00    +0.000 NA
ATOM      2  C   UNL     1      -1.744  11.539  21.040  0.00  0.00    +0.000 C 
ATOM      3  C   UNL     1      -2.132  11.703  22.528  0.00  0.00    +0.000 C 
ATOM      4  O   UNL     1      -3.073  12.297  23.004  0.00  0.00    +0.000 OA
ATOM      5  N   UNL     1      -1.172  10.989  23.223  0.00  0.00    +0.000 N 
ATOM      6  C   UNL     1      -0.318  10.322  22.355  0.00  0.00    +0.000 A 
ATOM      7  C   UNL     1       0.750   9.515  22.684  0.00  0.00    +0.000 A 
ATOM      8  C   UNL     1       1.450   8.908  21.630  0.00  0.00    +0.000 A 
ATOM      9  C   UNL     1       1.044   9.104  20.283  0.00  0.00    +0.000 A 
ATOM     10  C   UNL     1      -0.030   9.945  19.964  0.00  0.00    +0.000 A 
ATOM     11  C   UNL     1      -0.669  10.551  21.026  0.00  0.00    +0.000 A 
ATOM     12  H   UNL     1      -1.175  10.923  24.232  0.00  0.00    +0.000 HD
ENDROOT
BRANCH   1  20
ATOM     13  N   UNL     1      -4.854  12.012  18.955  0.00  0.00    +0.000 N 
ATOM     14  C   UNL     1      -6.212  12.137  18.718  0.00  0.00    +0.000 C 
ATOM     15  O   UNL     1      -6.918  11.305  18.155  0.00  0.00    +0.000 OA
ATOM     16  C   UNL     1      -6.735  13.490  19.128  0.00  0.00    +0.000 C 
ATOM     17  C   UNL     1      -6.800  14.380  17.894  0.00  0.00    +0.000 C 
ATOM     18  S   UNL     1      -5.510  14.129  20.286  0.00  0.00    +0.000 S 
ATOM     19  C   UNL     1      -4.310  12.943  19.802  0.00  0.00    +0.000 C 
ATOM     20  N   UNL     1      -3.122  13.107  20.285  0.00  0.00    +0.000 NA
BRANCH  13  21
ATOM     21  C   UNL     1      -4.138  10.956  18.263  0.00  0.00    +0.000 C 
BRANCH  21  23
ATOM     22  C   UNL     1      -3.201  10.585  15.965  0.00  0.00    +0.000 C 
ATOM     23  C   UNL     1      -3.773  11.384  16.874  0.00  0.00    +0.000 C 
ENDBRANCH  21  23
ENDBRANCH  13  21
ENDBRANCH   1  20
BRANCH   9  24
ATOM     24  N   UNL     1       1.760   8.413  19.206  0.00  0.00    +0.000 N 
ATOM     25  O   UNL     1       1.759   8.938  18.085  0.00  0.00    +0.000 OA
ATOM     26  O   UNL     1       2.325   7.347  19.486  0.00  0.00    +0.000 OA
ENDBRANCH   9  24
TORSDOF 4
ENDMDL
MODEL 9
REMARK VINA RESULT:      -6.0      6.879      8.663
REMARK  Name = 
REMARK  5 active torsions:
REMARK  status: ('A' for Active; 'I' for Inactive)
REMARK    1  A    between atoms: C_2  and  C_3
REMARK    2  A    between atoms: C_3  and  N_4
REMARK    3  A    between atoms: C_7  and  C_8
REMARK    4  A    between atoms: N_11  and  N_12
REMARK    5  A    between atoms: C_20  and  N_21
REMARK                            x       y       z     vdW  Elec       q    Type
REMARK                         _______ _______ _______ _____ _____    ______ ____
ROOT
ATOM      1  N   UNL     1      -2.358  11.878  19.507  0.00  0.00    +0.000 NA
ATOM      2  C   UNL     1      -3.303  11.723  18.635  0.00  0.00    +0.000 C 
ATOM      3  C   UNL     1      -3.232  11.514  17.104  0.00  0.00    +0.000 C 
ATOM      4  O   UNL     1      -2.279  11.202  16.426  0.00  0.00    +0.000 OA
ATOM      5  N   UNL     1      -4.523  11.736  16.658  0.00  0.00    +0.000 N 
ATOM      6  C   UNL     1      -5.392  11.942  17.721  0.00  0.00    +0.000 A 
ATOM      7  C   UNL     1      -6.747  12.190  17.662  0.00  0.00    +0.000 A 
ATOM      8  C   UNL     1      -7.433  12.326  18.878  0.00  0.00    +0.000 A 
ATOM      9  C   UNL     1      -6.749  12.183  20.116  0.00  0.00    +0.000 A 
ATOM     10  C   UNL     1      -5.368  11.953  20.159  0.00  0.00    +0.000 A 
ATOM     11  C   UNL     1      -4.724  11.862  18.942  0.00  0.00    +0.000 A 
ATOM     12  H   UNL     1      -4.774  11.668  15.682  0.00  0.00    +0.000 HD
ENDROOT
BRANCH   1  20
ATOM     13  N   UNL     1       0.009  13.118  20.648  0.00  0.00    +0.000 N 
ATOM     14  C   UNL     1       1.298  13.480  21.002  0.00  0.00    +0.000 C 
ATOM     15  O   UNL     1       1.624  14.014  22.059  0.00  0.00    +0.000 OA
ATOM     16  C   UNL     1       2.277  13.255  19.879  0.00  0.00    +0.000 C 
ATOM     17  C   UNL     1       2.489  14.573  19.148  0.00  0.00    +0.000 C 
ATOM     18  S   UNL     1       1.468  12.068  18.790  0.00  0.00    +0.000 S 
ATOM     19  C   UNL     1      -0.100  12.326  19.534  0.00  0.00    +0.000 C 
ATOM     20  N   UNL     1      -1.106  11.763  18.949  0.00  0.00    +0.000 NA
BRANCH  13  21
ATOM     21  C   UNL     1      -1.086  13.635  21.447  0.00  0.00    +0.000 C 
BRANCH  21  23
ATOM     22  C   UNL     1      -2.334  12.141  23.032  0.00  0.00    +0.000 C 
ATOM     23  C   UNL     1      -1.240  12.845  22.711  0.00  0.00    +0.000 C 
ENDBRANCH  21  23
ENDBRANCH  13  21
ENDBRANCH   1  20
BRANCH   9  24
ATOM     24  N   UNL     1      -7.502  12.275  21.370  0.00  0.00    +0.000 N 
ATOM     25  O   UNL     1      -7.915  13.391  21.713  0.00  0.00    +0.000 OA
ATOM     26  O   UNL     1      -7.682  11.229  22.008  0.00  0.00    +0.000 OA
ENDBRANCH   9  24
TORSDOF 4
ENDMDL
