MODEL 1
REMARK VINA RESULT:      -6.9      0.000      0.000
REMARK  Name = 
REMARK  3 active torsions:
REMARK  status: ('A' for Active; 'I' for Inactive)
REMARK    1  A    between atoms: C_11  and  O_12
REMARK    2  A    between atoms: C_11  and  C_13
REMARK    3  A    between atoms: C_13  and  C_14
REMARK                            x       y       z     vdW  Elec       q    Type
REMARK                         _______ _______ _______ _____ _____    ______ ____
ROOT
ATOM      1  O   UNL     1       5.495   5.462  19.730  0.00  0.00    +0.000 OA
ATOM      2  C   UNL     1       5.606   5.082  18.578  0.00  0.00    +0.000 C 
ATOM      3  N   UNL     1       6.779   5.169  17.828  0.00  0.00    +0.000 N 
ATOM      4  C   UNL     1       6.563   4.812  16.505  0.00  0.00    +0.000 A 
ATOM      5  C   UNL     1       7.481   4.832  15.478  0.00  0.00    +0.000 A 
ATOM      6  C   UNL     1       7.029   4.465  14.206  0.00  0.00    +0.000 A 
ATOM      7  C   UNL     1       5.682   4.118  13.998  0.00  0.00    +0.000 A 
ATOM      8 BR   UNL     1       5.102   3.641  12.261  0.00  0.00    +0.000 Br
ATOM      9  C   UNL     1       4.767   4.109  15.052  0.00  0.00    +0.000 A 
ATOM     10  C   UNL     1       5.233   4.442  16.315  0.00  0.00    +0.000 A 
ATOM     11  C   UNL     1       4.496   4.470  17.638  0.00  0.00    +0.000 C 
ATOM     12  H   UNL     1       7.633   5.541  18.207  0.00  0.00    +0.000 HD
ENDROOT
BRANCH  11  13
ATOM     13  O   UNL     1       3.324   5.247  17.464  0.00  0.00    +0.000 OA
ATOM     14  H   UNL     1       2.953   5.015  16.595  0.00  0.00    +0.000 HD
ENDBRANCH  11  13
BRANCH  11  15
ATOM     15  C   UNL     1       4.171   3.024  18.082  0.00  0.00    +0.000 C 
BRANCH  15  16
ATOM     16  C   UNL     1       3.109   2.918  19.153  0.00  0.00    +0.000 A 
ATOM     17  C   UNL     1       1.753   2.974  18.822  0.00  0.00    +0.000 A 
ATOM     18  C   UNL     1       0.814   2.948  19.840  0.00  0.00    +0.000 A 
ATOM     19  N   UNL     1       1.125   2.833  21.147  0.00  0.00    +0.000 NA
ATOM     20  C   UNL     1       2.439   2.753  21.447  0.00  0.00    +0.000 A 
ATOM     21  C   UNL     1       3.454   2.785  20.501  0.00  0.00    +0.000 A 
ENDBRANCH  15  16
ENDBRANCH  11  15
TORSDOF 3
ENDMDL
MODEL 2
REMARK VINA RESULT:      -6.9      0.081      1.080
REMARK  Name = 
REMARK  3 active torsions:
REMARK  status: ('A' for Active; 'I' for Inactive)
REMARK    1  A    between atoms: C_11  and  O_12
REMARK    2  A    between atoms: C_11  and  C_13
REMARK    3  A    between atoms: C_13  and  C_14
REMARK                            x       y       z     vdW  Elec       q    Type
REMARK                         _______ _______ _______ _____ _____    ______ ____
ROOT
ATOM      1  O   UNL     1       5.597   5.525  19.682  0.00  0.00    +0.000 OA
ATOM      2  C   UNL     1       5.680   5.130  18.532  0.00  0.00    +0.000 C 
ATOM      3  N   UNL     1       6.842   5.183  17.762  0.00  0.00    +0.000 N 
ATOM      4  C   UNL     1       6.596   4.818  16.447  0.00  0.00    +0.000 A 
ATOM      5  C   UNL     1       7.497   4.806  15.404  0.00  0.00    +0.000 A 
ATOM      6  C   UNL     1       7.016   4.436  14.144  0.00  0.00    +0.000 A 
ATOM      7  C   UNL     1       5.658   4.117  13.962  0.00  0.00    +0.000 A 
ATOM      8 BR   UNL     1       5.039   3.635  12.241  0.00  0.00    +0.000 Br
ATOM      9  C   UNL     1       4.761   4.140  15.031  0.00  0.00    +0.000 A 
ATOM     10  C   UNL     1       5.256   4.475  16.282  0.00  0.00    +0.000 A 
ATOM     11  C   UNL     1       4.541   4.533  17.617  0.00  0.00    +0.000 C 
ATOM     12  H   UNL     1       7.711   5.540  18.122  0.00  0.00    +0.000 HD
ENDROOT
BRANCH  11  13
ATOM     13  O   UNL     1       3.384   5.334  17.455  0.00  0.00    +0.000 OA
ATOM     14  H   UNL     1       2.850   4.925  16.752  0.00  0.00    +0.000 HD
ENDBRANCH  11  13
BRANCH  11  15
ATOM     15  C   UNL     1       4.193   3.099  18.083  0.00  0.00    +0.000 C 
BRANCH  15  16
ATOM     16  C   UNL     1       3.115   3.026  19.141  0.00  0.00    +0.000 A 
ATOM     17  C   UNL     1       3.449   2.898  20.492  0.00  0.00    +0.000 A 
ATOM     18  C   UNL     1       2.433   2.759  21.422  0.00  0.00    +0.000 A 
ATOM     19  N   UNL     1       1.121   2.775  21.110  0.00  0.00    +0.000 NA
ATOM     20  C   UNL     1       0.816   2.926  19.804  0.00  0.00    +0.000 A 
ATOM     21  C   UNL     1       1.761   3.059  18.796  0.00  0.00    +0.000 A 
ENDBRANCH  15  16
ENDBRANCH  11  15
TORSDOF 3
ENDMDL
MODEL 3
REMARK VINA RESULT:      -6.8      4.358      5.401
REMARK  Name = 
REMARK  3 active torsions:
REMARK  status: ('A' for Active; 'I' for Inactive)
REMARK    1  A    between atoms: C_11  and  O_12
REMARK    2  A    between atoms: C_11  and  C_13
REMARK    3  A    between atoms: C_13  and  C_14
REMARK                            x       y       z     vdW  Elec       q    Type
REMARK                         _______ _______ _______ _____ _____    ______ ____
ROOT
ATOM      1  O   UNL     1       4.807   6.037  16.731  0.00  0.00    +0.000 OA
ATOM      2  C   UNL     1       3.936   6.578  17.392  0.00  0.00    +0.000 C 
ATOM      3  N   UNL     1       3.317   7.779  17.047  0.00  0.00    +0.000 N 
ATOM      4  C   UNL     1       2.491   8.233  18.064  0.00  0.00    +0.000 A 
ATOM      5  C   UNL     1       1.767   9.406  18.088  0.00  0.00    +0.000 A 
ATOM      6  C   UNL     1       1.026   9.681  19.242  0.00  0.00    +0.000 A 
ATOM      7  C   UNL     1       1.052   8.796  20.335  0.00  0.00    +0.000 A 
ATOM      8 BR   UNL     1       0.050   9.206  21.887  0.00  0.00    +0.000 Br
ATOM      9  C   UNL     1       1.795   7.615  20.293  0.00  0.00    +0.000 A 
ATOM     10  C   UNL     1       2.498   7.336  19.131  0.00  0.00    +0.000 A 
ATOM     11  C   UNL     1       3.339   6.126  18.780  0.00  0.00    +0.000 C 
ATOM     12  H   UNL     1       3.540   8.277  16.202  0.00  0.00    +0.000 HD
ENDROOT
BRANCH  11  13
ATOM     13  O   UNL     1       4.271   5.927  19.829  0.00  0.00    +0.000 OA
ATOM     14  H   UNL     1       5.146   6.174  19.484  0.00  0.00    +0.000 HD
ENDBRANCH  11  13
BRANCH  11  15
ATOM     15  C   UNL     1       2.421   4.896  18.581  0.00  0.00    +0.000 C 
BRANCH  15  16
ATOM     16  C   UNL     1       2.411   3.924  19.738  0.00  0.00    +0.000 A 
ATOM     17  C   UNL     1       1.355   3.913  20.653  0.00  0.00    +0.000 A 
ATOM     18  C   UNL     1       1.420   3.057  21.740  0.00  0.00    +0.000 A 
ATOM     19  N   UNL     1       2.434   2.195  21.959  0.00  0.00    +0.000 NA
ATOM     20  C   UNL     1       3.433   2.200  21.050  0.00  0.00    +0.000 A 
ATOM     21  C   UNL     1       3.466   3.028  19.937  0.00  0.00    +0.000 A 
ENDBRANCH  15  16
ENDBRANCH  11  15
TORSDOF 3
ENDMDL
MODEL 4
REMARK VINA RESULT:      -6.8      3.084      3.992
REMARK  Name = 
REMARK  3 active torsions:
REMARK  status: ('A' for Active; 'I' for Inactive)
REMARK    1  A    between atoms: C_11  and  O_12
REMARK    2  A    between atoms: C_11  and  C_13
REMARK    3  A    between atoms: C_13  and  C_14
REMARK                            x       y       z     vdW  Elec       q    Type
REMARK                         _______ _______ _______ _____ _____    ______ ____
ROOT
ATOM      1  O   UNL     1       6.640   4.218  16.396  0.00  0.00    +0.000 OA
ATOM      2  C   UNL     1       5.708   4.801  16.923  0.00  0.00    +0.000 C 
ATOM      3  N   UNL     1       5.118   5.959  16.419  0.00  0.00    +0.000 N 
ATOM      4  C   UNL     1       4.195   6.488  17.310  0.00  0.00    +0.000 A 
ATOM      5  C   UNL     1       3.466   7.648  17.163  0.00  0.00    +0.000 A 
ATOM      6  C   UNL     1       2.618   8.010  18.214  0.00  0.00    +0.000 A 
ATOM      7  C   UNL     1       2.545   7.224  19.378  0.00  0.00    +0.000 A 
ATOM      8 BR   UNL     1       1.397   7.752  20.787  0.00  0.00    +0.000 Br
ATOM      9  C   UNL     1       3.295   6.054  19.509  0.00  0.00    +0.000 A 
ATOM     10  C   UNL     1       4.107   5.686  18.447  0.00  0.00    +0.000 A 
ATOM     11  C   UNL     1       4.984   4.462  18.283  0.00  0.00    +0.000 C 
ATOM     12  H   UNL     1       5.416   6.385  15.558  0.00  0.00    +0.000 HD
ENDROOT
BRANCH  11  13
ATOM     13  O   UNL     1       5.814   4.368  19.428  0.00  0.00    +0.000 OA
ATOM     14  H   UNL     1       6.280   5.217  19.515  0.00  0.00    +0.000 HD
ENDBRANCH  11  13
BRANCH  11  15
ATOM     15  C   UNL     1       4.097   3.207  18.106  0.00  0.00    +0.000 C 
BRANCH  15  16
ATOM     16  C   UNL     1       3.073   3.001  19.199  0.00  0.00    +0.000 A 
ATOM     17  C   UNL     1       1.707   3.132  18.933  0.00  0.00    +0.000 A 
ATOM     18  C   UNL     1       0.807   3.007  19.977  0.00  0.00    +0.000 A 
ATOM     19  N   UNL     1       1.163   2.729  21.248  0.00  0.00    +0.000 NA
ATOM     20  C   UNL     1       2.484   2.580  21.482  0.00  0.00    +0.000 A 
ATOM     21  C   UNL     1       3.464   2.698  20.507  0.00  0.00    +0.000 A 
ENDBRANCH  15  16
ENDBRANCH  11  15
TORSDOF 3
ENDMDL
MODEL 5
REMARK VINA RESULT:      -6.8      2.846      6.130
REMARK  Name = 
REMARK  3 active torsions:
REMARK  status: ('A' for Active; 'I' for Inactive)
REMARK    1  A    between atoms: C_11  and  O_12
REMARK    2  A    between atoms: C_11  and  C_13
REMARK    3  A    between atoms: C_13  and  C_14
REMARK                            x       y       z     vdW  Elec       q    Type
REMARK                         _______ _______ _______ _____ _____    ______ ____
ROOT
ATOM      1  O   UNL     1       7.704   5.995  17.207  0.00  0.00    +0.000 OA
ATOM      2  C   UNL     1       6.570   5.643  17.484  0.00  0.00    +0.000 C 
ATOM      3  N   UNL     1       5.855   6.092  18.594  0.00  0.00    +0.000 N 
ATOM      4  C   UNL     1       4.662   5.399  18.743  0.00  0.00    +0.000 A 
ATOM      5  C   UNL     1       3.737   5.544  19.754  0.00  0.00    +0.000 A 
ATOM      6  C   UNL     1       2.616   4.707  19.723  0.00  0.00    +0.000 A 
ATOM      7  C   UNL     1       2.470   3.744  18.707  0.00  0.00    +0.000 A 
ATOM      8 BR   UNL     1       0.950   2.619  18.705  0.00  0.00    +0.000 Br
ATOM      9  C   UNL     1       3.422   3.612  17.695  0.00  0.00    +0.000 A 
ATOM     10  C   UNL     1       4.511   4.469  17.716  0.00  0.00    +0.000 A 
ATOM     11  C   UNL     1       5.661   4.592  16.737  0.00  0.00    +0.000 C 
ATOM     12  H   UNL     1       6.231   6.764  19.241  0.00  0.00    +0.000 HD
ENDROOT
BRANCH  11  13
ATOM     13  O   UNL     1       6.215   3.301  16.555  0.00  0.00    +0.000 OA
ATOM     14  H   UNL     1       6.565   3.265  15.648  0.00  0.00    +0.000 HD
ENDBRANCH  11  13
BRANCH  11  15
ATOM     15  C   UNL     1       5.148   5.194  15.407  0.00  0.00    +0.000 C 
BRANCH  15  16
ATOM     16  C   UNL     1       5.852   4.682  14.171  0.00  0.00    +0.000 A 
ATOM     17  C   UNL     1       7.108   5.174  13.809  0.00  0.00    +0.000 A 
ATOM     18  C   UNL     1       7.686   4.733  12.630  0.00  0.00    +0.000 A 
ATOM     19  N   UNL     1       7.123   3.819  11.814  0.00  0.00    +0.000 NA
ATOM     20  C   UNL     1       5.921   3.334  12.193  0.00  0.00    +0.000 A 
ATOM     21  C   UNL     1       5.256   3.723  13.347  0.00  0.00    +0.000 A 
ENDBRANCH  15  16
ENDBRANCH  11  15
TORSDOF 3
ENDMDL
MODEL 6
REMARK VINA RESULT:      -6.7      2.828      6.055
REMARK  Name = 
REMARK  3 active torsions:
REMARK  status: ('A' for Active; 'I' for Inactive)
REMARK    1  A    between atoms: C_11  and  O_12
REMARK    2  A    between atoms: C_11  and  C_13
REMARK    3  A    between atoms: C_13  and  C_14
REMARK                            x       y       z     vdW  Elec       q    Type
REMARK                         _______ _______ _______ _____ _____    ______ ____
ROOT
ATOM      1  O   UNL     1       7.679   5.898  17.166  0.00  0.00    +0.000 OA
ATOM      2  C   UNL     1       6.547   5.549  17.454  0.00  0.00    +0.000 C 
ATOM      3  N   UNL     1       5.856   5.975  18.588  0.00  0.00    +0.000 N 
ATOM      4  C   UNL     1       4.660   5.289  18.740  0.00  0.00    +0.000 A 
ATOM      5  C   UNL     1       3.754   5.415  19.770  0.00  0.00    +0.000 A 
ATOM      6  C   UNL     1       2.626   4.588  19.739  0.00  0.00    +0.000 A 
ATOM      7  C   UNL     1       2.455   3.652  18.703  0.00  0.00    +0.000 A 
ATOM      8 BR   UNL     1       0.925   2.538  18.699  0.00  0.00    +0.000 Br
ATOM      9  C   UNL     1       3.388   3.537  17.671  0.00  0.00    +0.000 A 
ATOM     10  C   UNL     1       4.484   4.385  17.694  0.00  0.00    +0.000 A 
ATOM     11  C   UNL     1       5.617   4.524  16.698  0.00  0.00    +0.000 C 
ATOM     12  H   UNL     1       6.248   6.629  19.244  0.00  0.00    +0.000 HD
ENDROOT
BRANCH  11  13
ATOM     13  O   UNL     1       6.158   3.233  16.475  0.00  0.00    +0.000 OA
ATOM     14  H   UNL     1       7.092   3.352  16.231  0.00  0.00    +0.000 HD
ENDBRANCH  11  13
BRANCH  11  15
ATOM     15  C   UNL     1       5.086   5.162  15.392  0.00  0.00    +0.000 C 
BRANCH  15  16
ATOM     16  C   UNL     1       5.774   4.685  14.133  0.00  0.00    +0.000 A 
ATOM     17  C   UNL     1       5.171   3.735  13.305  0.00  0.00    +0.000 A 
ATOM     18  C   UNL     1       5.866   3.271  12.201  0.00  0.00    +0.000 A 
ATOM     19  N   UNL     1       7.092   3.708  11.847  0.00  0.00    +0.000 NA
ATOM     20  C   UNL     1       7.649   4.645  12.643  0.00  0.00    +0.000 A 
ATOM     21  C   UNL     1       7.039   5.163  13.777  0.00  0.00    +0.000 A 
ENDBRANCH  15  16
ENDBRANCH  11  15
TORSDOF 3
ENDMDL
MODEL 7
REMARK VINA RESULT:      -6.7      1.726      2.096
REMARK  Name = 
REMARK  3 active torsions:
REMARK  status: ('A' for Active; 'I' for Inactive)
REMARK    1  A    between atoms: C_11  and  O_12
REMARK    2  A    between atoms: C_11  and  C_13
REMARK    3  A    between atoms: C_13  and  C_14
REMARK                            x       y       z     vdW  Elec       q    Type
REMARK                         _______ _______ _______ _____ _____    ______ ____
ROOT
ATOM      1  O   UNL     1       7.255   6.428  17.512  0.00  0.00    +0.000 OA
ATOM      2  C   UNL     1       6.931   5.788  16.527  0.00  0.00    +0.000 C 
ATOM      3  N   UNL     1       7.777   5.513  15.452  0.00  0.00    +0.000 N 
ATOM      4  C   UNL     1       7.090   4.910  14.408  0.00  0.00    +0.000 A 
ATOM      5  C   UNL     1       7.597   4.550  13.178  0.00  0.00    +0.000 A 
ATOM      6  C   UNL     1       6.707   3.987  12.257  0.00  0.00    +0.000 A 
ATOM      7  C   UNL     1       5.347   3.829  12.582  0.00  0.00    +0.000 A 
ATOM      8 BR   UNL     1       4.168   3.078  11.307  0.00  0.00    +0.000 Br
ATOM      9  C   UNL     1       4.854   4.205  13.832  0.00  0.00    +0.000 A 
ATOM     10  C   UNL     1       5.751   4.729  14.750  0.00  0.00    +0.000 A 
ATOM     11  C   UNL     1       5.520   5.172  16.180  0.00  0.00    +0.000 C 
ATOM     12  H   UNL     1       8.736   5.815  15.431  0.00  0.00    +0.000 HD
ENDROOT
BRANCH  11  13
ATOM     13  O   UNL     1       4.426   6.072  16.183  0.00  0.00    +0.000 OA
ATOM     14  H   UNL     1       4.646   6.788  16.803  0.00  0.00    +0.000 HD
ENDBRANCH  11  13
BRANCH  11  15
ATOM     15  C   UNL     1       5.255   3.935  17.070  0.00  0.00    +0.000 C 
BRANCH  15  16
ATOM     16  C   UNL     1       3.983   4.005  17.884  0.00  0.00    +0.000 A 
ATOM     17  C   UNL     1       2.780   3.512  17.373  0.00  0.00    +0.000 A 
ATOM     18  C   UNL     1       1.623   3.662  18.120  0.00  0.00    +0.000 A 
ATOM     19  N   UNL     1       1.587   4.231  19.343  0.00  0.00    +0.000 NA
ATOM     20  C   UNL     1       2.763   4.678  19.832  0.00  0.00    +0.000 A 
ATOM     21  C   UNL     1       3.971   4.586  19.155  0.00  0.00    +0.000 A 
ENDBRANCH  15  16
ENDBRANCH  11  15
TORSDOF 3
ENDMDL
MODEL 8
REMARK VINA RESULT:      -6.7      1.591      2.134
REMARK  Name = 
REMARK  3 active torsions:
REMARK  status: ('A' for Active; 'I' for Inactive)
REMARK    1  A    between atoms: C_11  and  O_12
REMARK    2  A    between atoms: C_11  and  C_13
REMARK    3  A    between atoms: C_13  and  C_14
REMARK                            x       y       z     vdW  Elec       q    Type
REMARK                         _______ _______ _______ _____ _____    ______ ____
ROOT
ATOM      1  O   UNL     1       7.063   6.564  17.765  0.00  0.00    +0.000 OA
ATOM      2  C   UNL     1       6.802   5.912  16.769  0.00  0.00    +0.000 C 
ATOM      3  N   UNL     1       7.699   5.667  15.729  0.00  0.00    +0.000 N 
ATOM      4  C   UNL     1       7.076   5.040  14.659  0.00  0.00    +0.000 A 
ATOM      5  C   UNL     1       7.643   4.697  13.451  0.00  0.00    +0.000 A 
ATOM      6  C   UNL     1       6.811   4.102  12.497  0.00  0.00    +0.000 A 
ATOM      7  C   UNL     1       5.447   3.894  12.769  0.00  0.00    +0.000 A 
ATOM      8 BR   UNL     1       4.347   3.101  11.449  0.00  0.00    +0.000 Br
ATOM      9  C   UNL     1       4.891   4.253  13.998  0.00  0.00    +0.000 A 
ATOM     10  C   UNL     1       5.733   4.810  14.949  0.00  0.00    +0.000 A 
ATOM     11  C   UNL     1       5.429   5.245  16.368  0.00  0.00    +0.000 C 
ATOM     12  H   UNL     1       8.646   6.004  15.745  0.00  0.00    +0.000 HD
ENDROOT
BRANCH  11  13
ATOM     13  O   UNL     1       4.304   6.104  16.327  0.00  0.00    +0.000 OA
ATOM     14  H   UNL     1       4.423   6.696  15.565  0.00  0.00    +0.000 HD
ENDBRANCH  11  13
BRANCH  11  15
ATOM     15  C   UNL     1       5.175   3.999  17.249  0.00  0.00    +0.000 C 
BRANCH  15  16
ATOM     16  C   UNL     1       3.874   4.027  18.019  0.00  0.00    +0.000 A 
ATOM     17  C   UNL     1       3.817   4.566  19.307  0.00  0.00    +0.000 A 
ATOM     18  C   UNL     1       2.623   4.506  20.006  0.00  0.00    +0.000 A 
ATOM     19  N   UNL     1       1.484   3.986  19.504  0.00  0.00    +0.000 NA
ATOM     20  C   UNL     1       1.550   3.494  18.249  0.00  0.00    +0.000 A 
ATOM     21  C   UNL     1       2.701   3.496  17.474  0.00  0.00    +0.000 A 
ENDBRANCH  15  16
ENDBRANCH  11  15
TORSDOF 3
ENDMDL
MODEL 9
REMARK VINA RESULT:      -6.7      2.340      3.079
REMARK  Name = 
REMARK  3 active torsions:
REMARK  status: ('A' for Active; 'I' for Inactive)
REMARK    1  A    between atoms: C_11  and  O_12
REMARK    2  A    between atoms: C_11  and  C_13
REMARK    3  A    between atoms: C_13  and  C_14
REMARK                            x       y       z     vdW  Elec       q    Type
REMARK                         _______ _______ _______ _____ _____    ______ ____
ROOT
ATOM      1  O   UNL     1       1.871   7.011  20.479  0.00  0.00    +0.000 OA
ATOM      2  C   UNL     1       2.684   6.508  19.723  0.00  0.00    +0.000 C 
ATOM      3  N   UNL     1       3.839   5.844  20.137  0.00  0.00    +0.000 N 
ATOM      4  C   UNL     1       4.653   5.524  19.060  0.00  0.00    +0.000 A 
ATOM      5  C   UNL     1       5.888   4.915  19.103  0.00  0.00    +0.000 A 
ATOM      6  C   UNL     1       6.552   4.723  17.888  0.00  0.00    +0.000 A 
ATOM      7  C   UNL     1       5.978   5.164  16.681  0.00  0.00    +0.000 A 
ATOM      8 BR   UNL     1       6.912   4.902  15.057  0.00  0.00    +0.000 Br
ATOM      9  C   UNL     1       4.728   5.783  16.660  0.00  0.00    +0.000 A 
ATOM     10  C   UNL     1       4.063   5.938  17.867  0.00  0.00    +0.000 A 
ATOM     11  C   UNL     1       2.692   6.518  18.145  0.00  0.00    +0.000 C 
ATOM     12  H   UNL     1       4.068   5.717  21.107  0.00  0.00    +0.000 HD
ENDROOT
BRANCH  11  13
ATOM     13  O   UNL     1       2.626   7.791  17.526  0.00  0.00    +0.000 OA
ATOM     14  H   UNL     1       1.767   8.181  17.763  0.00  0.00    +0.000 HD
ENDBRANCH  11  13
BRANCH  11  15
ATOM     15  C   UNL     1       1.603   5.558  17.610  0.00  0.00    +0.000 C 
BRANCH  15  16
ATOM     16  C   UNL     1       1.722   4.134  18.103  0.00  0.00    +0.000 A 
ATOM     17  C   UNL     1       1.133   3.744  19.309  0.00  0.00    +0.000 A 
ATOM     18  C   UNL     1       1.327   2.450  19.762  0.00  0.00    +0.000 A 
ATOM     19  N   UNL     1       2.028   1.516  19.088  0.00  0.00    +0.000 NA
ATOM     20  C   UNL     1       2.568   1.901  17.912  0.00  0.00    +0.000 A 
ATOM     21  C   UNL     1       2.441   3.177  17.382  0.00  0.00    +0.000 A 
ENDBRANCH  15  16
ENDBRANCH  11  15
TORSDOF 3
ENDMDL
